@<TRIPOS>MOLECULE
3ozr_OZR_A_1.pdb
 24 25 0 0 0
SMALL
GASTEIGER

@<TRIPOS>ATOM
      1  C1       -20.1710   30.3130   13.4170 C.3   224  OZR224      0.2157
      2  C2       -21.0150   31.1480   14.4280 C.3   224  OZR224      0.2143
      3  C3       -21.8940   31.9600   13.4600 C.3   224  OZR224      0.1781
      4  O4       -21.0800   32.2130   12.2910 O.3   224  OZR224     -0.3464
      5  C5       -19.8870   31.3840   12.3220 C.3   224  OZR224      0.1699
      6  C6       -19.6090   30.7010   11.0200 C.2   224  OZR224      0.0027
      7  O7       -18.9300   29.7130   13.8080 O.3   224  OZR224     -0.2173
      8  O8       -20.1550   32.0210   15.1370 O.3   224  OZR224     -0.2176
      9  C9       -20.5300   30.5300   10.0710 C.2   224  OZR224     -0.0049
     10  C10      -20.2220   29.8380    8.7920 C.3   224  OZR224      0.1413
     11  N11      -21.3330   29.0860    8.2730 N.am  224  OZR224     -0.1967
     12  C12      -22.1520   29.6430    7.3490 C.2   224  OZR224      0.2684
     13  C13      -23.2590   28.8550    6.7400 C.ar  224  OZR224      0.0988
     14  C14      -23.3120   27.4510    6.9250 C.ar  224  OZR224      0.2387
     15  C15      -24.3720   26.7350    6.3650 C.ar  224  OZR224      0.2361
     16  C16      -25.3630   27.3590    5.6000 C.ar  224  OZR224      0.0694
     17  C17      -25.2830   28.7600    5.4370 C.ar  224  OZR224      0.1464
     18  C18      -24.2620   29.4990    6.0050 C.ar  224  OZR224      0.0321
     19  N19      -26.2750   29.5410    4.6820 N.pl3 224  OZR224      0.0578
     20  O20      -22.3800   26.7390    7.6040 O.3   224  OZR224     -0.2830
     21  O21      -24.4630   25.3680    6.5000 O.3   224  OZR224     -0.2831
     22  O22      -22.0050   30.8400    7.0220 O.2   224  OZR224     -0.2682
     23  O23      -27.1140   29.0050    3.9920 O.2   224  OZR224     -0.1261
     24  O24      -26.1780   30.7300    4.8010 O.2   224  OZR224     -0.1261
@<TRIPOS>BOND
     1    23    19    2
     2    19    24    2
     3    19    17    1
     4    17    16   ar
     5    17    18   ar
     6    16    15   ar
     7    18    13   ar
     8    15    21    1
     9    15    14   ar
    10    13    14   ar
    11    13    12    1
    12    14    20    1
    13    22    12    2
    14    12    11   am
    15    11    10    1
    16    10     9    1
    17     9     6    2
    18     6     5    1
    19     4     5    1
    20     4     3    1
    21     5     1    1
    22     1     7    1
    23     1     2    1
    24     3     2    1
    25     2     8    1
