@<TRIPOS>MOLECULE
3ozs_OZS_A_1.pdb
 33 35 0 0 0
SMALL
GASTEIGER

@<TRIPOS>ATOM
      1  C1       -20.0310   30.8770   13.1890 C.3   223  OZS223      0.2171
      2  C2       -18.6110   31.4540   13.4010 C.3   223  OZS223      0.2275
      3  C3       -17.7330   30.1670   13.5090 C.3   223  OZS223      0.2116
      4  O4       -18.2840   29.3890   12.4280 O.3   223  OZS223     -0.3335
      5  C5       -19.6660   29.7520   12.1530 C.3   223  OZS223      0.1715
      6  C6       -19.8220   30.2710   10.7650 C.2   223  OZS223      0.0027
      7  N7       -16.3340   30.3350   13.2220 N.3   223  OZS223     -0.2220
      8  O8       -20.5670   30.2580   14.3450 O.3   223  OZS223     -0.2173
      9  O9       -18.5430   32.2570   14.5860 O.3   223  OZS223     -0.2161
     10  C10      -20.6290   29.6600    9.9150 C.2   223  OZS223     -0.0049
     11  C11      -15.7260   31.2980   12.3440 C.3   223  OZS223      0.2026
     12  C12      -15.3430   29.5540   13.7340 C.3   223  OZS223      0.1257
     13  C13      -14.1910   30.0560   13.1430 C.2   223  OZS223      0.1428
     14  N14      -14.4220   31.1230   12.2990 N.2   223  OZS223     -0.2512
     15  C15      -12.8400   29.4920   13.3760 C.3   223  OZS223      0.4320
     16  C16      -20.8200   30.1560    8.4790 C.3   223  OZS223      0.1413
     17  N17      -21.7610   29.2760    7.7910 N.am  223  OZS223     -0.1967
     18  C18      -22.5620   29.7310    6.8260 C.2   223  OZS223      0.2684
     19  C19      -23.6450   28.8760    6.2250 C.ar  223  OZS223      0.0988
     20  C20      -23.6700   27.4750    6.4970 C.ar  223  OZS223      0.2387
     21  C21      -24.7550   26.7570    5.9300 C.ar  223  OZS223      0.2361
     22  C22      -25.7110   27.3220    5.1350 C.ar  223  OZS223      0.0694
     23  C23      -25.6610   28.7390    4.9450 C.ar  223  OZS223      0.1464
     24  C24      -24.6070   29.5200    5.4730 C.ar  223  OZS223      0.0321
     25  N25      -26.6670   29.3780    4.1410 N.pl3 223  OZS223      0.0578
     26  O26      -22.7190   26.8280    7.1590 O.3   223  OZS223     -0.2830
     27  O27      -24.8010   25.3950    6.1270 O.3   223  OZS223     -0.2831
     28  O28      -22.3960   30.9300    6.4020 O.2   223  OZS223     -0.2682
     29  F29      -12.0300   29.4730   12.3110 F     223  OZS223     -0.1647
     30  F30      -12.0910   30.1300   14.2860 F     223  OZS223     -0.1647
     31  F31      -12.7590   28.1620   13.5920 F     223  OZS223     -0.1647
     32  O32      -27.5020   28.7550    3.5290 O.2   223  OZS223     -0.1261
     33  O33      -26.6240   30.5930    4.0930 O.2   223  OZS223     -0.1261
@<TRIPOS>BOND
     1    32    25    2
     2    33    25    2
     3    25    23    1
     4    23    22   ar
     5    23    24   ar
     6    22    21   ar
     7    24    19   ar
     8    21    27    1
     9    21    20   ar
    10    19    20   ar
    11    19    18    1
    12    28    18    2
    13    20    26    1
    14    18    17   am
    15    17    16    1
    16    16    10    1
    17    10     6    2
    18     6     5    1
    19     5     4    1
    20     5     1    1
    21    14    11    1
    22    14    13    2
    23    29    15    1
    24    11     7    1
    25     4     3    1
    26    13    15    1
    27    13    12    1
    28     1     2    1
    29     1     8    1
    30     7     3    1
    31     7    12    1
    32    15    31    1
    33    15    30    1
    34     2     3    1
    35     2     9    1
