@<TRIPOS>MOLECULE
3ozt_OZZ_A_1.pdb
 31 33 0 0 0
SMALL
GASTEIGER

@<TRIPOS>ATOM
      1  C1        36.8190   -2.2420  -13.3020 C.3   223  OZZ223      0.2177
      2  C2        36.7250   -0.7310  -13.5000 C.3   223  OZZ223      0.2339
      3  C3        35.1870   -0.4930  -13.5340 C.3   223  OZZ223      0.2389
      4  O4        34.7770   -1.2840  -12.3810 O.3   223  OZZ223     -0.3288
      5  C5        35.6820   -2.3770  -12.1960 C.3   223  OZZ223      0.1720
      6  C6        36.3030   -2.3040  -10.8470 C.2   223  OZZ223      0.0028
      7  N7        34.6790    0.8250  -13.3680 N.ar  223  OZZ223     -0.3004
      8  O8        36.4140   -2.9260  -14.4950 O.3   223  OZZ223     -0.2172
      9  O9        37.3070   -0.1890  -14.7150 O.3   223  OZZ223     -0.2155
     10  C10       35.9550   -3.0940   -9.8530 C.2   223  OZZ223     -0.0049
     11  C11       36.5670   -3.0270   -8.4940 C.3   223  OZZ223      0.1413
     12  N12       36.3410   -4.2770   -7.8230 N.am  223  OZZ223     -0.1967
     13  C13       37.1230   -4.7350   -6.8520 C.2   223  OZZ223      0.2684
     14  C14       36.9050   -6.0700   -6.2720 C.ar  223  OZZ223      0.0988
     15  C15       35.7090   -6.8370   -6.5060 C.ar  223  OZZ223      0.2387
     16  C16       35.6640   -8.1190   -5.9170 C.ar  223  OZZ223      0.2361
     17  C17       36.6610   -8.7020   -5.1410 C.ar  223  OZZ223      0.0694
     18  C18       37.8530   -7.9000   -4.9910 C.ar  223  OZZ223      0.1464
     19  C19       37.9060   -6.6190   -5.5530 C.ar  223  OZZ223      0.0321
     20  N20       38.9150   -8.4600   -4.1780 N.pl3 223  OZZ223      0.0578
     21  O21       34.7110   -6.3380   -7.1770 O.3   223  OZZ223     -0.2830
     22  O22       34.4800   -8.8300   -6.1310 O.3   223  OZZ223     -0.2831
     23  O23       38.0800   -3.9910   -6.4330 O.2   223  OZZ223     -0.2682
     24  O24       38.7400   -9.4520   -3.5530 O.2   223  OZZ223     -0.1261
     25  O25       39.9890   -7.8820   -4.1620 O.2   223  OZZ223     -0.1261
     26  C26       35.2910    1.6810  -12.3950 C.ar  223  OZZ223      0.0810
     27  C27       34.8290    2.9540  -12.1770 C.ar  223  OZZ223      0.0608
     28  C28       33.7380    3.4990  -12.9630 C.ar  223  OZZ223      0.1987
     29  C29       33.5930    1.3290  -14.0550 C.ar  223  OZZ223      0.0810
     30  C30       33.1080    2.5660  -13.9250 C.ar  223  OZZ223      0.0608
     31  O31       33.4060    4.6720  -12.8580 O.2   223  OZZ223     -0.2865
@<TRIPOS>BOND
     1     9     2    1
     2     8     1    1
     3    29    30   ar
     4    29     7   ar
     5    30    28   ar
     6     3     2    1
     7     3     7    1
     8     3     4    1
     9     2     1    1
    10     7    26   ar
    11     1     5    1
    12    28    31    2
    13    28    27   ar
    14    26    27   ar
    15     4     5    1
    16     5     6    1
    17     6    10    2
    18    10    11    1
    19    11    12    1
    20    12    13   am
    21    21    15    1
    22    13    23    2
    23    13    14    1
    24    15    14   ar
    25    15    16   ar
    26    14    19   ar
    27    22    16    1
    28    16    17   ar
    29    19    18   ar
    30    17    18   ar
    31    18    20    1
    32    20    25    2
    33    20    24    2
