@<TRIPOS>MOLECULE
3ozu_X89_A_1.pdb
 25 27 0 0 0
SMALL
GASTEIGER

@<TRIPOS>ATOM
      1  O         10.1250   28.2070    7.2600 O.3   411  X89411     -0.3450
      2  C1        10.9040   26.2790    5.9990 C.3   411  X89411      0.1416
      3  N1        11.9220   26.8230    4.9880 N.ar  411  X89411     -0.3050
      4  C2        11.7000   27.8370    4.1250 C.ar  411  X89411      0.1787
      5  N3        12.8020   28.1050    3.3770 N.ar  411  X89411     -0.2223
      6  C4        13.7630   27.1800    3.8430 C.ar  411  X89411      0.1193
      7  C5        13.2350   26.4010    4.8180 C.ar  411  X89411      0.0981
      8 CL2A       12.5250   25.0120    8.7290 Cl    411  X89411     -0.0825
      9 CL2B        8.6250   29.3470   11.2050 Cl    411  X89411     -0.0825
     10 CL4A       16.5440   28.6420    8.8750 Cl    411  X89411     -0.0822
     11 CL4B        5.5190   32.8790    8.4370 Cl    411  X89411     -0.0822
     12  C1A       12.2920   27.4960    7.7190 C.ar  411  X89411      0.0171
     13  C1B        8.8220   29.7970    8.4670 C.ar  411  X89411      0.0179
     14  C2A       13.1270   26.6150    8.3690 C.ar  411  X89411      0.0568
     15  C2B        8.1900   30.1440    9.6360 C.ar  411  X89411      0.0569
     16  C3A       14.4200   26.9260    8.7470 C.ar  411  X89411      0.0225
     17  C3B        7.1740   31.0950    9.5860 C.ar  411  X89411      0.0225
     18  C4A       14.8560   28.2030    8.4330 C.ar  411  X89411      0.0585
     19  C4B        6.8190   31.6820    8.3720 C.ar  411  X89411      0.0585
     20  C5A       14.0200   29.1060    7.7660 C.ar  411  X89411      0.0112
     21  C5B        7.4350   31.3410    7.1980 C.ar  411  X89411      0.0112
     22  C6A       12.7320   28.7540    7.4110 C.ar  411  X89411     -0.0002
     23  C6B        8.4310   30.3670    7.2400 C.ar  411  X89411     -0.0001
     24  CBA       10.9050   27.0430    7.3440 C.3   411  X89411      0.1612
     25  CBB        9.8980   28.7430    8.5430 C.3   411  X89411      0.1698
@<TRIPOS>BOND
     1     5     6   ar
     2     5     4   ar
     3     6     7   ar
     4     4     3   ar
     5     7     3   ar
     6     3     2    1
     7     2    24    1
     8    21    23   ar
     9    21    19   ar
    10    23    13   ar
    11     1    24    1
    12     1    25    1
    13    24    12    1
    14    22    12   ar
    15    22    20   ar
    16    12    14   ar
    17    20    18   ar
    18    14     8    1
    19    14    16   ar
    20    19    11    1
    21    19    17   ar
    22    18    16   ar
    23    18    10    1
    24    13    25    1
    25    13    15   ar
    26    17    15   ar
    27    15     9    1
