@<TRIPOS>MOLECULE
3ozu_HEM_A_1.pdb
 43 50 0 0 0
SMALL
GASTEIGER

@<TRIPOS>ATOM
      1  CHA       16.4310   29.6570    2.7910 C.2   404  HEM404      0.0000
      2  CHB       12.5850   31.8680    4.6730 C.2   404  HEM404      0.0000
      3  CHC        9.8260   29.7280    1.3130 C.2   404  HEM404      0.0000
      4  CHD       13.5860   27.0590   -0.2080 C.2   404  HEM404      0.0000
      5  C1A       15.6680   30.4610    3.6280 C.2   404  HEM404      0.0000
      6  C2A       16.1070   31.2890    4.7070 C.2   404  HEM404      0.0000
      7  C3A       15.0360   31.8940    5.2490 C.2   404  HEM404      0.0000
      8  C4A       13.8770   31.4890    4.4800 C.2   404  HEM404      0.0000
      9  CMA       14.9790   32.8600    6.4320 C.3   404  HEM404      0.0000
     10  CAA       17.5400   31.3930    5.2010 C.3   404  HEM404      0.0000
     11  CBA       18.0790   32.4950    4.3560 C.3   404  HEM404      0.0000
     12  CGA       19.6040   32.6790    4.5600 C.2   404  HEM404      0.0000
     13  O1A       20.1240   33.7340    4.1760 O.co2 404  HEM404      0.0000
     14  O2A       20.3050   31.7630    5.0840 O.co2 404  HEM404      0.0000
     15  C1B       11.5050   31.4620    3.9470 C.ar  404  HEM404      0.0000
     16  C2B       10.1620   31.9400    4.1170 C.ar  404  HEM404      0.0000
     17  C3B        9.3420   31.3560    3.1960 C.ar  404  HEM404      0.0000
     18  C4B       10.1970   30.4700    2.4190 C.ar  404  HEM404      0.0000
     19  CMB        9.8840   32.9580    5.2390 C.3   404  HEM404      0.0000
     20  CAB        7.8040   31.5100    2.9700 C.2   404  HEM404      0.0000
     21  CBB        7.1340   32.6540    3.2610 C.2   404  HEM404      0.0000
     22  C1C       10.5610   28.8540    0.5540 C.2   404  HEM404      0.0000
     23  C2C       10.1170   28.0370   -0.5750 C.2   404  HEM404      0.0000
     24  C3C       11.1520   27.2830   -0.9800 C.2   404  HEM404      0.0000
     25  C4C       12.3030   27.5680   -0.1370 C.2   404  HEM404      0.0000
     26  CMC        8.6760   27.9710   -1.1620 C.3   404  HEM404      0.0000
     27  CAC       11.0470   26.2690   -2.1000 C.2   404  HEM404      0.0000
     28  CBC       11.7270   25.1270   -2.0900 C.2   404  HEM404      0.0000
     29  C1D       14.6850   27.4830    0.4780 C.ar  404  HEM404      0.0000
     30  C2D       15.9960   26.8600    0.4000 C.ar  404  HEM404      0.0000
     31  C3D       16.9020   27.6640    1.3170 C.ar  404  HEM404      0.0000
     32  C4D       16.0190   28.6870    1.8890 C.ar  404  HEM404      0.0000
     33  CMD       16.3790   25.6200   -0.5010 C.3   404  HEM404      0.0000
     34  CAD       18.4260   27.4350    1.6430 C.3   404  HEM404      0.0000
     35  CBD       18.6180   26.5110    2.8510 C.3   404  HEM404      0.0000
     36  CGD       18.7320   25.0120    2.5270 C.2   404  HEM404      0.0000
     37  O1D       19.0820   24.6390    1.3650 O.co2 404  HEM404      0.0000
     38  O2D       18.4800   24.1120    3.3870 O.co2 404  HEM404      0.0000
     39  NA        14.3470   30.6700    3.5170 N.2   404  HEM404      0.0000
     40  NB        11.4990   30.5970    2.9000 N.ar  404  HEM404      0.0000
     41  NC        11.8830   28.5450    0.7300 N.2   404  HEM404      0.0000
     42  ND        14.7410   28.5270    1.3610 N.ar  404  HEM404      0.0000
     43 FE         13.1300   29.6030    2.1360 Fe    404  HEM404      0.0000
@<TRIPOS>BOND
     1    27    28    2
     2    27    24    1
     3    26    23    1
     4    24    23    2
     5    24    25    1
     6    23    22    1
     7    33    30    1
     8     4    25    1
     9     4    29    2
    10    25    41    2
    11    30    29   ar
    12    30    31   ar
    13    29    42   ar
    14    22    41    1
    15    22     3    2
    16    41    43    1
    17     3    18    1
    18    31    34    1
    19    31    32   ar
    20    42    32   ar
    21    42    43    1
    22    37    36   ar
    23    34    35    1
    24    32     1    2
    25    43    40    1
    26    43    39    1
    27    18    40   ar
    28    18    17   ar
    29    36    35    1
    30    36    38   ar
    31     1     5    1
    32    40    15   ar
    33    20    17    1
    34    20    21    2
    35    17    16   ar
    36    39     5    2
    37    39     8    1
    38     5     6    1
    39    15    16   ar
    40    15     2    1
    41    16    19    1
    42    13    12   ar
    43    11    12    1
    44    11    10    1
    45     8     2    2
    46     8     7    1
    47    12    14   ar
    48     6    10    1
    49     6     7    2
    50     7     9    1
