@<TRIPOS>MOLECULE
3ozv_ECN_A_1.pdb
 24 26 0 0 0
SMALL
GASTEIGER

@<TRIPOS>ATOM
      1  C1       -25.7010   34.2360  -34.7710 C.ar  411  ECN411      0.0073
      2  C2       -26.8480   33.4510  -34.8530 C.ar  411  ECN411     -0.0010
      3 CL4       -21.6060   34.3910  -36.0840 Cl    411  ECN411     -0.0825
      4  C6       -20.3950   38.9690  -34.3190 C.ar  411  ECN411      0.1193
      5  C7       -20.9390   37.9790  -35.1070 C.ar  411  ECN411      0.0981
      6  C9       -24.6640   32.8580  -36.4690 C.ar  411  ECN411      0.0111
      7  C10      -24.6020   33.9340  -35.5850 C.ar  411  ECN411     -0.0010
      8  C11      -25.8310   32.0900  -36.5300 C.ar  411  ECN411      0.0577
      9 CL2       -25.9840   30.7030  -37.6350 Cl    411  ECN411     -0.0822
     10  C14      -21.3950   34.8340  -34.3270 C.ar  411  ECN411      0.0568
     11  C15      -20.2900   34.5100  -33.4900 C.ar  411  ECN411      0.0225
     12  C16      -20.2890   34.9090  -32.1250 C.ar  411  ECN411      0.0585
     13  C17      -21.3750   35.6230  -31.6290 C.ar  411  ECN411      0.0112
     14 CL8       -18.9590   34.5810  -30.9300 Cl    411  ECN411     -0.0822
     15  N19      -21.4200   39.5960  -33.7150 N.ar  411  ECN411     -0.2223
     16  C19      -23.2730   37.1210  -35.5630 C.3   411  ECN411      0.1416
     17  C20      -23.5860   35.9070  -34.6390 C.3   411  ECN411      0.1612
     18  O20      -24.5900   36.1710  -33.6740 O.3   411  ECN411     -0.3451
     19  C5       -22.4460   35.5530  -33.7810 C.ar  411  ECN411      0.0171
     20  N1       -22.2780   38.0260  -34.9590 N.ar  411  ECN411     -0.3050
     21  C3       -22.5670   39.0200  -34.1060 C.ar  411  ECN411      0.1787
     22  C8       -25.7470   35.3690  -33.7660 C.3   411  ECN411      0.1690
     23  C13      -26.9220   32.3770  -35.7300 C.ar  411  ECN411      0.0111
     24  C21      -22.4560   35.9450  -32.4430 C.ar  411  ECN411     -0.0002
@<TRIPOS>BOND
     1     9     8    1
     2     8     6   ar
     3     8    23   ar
     4     6     7   ar
     5     3    10    1
     6    23     2   ar
     7     7     1   ar
     8    16    20    1
     9    16    17    1
    10     5    20   ar
    11     5     4   ar
    12    20    21   ar
    13     2     1   ar
    14     1    22    1
    15    17    19    1
    16    17    18    1
    17    10    19   ar
    18    10    11   ar
    19     4    15   ar
    20    21    15   ar
    21    19    24   ar
    22    22    18    1
    23    11    12   ar
    24    24    13   ar
    25    12    13   ar
    26    12    14    1
