@<TRIPOS>MOLECULE
3ozv_HEM_A_1.pdb
 43 50 0 0 0
SMALL
GASTEIGER

@<TRIPOS>ATOM
      1  CHA      -19.2950   39.7970  -30.3580 C.2   404  HEM404      0.0000
      2  CHB      -24.0170   39.1360  -30.4770 C.2   404  HEM404      0.0000
      3  CHC      -24.0860   42.3920  -34.0220 C.2   404  HEM404      0.0000
      4  CHD      -19.3680   42.8320  -34.1480 C.2   404  HEM404      0.0000
      5  C1A      -20.5440   39.3410  -30.0930 C.2   404  HEM404      0.0000
      6  C2A      -20.8300   38.2980  -29.1340 C.2   404  HEM404      0.0000
      7  C3A      -22.1510   38.1070  -29.1550 C.2   404  HEM404      0.0000
      8  C4A      -22.7090   39.0080  -30.1390 C.2   404  HEM404      0.0000
      9  CMA      -22.9810   37.1250  -28.3320 C.3   404  HEM404      0.0000
     10  CAA      -19.7550   37.6130  -28.2680 C.3   404  HEM404      0.0000
     11  CBA      -19.6510   38.5390  -27.0530 C.3   404  HEM404      0.0000
     12  CGA      -18.3590   38.4290  -26.2700 C.2   404  HEM404      0.0000
     13  O1A      -17.2970   38.0300  -26.8460 O.co2 404  HEM404      0.0000
     14  O2A      -18.4200   38.7780  -25.0540 O.co2 404  HEM404      0.0000
     15  C1B      -24.4130   39.9720  -31.4890 C.ar  404  HEM404      0.0000
     16  C2B      -25.7800   40.1450  -31.8840 C.ar  404  HEM404      0.0000
     17  C3B      -25.7980   41.0720  -32.8520 C.ar  404  HEM404      0.0000
     18  C4B      -24.4390   41.4570  -33.0970 C.ar  404  HEM404      0.0000
     19  CMB      -26.9210   39.3700  -31.2180 C.3   404  HEM404      0.0000
     20  CAB      -27.0120   41.6180  -33.6610 C.2   404  HEM404      0.0000
     21  CBB      -28.2610   41.3440  -33.2620 C.2   404  HEM404      0.0000
     22  C1C      -22.8420   42.8370  -34.3290 C.2   404  HEM404      0.0000
     23  C2C      -22.5730   43.8930  -35.2780 C.2   404  HEM404      0.0000
     24  C3C      -21.2510   44.0510  -35.3450 C.2   404  HEM404      0.0000
     25  C4C      -20.6780   43.0660  -34.4310 C.2   404  HEM404      0.0000
     26  CMC      -23.6820   44.6350  -36.0220 C.3   404  HEM404      0.0000
     27  CAC      -20.4930   45.0570  -36.2310 C.2   404  HEM404      0.0000
     28  CBC      -19.2790   44.8330  -36.7520 C.2   404  HEM404      0.0000
     29  C1D      -18.9220   42.0000  -33.1510 C.ar  404  HEM404      0.0000
     30  C2D      -17.5240   41.7470  -32.8710 C.ar  404  HEM404      0.0000
     31  C3D      -17.5120   40.7660  -31.7140 C.ar  404  HEM404      0.0000
     32  C4D      -18.9100   40.5860  -31.4030 C.ar  404  HEM404      0.0000
     33  CMD      -16.2940   42.2630  -33.6130 C.3   404  HEM404      0.0000
     34  CAD      -16.2860   40.1560  -31.0030 C.3   404  HEM404      0.0000
     35  CBD      -16.0530   38.7600  -31.5730 C.3   404  HEM404      0.0000
     36  CGD      -14.6120   38.6780  -32.0000 C.2   404  HEM404      0.0000
     37  O1D      -13.7590   38.4600  -31.0980 O.co2 404  HEM404      0.0000
     38  O2D      -14.3210   38.8360  -33.2220 O.co2 404  HEM404      0.0000
     39  NA       -21.7160   39.7420  -30.6950 N.2   404  HEM404      0.0000
     40  NB       -23.6090   40.8050  -32.2310 N.ar  404  HEM404      0.0000
     41  NC       -21.6550   42.3610  -33.8350 N.2   404  HEM404      0.0000
     42  ND       -19.7240   41.3230  -32.2840 N.ar  404  HEM404      0.0000
     43 FE        -21.6920   41.0900  -32.2210 Fe    404  HEM404      0.0000
@<TRIPOS>BOND
     1    28    27    2
     2    27    24    1
     3    26    23    1
     4    24    23    2
     5    24    25    1
     6    23    22    1
     7    25     4    1
     8    25    41    2
     9    22     3    2
    10    22    41    1
    11     4    29    2
    12     3    18    1
    13    41    43    1
    14    20    21    2
    15    20    17    1
    16    33    30    1
    17    38    36   ar
    18    29    30   ar
    19    29    42   ar
    20    18    17   ar
    21    18    40   ar
    22    30    31   ar
    23    17    16   ar
    24    42    43    1
    25    42    32   ar
    26    40    43    1
    27    40    15   ar
    28    43    39    1
    29    36    35    1
    30    36    37   ar
    31    16    15   ar
    32    16    19    1
    33    31    32   ar
    34    31    34    1
    35    35    34    1
    36    15     2    1
    37    32     1    2
    38    39     8    1
    39    39     5    2
    40     2     8    2
    41     1     5    1
    42     8     7    1
    43     5     6    1
    44     7     6    2
    45     7     9    1
    46     6    10    1
    47    10    11    1
    48    11    12    1
    49    13    12   ar
    50    12    14   ar
