@<TRIPOS>MOLECULE
3ozw_HEM_A_1.pdb
 43 50 0 0 0
SMALL
GASTEIGER

@<TRIPOS>ATOM
      1  CHA      -19.2200   39.8220  -30.3980 C.2   404  HEM404      0.0000
      2  CHB      -23.9830   39.1290  -30.5360 C.2   404  HEM404      0.0000
      3  CHC      -24.0780   42.4270  -34.0310 C.2   404  HEM404      0.0000
      4  CHD      -19.3720   42.9650  -34.1290 C.2   404  HEM404      0.0000
      5  C1A      -20.4640   39.3430  -30.1150 C.2   404  HEM404      0.0000
      6  C2A      -20.7900   38.3310  -29.1450 C.2   404  HEM404      0.0000
      7  C3A      -22.0860   38.1380  -29.1880 C.2   404  HEM404      0.0000
      8  C4A      -22.6450   39.0220  -30.1910 C.2   404  HEM404      0.0000
      9  CMA      -22.9030   37.1290  -28.3780 C.3   404  HEM404      0.0000
     10  CAA      -19.7780   37.6300  -28.2530 C.3   404  HEM404      0.0000
     11  CBA      -19.2870   38.7290  -27.3120 C.3   404  HEM404      0.0000
     12  CGA      -17.8970   38.3870  -26.7830 C.2   404  HEM404      0.0000
     13  O1A      -16.8460   38.6990  -27.4390 O.co2 404  HEM404      0.0000
     14  O2A      -17.8550   37.7800  -25.6780 O.co2 404  HEM404      0.0000
     15  C1B      -24.4010   39.9400  -31.5250 C.ar  404  HEM404      0.0000
     16  C2B      -25.7900   40.0520  -31.9200 C.ar  404  HEM404      0.0000
     17  C3B      -25.7960   41.0110  -32.8450 C.ar  404  HEM404      0.0000
     18  C4B      -24.4260   41.4560  -33.1110 C.ar  404  HEM404      0.0000
     19  CMB      -26.9630   39.2290  -31.2700 C.3   404  HEM404      0.0000
     20  CAB      -26.9980   41.4960  -33.6690 C.2   404  HEM404      0.0000
     21  CBB      -28.2620   41.2800  -33.2670 C.2   404  HEM404      0.0000
     22  C1C      -22.8610   42.9330  -34.3430 C.2   404  HEM404      0.0000
     23  C2C      -22.5870   43.9830  -35.3110 C.2   404  HEM404      0.0000
     24  C3C      -21.2540   44.1180  -35.3460 C.2   404  HEM404      0.0000
     25  C4C      -20.6850   43.1780  -34.4080 C.2   404  HEM404      0.0000
     26  CMC      -23.6910   44.7260  -36.1020 C.3   404  HEM404      0.0000
     27  CAC      -20.3700   45.0840  -36.1380 C.2   404  HEM404      0.0000
     28  CBC      -19.2020   44.7230  -36.6710 C.2   404  HEM404      0.0000
     29  C1D      -18.9060   42.1360  -33.1410 C.ar  404  HEM404      0.0000
     30  C2D      -17.4960   41.9280  -32.8660 C.ar  404  HEM404      0.0000
     31  C3D      -17.4730   40.9340  -31.7140 C.ar  404  HEM404      0.0000
     32  C4D      -18.8610   40.6620  -31.4370 C.ar  404  HEM404      0.0000
     33  CMD      -16.2870   42.5480  -33.5850 C.3   404  HEM404      0.0000
     34  CAD      -16.2390   40.3620  -30.9850 C.3   404  HEM404      0.0000
     35  CBD      -15.9460   39.0100  -31.6430 C.3   404  HEM404      0.0000
     36  CGD      -14.5340   39.0050  -32.1500 C.2   404  HEM404      0.0000
     37  O1D      -13.6240   39.2050  -31.2930 O.co2 404  HEM404      0.0000
     38  O2D      -14.3300   38.7660  -33.3820 O.co2 404  HEM404      0.0000
     39  NA       -21.6170   39.7380  -30.7100 N.2   404  HEM404      0.0000
     40  NB       -23.5720   40.8230  -32.2410 N.ar  404  HEM404      0.0000
     41  NC       -21.6720   42.4870  -33.8380 N.2   404  HEM404      0.0000
     42  ND       -19.7030   41.3760  -32.3200 N.ar  404  HEM404      0.0000
     43 FE        -21.6050   41.1370  -32.2610 Fe    404  HEM404      0.0000
@<TRIPOS>BOND
     1    28    27    2
     2    27    24    1
     3    26    23    1
     4    24    23    2
     5    24    25    1
     6    23    22    1
     7    25     4    1
     8    25    41    2
     9    22     3    2
    10    22    41    1
    11     4    29    2
    12     3    18    1
    13    41    43    1
    14    20    21    2
    15    20    17    1
    16    33    30    1
    17    38    36   ar
    18    29    30   ar
    19    29    42   ar
    20    18    17   ar
    21    18    40   ar
    22    30    31   ar
    23    17    16   ar
    24    42    43    1
    25    42    32   ar
    26    43    40    1
    27    43    39    1
    28    40    15   ar
    29    36    35    1
    30    36    37   ar
    31    16    15   ar
    32    16    19    1
    33    31    32   ar
    34    31    34    1
    35    35    34    1
    36    15     2    1
    37    32     1    2
    38    39     8    1
    39    39     5    2
    40     2     8    2
    41     1     5    1
    42     8     7    1
    43     5     6    1
    44     7     6    2
    45     7     9    1
    46     6    10    1
    47    10    11    1
    48    13    12   ar
    49    11    12    1
    50    12    14   ar
