@<TRIPOS>MOLECULE
3ozw_KKK_A_1.pdb
 36 40 0 0 0
SMALL
GASTEIGER

@<TRIPOS>ATOM
      1  C1       -20.1940   38.6430  -33.7350 C.ar  413  KKK413      0.1788
      2  N1       -20.6990   37.7430  -34.5870 N.ar  413  KKK413     -0.3025
      3  O1       -20.4840   35.8460  -32.4840 O.3   413  KKK413     -0.3255
      4 CL1       -26.7160   36.4160  -34.1350 Cl    413  KKK413     -0.0822
      5  C2       -22.0470   39.4420  -34.4710 C.ar  413  KKK413      0.1193
      6  N2       -21.0060   39.7020  -33.6690 N.ar  413  KKK413     -0.2223
      7  O2       -20.2820   34.0960  -33.8500 O.3   413  KKK413     -0.3267
      8 CL2       -22.3060   34.3680  -36.4550 Cl    413  KKK413     -0.0824
      9  C3       -21.8530   38.2230  -35.0370 C.ar  413  KKK413      0.0982
     10  N3       -13.0910   34.9270  -30.1080 N.pl3 413  KKK413     -0.3041
     11  O3       -18.4520   34.8870  -31.4510 O.3   413  KKK413     -0.4727
     12  C4       -20.1490   36.3760  -34.8410 C.3   413  KKK413      0.1682
     13  N4       -10.6790   33.4750  -29.9560 N.am  413  KKK413     -0.2760
     14  O4        -8.6710   32.9420  -30.8460 O.2   413  KKK413     -0.2749
     15  C5       -20.7960   35.4020  -33.8080 C.3   413  KKK413      0.2296
     16  C6       -20.6930   34.7600  -31.6160 C.3   413  KKK413      0.1909
     17  C7       -20.5410   33.5610  -32.5480 C.3   413  KKK413      0.1783
     18  C8       -22.2840   35.5470  -33.9270 C.ar  413  KKK413      0.0409
     19  C9       -23.0130   35.2010  -35.0540 C.ar  413  KKK413      0.0591
     20  C10      -24.3690   35.4050  -35.1060 C.ar  413  KKK413      0.0226
     21  C11      -24.9790   36.0330  -34.0480 C.ar  413  KKK413      0.0585
     22  C12      -24.2660   36.4160  -32.9160 C.ar  413  KKK413      0.0113
     23  C13      -22.9230   36.1710  -32.8530 C.ar  413  KKK413      0.0022
     24  C14      -19.5720   34.8270  -30.6090 C.3   413  KKK413      0.2374
     25  C15      -17.1600   34.8590  -31.0190 C.ar  413  KKK413      0.1388
     26  C16      -16.7570   34.1970  -29.8710 C.ar  413  KKK413      0.0382
     27  C17      -15.3940   34.2110  -29.5390 C.ar  413  KKK413      0.0176
     28  C18      -14.4690   34.8750  -30.3610 C.ar  413  KKK413      0.0481
     29  C19      -14.8890   35.5170  -31.5170 C.ar  413  KKK413      0.0176
     30  C20      -16.2350   35.5060  -31.8330 C.ar  413  KKK413      0.0382
     31  C21      -12.7420   34.2190  -28.8570 C.3   413  KKK413      0.1123
     32  C22      -11.2240   34.1240  -28.7390 C.3   413  KKK413      0.1148
     33  C23      -10.9310   34.2820  -31.1620 C.3   413  KKK413      0.1148
     34  C24      -12.4370   34.3720  -31.3220 C.3   413  KKK413      0.1123
     35  C25       -9.2860   33.2540  -29.8290 C.2   413  KKK413      0.2262
     36  C26       -8.6440   33.4040  -28.4680 C.3   413  KKK413      0.0948
@<TRIPOS>BOND
     1     8    19    1
     2    20    19   ar
     3    20    21   ar
     4    19    18   ar
     5     9     2   ar
     6     9     5   ar
     7    12     2    1
     8    12    15    1
     9     2     1   ar
    10     5     6   ar
    11     4    21    1
    12    21    22   ar
    13    18    15    1
    14    18    23   ar
    15     7    15    1
    16     7    17    1
    17    15     3    1
    18     1     6   ar
    19    22    23   ar
    20    17    16    1
    21     3    16    1
    22    30    29   ar
    23    30    25   ar
    24    16    24    1
    25    29    28   ar
    26    11    25    1
    27    11    24    1
    28    34    33    1
    29    34    10    1
    30    33    13    1
    31    25    26   ar
    32    14    35    2
    33    28    10    1
    34    28    27   ar
    35    10    31    1
    36    13    35   am
    37    13    32    1
    38    26    27   ar
    39    35    36    1
    40    31    32    1
