@<TRIPOS>MOLECULE
3ozx_ADP_A_1.pdb
 27 29 0 0 0
SMALL
GASTEIGER

@<TRIPOS>ATOM
      1  PB        13.0130   35.5900   31.8050 P.3   615  ADP615      0.5373
      2  O1B       12.3370   36.7580   31.0490 O.2   615  ADP615     -0.2221
      3  O2B       14.4560   35.8000   31.9080 O.3   615  ADP615     -0.1143
      4  O3B       12.5960   34.2440   31.3740 O.3   615  ADP615     -0.1143
      5  PA        11.3660   36.3660   34.1460 P.3   615  ADP615      0.2231
      6  O1A       11.7070   37.7270   34.6500 O.3   615  ADP615     -0.4370
      7  O2A       10.0230   35.9120   33.5220 O.2   615  ADP615     -0.5169
      8  O3A       12.5690   35.5710   33.3560 O.3   615  ADP615     -0.2261
      9  O5'       11.3290   35.3920   35.3640 O.3   615  ADP615     -0.3111
     10  C5'       12.2370   35.4240   36.4580 C.3   615  ADP615      0.1813
     11  C4'       11.8230   34.3550   37.4820 C.3   615  ADP615      0.1821
     12  O4'       10.8280   34.9370   38.3510 O.3   615  ADP615     -0.3135
     13  C3'       11.1780   33.1270   36.8630 C.3   615  ADP615      0.2184
     14  O3'       11.6030   31.9480   37.5960 O.3   615  ADP615     -0.2174
     15  C2'        9.6830   33.3190   37.1130 C.3   615  ADP615      0.2570
     16  O2'        9.0010   32.0850   37.3420 O.3   615  ADP615     -0.2130
     17  C1'        9.6220   34.1510   38.3830 C.3   615  ADP615      0.3186
     18  N9         8.5110   35.1300   38.3600 N.pl3 615  ADP615     -0.1439
     19  C8         8.1640   35.9910   37.3590 C.3   615  ADP615      0.3377
     20  N7         7.1160   36.7440   37.7550 N.2   615  ADP615     -0.2095
     21  C5         6.8520   36.3710   39.0350 C.2   615  ADP615      0.2526
     22  C6         5.9110   36.7710   39.9870 C.2   615  ADP615      0.4393
     23  N6         4.9980   37.7240   39.7190 N.pl3 615  ADP615      0.2180
     24  N1         5.8820   36.1470   41.1790 N.2   615  ADP615      0.0021
     25  C2         6.7780   35.1940   41.5120 C.3   615  ADP615      0.5254
     26  N3         7.7150   34.7820   40.6240 N.2   615  ADP615     -0.0055
     27  C4         7.7410   35.3560   39.3990 C.2   615  ADP615      0.3518
@<TRIPOS>BOND
     1     2     1    2
     2     4     1    1
     3     1     3    1
     4     1     8    1
     5     8     5    1
     6     7     5    2
     7     5     6    1
     8     5     9    1
     9     9    10    1
    10    10    11    1
    11    13    15    1
    12    13    11    1
    13    13    14    1
    14    15    16    1
    15    15    17    1
    16    19    20    1
    17    19    18    1
    18    11    12    1
    19    20    21    2
    20    12    17    1
    21    18    17    1
    22    18    27    1
    23    21    27    1
    24    21    22    1
    25    27    26    2
    26    23    22    1
    27    22    24    2
    28    26    25    1
    29    24    25    1
