@<TRIPOS>MOLECULE
3ozy_DXL_B_1.pdb
 12 11 0 0 0
SMALL
GASTEIGER

@<TRIPOS>ATOM
      1  OAA       21.4610  -25.9690   -5.3170 O.co2 392  DXL392     -0.2427
      2  OAB       22.0480  -26.2480   -2.6750 O.3   392  DXL392     -0.2080
      3  OAC       18.5550  -23.6870   -2.8840 O.3   392  DXL392     -0.2080
      4  OAD       17.1370  -26.9800   -3.5570 O.co2 392  DXL392     -0.2427
      5  OAE       21.0770  -23.8190   -4.9020 O.co2 392  DXL392     -0.2427
      6  CAF       21.2140  -25.0130   -4.5640 C.2   392  DXL392      0.3973
      7  CAG       21.0250  -25.3270   -3.0850 C.3   392  DXL392      0.2870
      8  CAH       19.6320  -25.9490   -2.8660 C.3   392  DXL392      0.2346
      9  CAI       18.5230  -25.0290   -3.4370 C.3   392  DXL392      0.2870
     10  CAJ       17.1370  -25.7360   -3.4420 C.2   392  DXL392      0.3973
     11  OAK       16.0970  -25.0580   -3.3500 O.co2 392  DXL392     -0.2427
     12  OAL       19.4830  -26.2780   -1.4720 O.3   392  DXL392     -0.2164
@<TRIPOS>BOND
     1     1     6   ar
     2     5     6   ar
     3     6     7    1
     4     4    10   ar
     5    10     9    1
     6    10    11   ar
     7     9     3    1
     8     9     8    1
     9     7     8    1
    10     7     2    1
    11     8    12    1
