@<TRIPOS>MOLECULE
3ozz_HEM_B_1.pdb
 43 50 0 0 0
SMALL
GASTEIGER

@<TRIPOS>ATOM
      1  CHA        5.3260   -9.0600    1.7310 C.2   201  HEM201      0.0000
      2  CHB        8.5030   -6.9070   -1.2430 C.2   201  HEM201      0.0000
      3  CHC       10.6030   -4.6820    2.4760 C.2   201  HEM201      0.0000
      4  CHD        7.3680   -6.6730    5.4610 C.2   201  HEM201      0.0000
      5  C1A        6.0460   -8.7080    0.5880 C.ar  201  HEM201      0.0000
      6  C2A        5.8460   -9.2670   -0.6880 C.ar  201  HEM201      0.0000
      7  C3A        6.7240   -8.6440   -1.5510 C.ar  201  HEM201      0.0000
      8  C4A        7.4830   -7.7120   -0.7710 C.ar  201  HEM201      0.0000
      9  CMA        6.8560   -8.8790   -2.9280 C.3   201  HEM201      0.0000
     10  CAA        4.8360  -10.3810   -1.0430 C.3   201  HEM201      0.0000
     11  CBA        5.2670  -11.7840   -0.5370 C.3   201  HEM201      0.0000
     12  CGA        6.6310  -12.2270   -1.0380 C.2   201  HEM201      0.0000
     13  O1A        6.8460  -12.3050   -2.2740 O.co2 201  HEM201      0.0000
     14  O2A        7.4790  -12.5140   -0.1920 O.co2 201  HEM201      0.0000
     15  C1B        9.2950   -6.1160   -0.4680 C.2   201  HEM201      0.0000
     16  C2B       10.3580   -5.3040   -1.0000 C.2   201  HEM201      0.0000
     17  C3B       10.9880   -4.6650   -0.0050 C.2   201  HEM201      0.0000
     18  C4B       10.2680   -5.0860    1.2050 C.2   201  HEM201      0.0000
     19  CMB       10.6970   -5.2210   -2.4790 C.3   201  HEM201      0.0000
     20  CAB       12.1540   -3.7690   -0.1780 C.3   201  HEM201      0.0000
     21  CBB       11.9380   -2.3700    0.2860 C.3   201  HEM201      0.0000
     22  C1C        9.9450   -5.0730    3.5800 C.ar  201  HEM201      0.0000
     23  C2C       10.2840   -4.6180    4.8990 C.ar  201  HEM201      0.0000
     24  C3C        9.3970   -5.1440    5.7660 C.ar  201  HEM201      0.0000
     25  C4C        8.4660   -5.9430    4.9640 C.ar  201  HEM201      0.0000
     26  CMC       11.4510   -3.7060    5.2650 C.3   201  HEM201      0.0000
     27  CAC        9.3830   -4.9510    7.2680 C.2   201  HEM201      0.0000
     28  CBC        9.2210   -3.7930    7.8990 C.2   201  HEM201      0.0000
     29  C1D        6.5270   -7.4740    4.6970 C.2   201  HEM201      0.0000
     30  C2D        5.3950   -8.2240    5.2380 C.2   201  HEM201      0.0000
     31  C3D        4.8030   -8.8990    4.1780 C.2   201  HEM201      0.0000
     32  C4D        5.5920   -8.5590    2.9940 C.2   201  HEM201      0.0000
     33  CMD        4.9220   -8.2540    6.6960 C.3   201  HEM201      0.0000
     34  CAD        3.5740   -9.7960    4.1960 C.3   201  HEM201      0.0000
     35  CBD        3.7190  -11.0400    5.0490 C.3   201  HEM201      0.0000
     36  CGD        4.3250  -12.2220    4.3650 C.2   201  HEM201      0.0000
     37  O1D        4.9200  -12.9890    5.1410 O.co2 201  HEM201      0.0000
     38  O2D        3.7960  -12.6030    3.2440 O.co2 201  HEM201      0.0000
     39  NA         7.0880   -7.7780    0.5600 N.ar  201  HEM201      0.0000
     40  NB         9.2080   -5.9830    0.9000 N.2   201  HEM201      0.0000
     41  NC         8.8260   -5.9070    3.5930 N.ar  201  HEM201      0.0000
     42  ND         6.6440   -7.6550    3.2980 N.2   201  HEM201      0.0000
     43 FE          7.9320   -6.8480    2.0700 Fe    201  HEM201      0.0000
@<TRIPOS>BOND
     1     9     7    1
     2    19    16    1
     3    13    12   ar
     4     7     8   ar
     5     7     6   ar
     6     2     8    2
     7     2    15    1
     8    10     6    1
     9    10    11    1
    10    12    11    1
    11    12    14   ar
    12    16    15    1
    13    16    17    2
    14     8    39   ar
    15     6     5   ar
    16    15    40    2
    17    20    17    1
    18    20    21    1
    19    17    18    1
    20    39     5   ar
    21    39    43    1
    22     5     1    2
    23    40    18    1
    24    40    43    1
    25    18     3    2
    26     1    32    1
    27    43    42    1
    28    43    41    1
    29     3    22    1
    30    32    42    2
    31    32    31    1
    32    38    36   ar
    33    42    29    1
    34    22    41   ar
    35    22    23   ar
    36    41    25   ar
    37    31    34    1
    38    31    30    2
    39    34    35    1
    40    36    35    1
    41    36    37   ar
    42    29    30    1
    43    29     4    2
    44    23    26    1
    45    23    24   ar
    46    25     4    1
    47    25    24   ar
    48    30    33    1
    49    24    27    1
    50    27    28    2
