@<TRIPOS>MOLECULE
3p0e_BAU_A_1.pdb
 20 21 0 0 0
SMALL
GASTEIGER

@<TRIPOS>ATOM
      1  OAC       80.0030   -7.0300   60.2370 O.3   400  BAU400     -0.2176
      2  CAJ       79.9400   -7.5550   58.8800 C.3   400  BAU400      0.2141
      3  CAK       80.7800   -8.8600   58.7630 C.3   400  BAU400      0.1797
      4  OAO       81.9990   -8.3720   59.2240 O.3   400  BAU400     -0.3308
      5  CAM       82.8580   -9.3990   59.7150 C.3   400  BAU400      0.2555
      6  NAT       82.4580  -10.0820   60.8450 N.am  400  BAU400     -0.1756
      7  CAS       81.9430  -11.3590   60.6740 C.1   400  BAU400      0.2845
      8  OAB       81.8520  -11.8340   59.5480 O.2   400  BAU400     -0.1918
      9  NAN       81.5240  -12.0870   61.7870 N.2   400  BAU400     -0.2455
     10  CAR       81.6430  -11.5390   63.0650 C.1   400  BAU400      0.2137
     11  OAA       81.2940  -12.2370   64.0160 O.2   400  BAU400     -0.2088
     12  CAI       82.5560   -9.5150   62.1310 C.2   400  BAU400      0.0882
     13  CAQ       82.1720  -10.2600   63.2500 C.2   400  BAU400      0.0931
     14  CAL       82.3020   -9.5660   64.5970 C.3   400  BAU400      0.0669
     15  CG        80.8880   -9.0820   64.9620 C.ar  400  BAU400     -0.0170
     16  CD2       80.4100   -7.8760   64.4480 C.ar  400  BAU400     -0.0039
     17  CE2       79.1210   -7.4640   64.7880 C.ar  400  BAU400     -0.0003
     18  CZ        78.3210   -8.2330   65.6260 C.ar  400  BAU400     -0.0000
     19  CE1       78.7880   -9.4420   66.1360 C.ar  400  BAU400     -0.0003
     20  CD1       80.0700   -9.8690   65.7990 C.ar  400  BAU400     -0.0039
@<TRIPOS>BOND
     1     3     2    1
     2     3     4    1
     3     2     1    1
     4     4     5    1
     5     8     7    2
     6     5     6    1
     7     7     6   am
     8     7     9    2
     9     6    12    1
    10     9    10    2
    11    12    13    2
    12    10    13    1
    13    10    11    2
    14    13    14    1
    15    16    17   ar
    16    16    15   ar
    17    14    15    1
    18    17    18   ar
    19    15    20   ar
    20    18    19   ar
    21    20    19   ar
