@<TRIPOS>MOLECULE
3p0f_BAU_A_1.pdb
 20 21 0 0 0
SMALL
GASTEIGER

@<TRIPOS>ATOM
      1  OAC       10.8370   -1.8810   55.8140 O.3   400  BAU400     -0.2176
      2  CAJ       11.2030   -2.9360   54.8650 C.3   400  BAU400      0.2141
      3  CAK       12.7280   -3.1990   54.7600 C.3   400  BAU400      0.1797
      4  OAO       13.2600   -1.9830   54.4850 O.3   400  BAU400     -0.3308
      5  CAM       14.7170   -1.9160   54.5700 C.3   400  BAU400      0.2555
      6  NAT       15.1990   -2.1360   55.9060 N.am  400  BAU400     -0.1756
      7  CAS       15.8030   -3.3580   56.2290 C.1   400  BAU400      0.2845
      8  OAB       15.9560   -4.2320   55.3920 O.2   400  BAU400     -0.1918
      9  NAN       16.2290   -3.5900   57.5330 N.2   400  BAU400     -0.2455
     10  CAR       16.0240   -2.6690   58.5520 C.1   400  BAU400      0.2137
     11  OAA       16.4480   -2.9140   59.6950 O.2   400  BAU400     -0.2088
     12  CAI       14.9800   -1.2030   56.9200 C.2   400  BAU400      0.0882
     13  CAQ       15.4070   -1.4480   58.2370 C.2   400  BAU400      0.0931
     14  CAL       15.1350   -0.3770   59.3040 C.3   400  BAU400      0.0669
     15  CG        13.8400   -0.7600   60.0770 C.ar  400  BAU400     -0.0170
     16  CD2       12.6030   -0.6520   59.4140 C.ar  400  BAU400     -0.0039
     17  CE2       11.4110   -0.9770   60.0820 C.ar  400  BAU400     -0.0003
     18  CZ        11.4600   -1.4160   61.3990 C.ar  400  BAU400     -0.0000
     19  CE1       12.6730   -1.5200   62.0740 C.ar  400  BAU400     -0.0003
     20  CD1       13.8770   -1.1920   61.4010 C.ar  400  BAU400     -0.0039
@<TRIPOS>BOND
     1     4     5    1
     2     4     3    1
     3     5     6    1
     4     3     2    1
     5     2     1    1
     6     8     7    2
     7     6     7   am
     8     6    12    1
     9     7     9    2
    10    12    13    2
    11     9    10    2
    12    13    10    1
    13    13    14    1
    14    10    11    2
    15    14    15    1
    16    16    15   ar
    17    16    17   ar
    18    15    20   ar
    19    17    18   ar
    20    18    19   ar
    21    20    19   ar
