@<TRIPOS>MOLECULE
3p0g_P0G_A_1.pdb
 27 29 0 0 0
SMALL
GASTEIGER

@<TRIPOS>ATOM
      1  CAA       68.5800   13.3090   13.1130 C.3   366  P0G366      0.0307
      2  CAB       65.7800   15.2150   11.6920 C.3   366  P0G366      0.0178
      3  CAC       65.5580   16.3910   13.8960 C.3   366  P0G366      0.0178
      4  OAD       64.6780   22.5890   10.6300 O.2   366  P0G366     -0.2103
      5  OAE       60.6980   20.8760    8.3790 O.2   366  P0G366     -0.2840
      6  OAF       60.9380   15.9480   12.3620 O.3   366  P0G366     -0.2170
      7  CAG       68.6650   14.1260   16.8250 C.ar  366  P0G366     -0.0003
      8  CAH       67.3130   14.3750   17.0890 C.ar  366  P0G366     -0.0003
      9  CAI       69.0380   13.7860   15.5280 C.ar  366  P0G366     -0.0046
     10  CAJ       66.3430   14.2740   16.0840 C.ar  366  P0G366     -0.0045
     11  CAK       60.1820   18.8670    9.5560 C.2   366  P0G366      0.0232
     12  CAL       60.5050   17.9100   10.5090 C.3   366  P0G366      0.0571
     13  CAM       64.0910   20.7810   11.9370 C.3   366  P0G366      0.3391
     14  CAN       63.2650   16.2380   11.9470 C.3   366  P0G366      0.1257
     15  CAO       65.5390   13.8230   13.7580 C.3   366  P0G366      0.0421
     16  NAP       63.6610   15.2020   12.9280 N.3   366  P0G366     -0.2174
     17  NAQ       62.9230   21.2980    9.9190 N.2   366  P0G366     -0.3271
     18  OAR       63.5640   19.4090   11.9340 O.2   366  P0G366     -0.4554
     19  CAS       63.9400   21.6170   10.8220 C.1   366  P0G366      0.2263
     20  CAT       68.0710   13.6780   14.5140 C.ar  366  P0G366     -0.0258
     21  CAU       60.9950   19.9760    9.3530 C.2   366  P0G366      0.2250
     22  CAV       66.7010   13.9250   14.7770 C.ar  366  P0G366     -0.0248
     23  CAW       61.6370   18.0610   11.3050 C.2   366  P0G366      0.0281
     24  CAX       62.1130   20.1650   10.1520 C.2   366  P0G366      0.2156
     25  CAY       62.4430   19.2160   11.1440 C.2   366  P0G366      0.1684
     26  CAZ       61.9630   16.9460   12.3430 C.3   366  P0G366      0.1909
     27  CBA       65.1330   15.1550   13.0800 C.3   366  P0G366      0.0636
@<TRIPOS>BOND
     1     5    21    1
     2    21    11    2
     3    21    24    1
     4    11    12    1
     5    17    24    2
     6    17    19    2
     7    24    25    1
     8    12    23    1
     9     4    19    2
    10    19    13    1
    11    25    23    2
    12    25    18    1
    13    23    26    1
    14     2    27    1
    15    18    13    1
    16    14    26    1
    17    14    16    1
    18    26     6    1
    19    16    27    1
    20    27    15    1
    21    27     3    1
    22     1    20    1
    23    15    22    1
    24    20    22   ar
    25    20     9   ar
    26    22    10   ar
    27     9     7   ar
    28    10     8   ar
    29     7     8   ar
