@<TRIPOS>MOLECULE
3p0h_FSE_A_1.pdb
 21 23 0 0 0
SMALL
GASTEIGER

@<TRIPOS>ATOM
      1  C6        10.4970   65.3850   65.8640 C.ar  701  FSE701      0.0423
      2  C5        11.2020   65.5080   67.0630 C.ar  701  FSE701      0.0096
      3  C10       12.5580   65.1920   67.1140 C.ar  701  FSE701      0.0770
      4  C9        13.1830   64.7660   65.9420 C.ar  701  FSE701      0.1517
      5  C8        12.4850   64.6500   64.7430 C.ar  701  FSE701      0.0796
      6  C7        11.1340   64.9610   64.6990 C.ar  701  FSE701      0.1988
      7  C4        13.2830   65.3010   68.2960 C.ar  701  FSE701      0.2402
      8  C3        14.6300   64.9810   68.2650 C.ar  701  FSE701      0.2684
      9  C2        15.2640   64.5420   67.1040 C.ar  701  FSE701      0.1872
     10  C1'       16.6140   64.2120   66.9460 C.ar  701  FSE701      0.0413
     11  C6'       17.3320   63.5170   67.9240 C.ar  701  FSE701      0.0066
     12  C5'       18.6750   63.2030   67.7200 C.ar  701  FSE701      0.0455
     13  C4'       19.2990   63.5780   66.5330 C.ar  701  FSE701      0.2343
     14  C3'       18.5870   64.2620   65.5530 C.ar  701  FSE701      0.2344
     15  C2'       17.2490   64.5750   65.7560 C.ar  701  FSE701      0.0485
     16  O1        14.5110   64.4530   65.9690 O.2   701  FSE701     -0.4499
     17  O4        12.7530   65.6640   69.3450 O.2   701  FSE701     -0.2829
     18  O3'       19.2460   64.6030   64.4060 O.3   701  FSE701     -0.2831
     19  O4'       20.6060   63.2990   66.2790 O.3   701  FSE701     -0.2831
     20  O3        15.3420   65.1090   69.4140 O.3   701  FSE701     -0.2798
     21  O7        10.4520   64.8510   63.5270 O.3   701  FSE701     -0.2865
@<TRIPOS>BOND
     1    21     6    1
     2    18    14    1
     3     6     5   ar
     4     6     1   ar
     5     5     4   ar
     6    14    15   ar
     7    14    13   ar
     8    15    10   ar
     9     1     2   ar
    10     4    16   ar
    11     4     3   ar
    12    16     9   ar
    13    19    13    1
    14    13    12   ar
    15    10     9    1
    16    10    11   ar
    17     2     3   ar
    18     9     8   ar
    19     3     7   ar
    20    12    11   ar
    21     8     7   ar
    22     8    20    1
    23     7    17    2
