@<TRIPOS>MOLECULE
3p0i_TYE_A_1.pdb
 12 12 0 0 0
SMALL
GASTEIGER

@<TRIPOS>ATOM
      1  C         15.3630   64.1210   67.8890 C.3   701  TYE701      0.2013
      2  N         13.2360   62.9310   67.5540 N.3   701  TYE701     -0.1298
      3  O         15.0000   63.8210   69.2560 O.3   701  TYE701     -0.2188
      4  CA        14.0990   63.9910   67.0230 C.3   701  TYE701      0.1290
      5  CB        13.3030   65.2850   67.0400 C.3   701  TYE701      0.0480
      6  CG        12.4290   65.2950   65.8050 C.ar  701  TYE701     -0.0204
      7  OH        10.1170   65.2970   62.4100 O.3   701  TYE701     -0.2866
      8  CZ        10.8760   65.2910   63.5270 C.ar  701  TYE701      0.1957
      9  CD1       11.0630   65.1540   65.9140 C.ar  701  TYE701     -0.0009
     10  CD2       13.0150   65.4240   64.5650 C.ar  701  TYE701     -0.0009
     11  CE1       10.2830   65.1510   64.7690 C.ar  701  TYE701      0.0417
     12  CE2       12.2420   65.4220   63.4210 C.ar  701  TYE701      0.0417
@<TRIPOS>BOND
     1     7     8    1
     2    12     8   ar
     3    12    10   ar
     4     8    11   ar
     5    10     6   ar
     6    11     9   ar
     7     6     9   ar
     8     6     5    1
     9     4     5    1
    10     4     2    1
    11     4     1    1
    12     1     3    1
