@<TRIPOS>MOLECULE
3p0j_TYE_A_1.pdb
 12 12 0 0 0
SMALL
GASTEIGER

@<TRIPOS>ATOM
      1  C         22.2210   35.1310   81.4350 C.3   701  TYE701      0.2013
      2  N         21.7920   34.2120   79.2270 N.3   701  TYE701     -0.1298
      3  O         20.9510   34.4970   81.7950 O.3   701  TYE701     -0.2188
      4  CA        22.2510   35.4370   79.9200 C.3   701  TYE701      0.1290
      5  CB        21.3390   36.6560   79.6550 C.3   701  TYE701      0.0480
      6  CG        20.9580   36.8800   78.1950 C.ar  701  TYE701     -0.0204
      7  OH        19.9050   37.5000   74.2610 O.3   701  TYE701     -0.2866
      8  CZ        20.2600   37.3080   75.5440 C.ar  701  TYE701      0.1957
      9  CD1       19.6740   36.5700   77.7730 C.ar  701  TYE701     -0.0009
     10  CD2       21.8840   37.4100   77.3010 C.ar  701  TYE701     -0.0009
     11  CE1       19.3390   36.7820   76.4410 C.ar  701  TYE701      0.0417
     12  CE2       21.5400   37.6230   75.9660 C.ar  701  TYE701      0.0417
@<TRIPOS>BOND
     1     7     8    1
     2     8    12   ar
     3     8    11   ar
     4    12    10   ar
     5    11     9   ar
     6    10     6   ar
     7     9     6   ar
     8     6     5    1
     9     2     4    1
    10     5     4    1
    11     4     1    1
    12     1     3    1
