@<TRIPOS>MOLECULE
3p0m_4SB_A_1.pdb
 23 24 0 0 0
SMALL
GASTEIGER

@<TRIPOS>ATOM
      1  C         21.9360    8.7420   -1.2750 C.3   351  4SB351      0.1101
      2  N         22.3730    7.4380   -0.8730 N.3   351  4SB351     -0.1314
      3  O         33.5180   10.1410   -3.1080 O.3   351  4SB351     -0.2860
      4 BR         31.8430   10.0620   -5.5860 Br    351  4SB351     -0.0457
      5  C01       29.4620   10.1260   -2.2150 C.ar  351  4SB351     -0.0022
      6  N01       27.3200   10.1260   -0.9410 N.3   351  4SB351     -0.1036
      7  O01       25.6810   10.2100    1.0610 O.2   351  4SB351     -0.2716
      8  C02       27.9480   10.1150   -2.0970 C.3   351  4SB351      0.1398
      9  N02       25.8840   10.1730   -1.0520 N.am  351  4SB351     -0.1109
     10  C03       25.1580   10.2080    0.0620 C.2   351  4SB351      0.2612
     11  C04       23.6300   10.2490   -0.0800 C.3   351  4SB351      0.1033
     12  C05       23.2020   11.6100    0.1520 C.ar  351  4SB351     -0.0137
     13  C06       30.3310   10.1670   -1.1510 C.ar  351  4SB351      0.0005
     14  C07       31.6560   10.1680   -1.4030 C.ar  351  4SB351      0.0423
     15  C08       32.1380   10.1340   -2.7830 C.ar  351  4SB351      0.2018
     16  C09       31.2800   10.1070   -3.7770 C.ar  351  4SB351      0.0732
     17  C10       29.9370   10.0950   -3.5340 C.ar  351  4SB351      0.0071
     18  C11       23.5420   12.5610   -0.7250 C.ar  351  4SB351     -0.0038
     19  C12       23.1160   13.9530   -0.5040 C.ar  351  4SB351     -0.0003
     20  C13       22.3630   14.3000    0.6020 C.ar  351  4SB351     -0.0000
     21  C14       21.9760   13.2770    1.5560 C.ar  351  4SB351     -0.0003
     22  C15       22.3840   11.9510    1.3370 C.ar  351  4SB351     -0.0038
     23  C16       23.1510    9.6770   -1.4620 C.3   351  4SB351      0.0341
@<TRIPOS>BOND
     1     4    16    1
     2    16    17   ar
     3    16    15   ar
     4    17     5   ar
     5     3    15    1
     6    15    14   ar
     7     5     8    1
     8     5    13   ar
     9     8     6    1
    10    23     1    1
    11    23    11    1
    12    14    13   ar
    13     1     2    1
    14     9     6    1
    15     9    10   am
    16    18    19   ar
    17    18    12   ar
    18    19    20   ar
    19    11    10    1
    20    11    12    1
    21    10     7    2
    22    12    22   ar
    23    20    21   ar
    24    22    21   ar
