@<TRIPOS>MOLECULE
3p0n_BPU_A_1.pdb
 15 17 0 0 0
SMALL
GASTEIGER

@<TRIPOS>ATOM
      1  OAA       -8.3930  -10.6320  -15.1430 O.2   1163  BPU1163    -0.2078
      2 BR         -6.3520  -11.0070   -8.0170 Br    1163  BPU1163    -0.0532
      3  CAC       -5.5710  -13.8290  -15.6720 C.ar  1163  BPU1163     0.0213
      4  CAD       -5.3210  -12.7250  -10.1120 C.3   1163  BPU1163     0.0608
      5  CAE       -6.4770  -12.8310  -15.8980 C.ar  1163  BPU1163     0.0321
      6  CAF       -5.2210  -13.1320  -11.4430 C.2   1163  BPU1163    -0.0007
      7  CAG       -5.2410  -13.8820  -14.3620 C.ar  1163  BPU1163     0.0808
      8  CAH       -6.9650  -11.0850  -10.7560 C.2   1163  BPU1163     0.0372
      9  NAI       -7.6960  -10.8580  -13.0120 N.2   1163  BPU1163    -0.3303
     10  CAJ       -6.1980  -11.7110   -9.8030 C.2   1163  BPU1163     0.0194
     11  CAK       -7.6440  -11.2050  -14.3480 C.1   1163  BPU1163     0.2215
     12  CAL       -6.8680  -11.4770  -12.0780 C.2   1163  BPU1163     0.1603
     13  CAM       -6.7390  -12.2390  -14.7390 C.ar  1163  BPU1163     0.1601
     14  CAN       -6.0320  -12.5130  -12.4230 C.2   1163  BPU1163     0.0913
     15  NAO       -5.9650  -12.9180  -13.7570 N.ar  1163  BPU1163    -0.2929
@<TRIPOS>BOND
     1     5     3   ar
     2     5    13   ar
     3     3     7   ar
     4     1    11    2
     5    13    11    1
     6    13    15   ar
     7     7    15   ar
     8    11     9    2
     9    15    14    1
    10     9    12    2
    11    14    12    1
    12    14     6    2
    13    12     8    1
    14     6     4    1
    15     8    10    2
    16     4    10    1
    17    10     2    1
