@<TRIPOS>MOLECULE
3p0p_NNF_A_1.pdb
 21 23 0 0 0
SMALL
GASTEIGER

@<TRIPOS>ATOM
      1  CAA       -5.3000  -14.3140  -14.9390 C.3   1163  NNF1163     0.0638
      2  OAB       -8.3860  -10.6620  -15.2700 O.2   1163  NNF1163    -0.2130
      3  FAC       -5.0320   -9.8020   -3.6070 F     1163  NNF1163    -0.2042
      4  CAD       -5.6350  -11.3060   -5.2850 C.ar  1163  NNF1163     0.0309
      5  CAE       -5.1230   -9.0690   -5.8580 C.ar  1163  NNF1163     0.0309
      6  CAF       -5.9070  -11.5680   -6.6020 C.ar  1163  NNF1163     0.0168
      7  CAG       -5.3880   -9.3500   -7.1830 C.ar  1163  NNF1163     0.0168
      8  CAH       -6.9390  -12.4090  -15.3300 C.3   1163  NNF1163     0.1905
      9  CAI       -5.6960  -12.2370   -9.2880 C.3   1163  NNF1163     0.1131
     10  CAJ       -6.9630  -10.0540   -9.5790 C.3   1163  NNF1163     0.1131
     11  CAK       -5.4620  -12.2250  -10.7270 C.3   1163  NNF1163     0.1246
     12  CAL       -7.4060  -10.5910  -10.8600 C.3   1163  NNF1163     0.1246
     13  NAM       -6.0000  -12.8240  -13.2650 N.2   1163  NNF1163    -0.3353
     14  NAN       -7.4320  -11.1650  -13.4620 N.2   1163  NNF1163    -0.2565
     15  CAO       -6.1080  -13.1440  -14.5100 C.2   1163  NNF1163     0.1185
     16  CAP       -5.2570  -10.0480   -4.8960 C.ar  1163  NNF1163     0.1402
     17  CAQ       -5.7720  -10.6070   -7.5580 C.ar  1163  NNF1163     0.0481
     18  CAR       -6.6140  -11.8370  -12.7370 C.1   1163  NNF1163     0.2125
     19  CAS       -7.6240  -11.4010  -14.7300 C.1   1163  NNF1163     0.1987
     20  NAT       -6.0760  -10.9390   -8.8420 N.pl3 1163  NNF1163    -0.3040
     21  NAU       -6.4850  -11.5410  -11.4480 N.pl3 1163  NNF1163    -0.2301
@<TRIPOS>BOND
     1     8    19    1
     2     8    15    1
     3     2    19    2
     4     1    15    1
     5    19    14    2
     6    15    13    2
     7    14    18    2
     8    13    18    2
     9    18    21    1
    10    21    12    1
    11    21    11    1
    12    12    10    1
    13    11     9    1
    14    10    20    1
    15     9    20    1
    16    20    17    1
    17    17     7   ar
    18    17     6   ar
    19     7     5   ar
    20     6     4   ar
    21     5    16   ar
    22     4    16   ar
    23    16     3    1
