@<TRIPOS>MOLECULE
3p0q_NNL_A_1.pdb
 20 22 0 0 0
SMALL
GASTEIGER

@<TRIPOS>ATOM
      1  CAA       -4.3070  -14.8390  -13.2260 C.3   1163  NNL1163     0.0495
      2 CL         -6.6870  -11.4240   -3.5590 Cl    1163  NNL1163    -0.0822
      3  CAC       -6.0590  -10.2630   -5.9930 C.ar  1163  NNL1163     0.0111
      4  CAD       -8.1110  -11.5620   -5.8950 C.ar  1163  NNL1163     0.0111
      5  CAE       -6.2850   -9.9910   -7.3700 C.ar  1163  NNL1163    -0.0033
      6  CAF       -8.3190  -11.3030   -7.2480 C.ar  1163  NNL1163    -0.0033
      7  CAG       -6.9410  -11.9980  -16.1320 C.ar  1163  NNL1163     0.2242
      8  CAH       -5.7970  -12.8980  -12.4190 C.3   1163  NNL1163     0.0916
      9  CAI       -6.8710  -11.2100  -10.3520 C.3   1163  NNL1163     0.1299
     10  CAJ       -7.7460  -10.2660   -9.4940 C.3   1163  NNL1163     0.0526
     11  NAK       -7.7620  -10.9750  -15.8560 N.ar  1163  NNL1163    -0.1236
     12  NAL       -7.8220  -10.7320  -14.6530 N.ar  1163  NNL1163    -0.1256
     13  NAM       -5.6730  -13.3580  -14.7100 N.2   1163  NNL1163    -0.1706
     14  NAN       -7.2010  -11.0770  -11.7830 N.2   1163  NNL1163    -0.2708
     15  CAO       -6.9620  -11.0480   -5.2630 C.ar  1163  NNL1163     0.0577
     16  CAP       -5.2870  -13.6570  -13.4620 C.2   1163  NNL1163     0.0632
     17  CAQ       -7.4230  -10.5060   -7.9980 C.ar  1163  NNL1163    -0.0201
     18  CAR       -6.6950  -11.8360  -12.7170 C.2   1163  NNL1163     0.0968
     19  CAS       -7.0370  -11.5930  -14.0340 C.ar  1163  NNL1163     0.2000
     20  NAT       -6.4520  -12.4190  -15.0120 N.ar  1163  NNL1163    -0.1879
@<TRIPOS>BOND
     1     7    11   ar
     2     7    20   ar
     3    11    12   ar
     4    20    13    1
     5    20    19   ar
     6    13    16    2
     7    12    19   ar
     8    19    18    1
     9    16     1    1
    10    16     8    1
    11    18     8    1
    12    18    14    2
    13    14     9    1
    14     9    10    1
    15    10    17    1
    16    17     5   ar
    17    17     6   ar
    18     5     3   ar
    19     6     4   ar
    20     3    15   ar
    21     4    15   ar
    22    15     2    1
