@<TRIPOS>MOLECULE
3p0x_ICT_A_1.pdb
 13 12 0 0 0
SMALL
GASTEIGER

@<TRIPOS>ATOM
      1  C1        63.5650  165.5620   24.4260 C.2   450  ICT450      0.3952
      2  O1        64.0430  165.9280   25.5220 O.co2 450  ICT450     -0.2428
      3  O2        63.2310  164.3710   24.1740 O.co2 450  ICT450     -0.2428
      4  C2        63.3620  166.5850   23.3310 C.3   450  ICT450      0.2651
      5  O7        62.3140  166.0360   22.5250 O.3   450  ICT450     -0.2103
      6  C3        64.7030  166.8380   22.5670 C.3   450  ICT450      0.1561
      7  C4        65.7760  167.5490   23.4530 C.3   450  ICT450      0.1285
      8  C5        66.5410  168.7880   22.9640 C.2   450  ICT450      0.3655
      9  O3        67.4570  168.6510   22.1090 O.co2 450  ICT450     -0.2456
     10  O4        66.2860  169.9140   23.4950 O.co2 450  ICT450     -0.2456
     11  C6        64.3810  167.5030   21.2610 C.2   450  ICT450      0.3680
     12  O5        64.2600  166.7830   20.2530 O.co2 450  ICT450     -0.2455
     13  O6        64.2120  168.7240   21.2230 O.co2 450  ICT450     -0.2455
@<TRIPOS>BOND
     1    12    11   ar
     2    13    11   ar
     3    11     6    1
     4     9     8   ar
     5     5     4    1
     6     6     4    1
     7     6     7    1
     8     8     7    1
     9     8    10   ar
    10     4     1    1
    11     3     1   ar
    12     1     2   ar
