@<TRIPOS>MOLECULE
3p0z_MSR_A_1.pdb
 12 13 0 0 0
SMALL
GASTEIGER

@<TRIPOS>ATOM
      1  C12        6.4880  -26.2560  -18.0200 C.ar  170  MSR170      0.0208
      2  C13        5.4320  -26.1860  -18.9470 C.ar  170  MSR170      0.0435
      3  C14        4.5600  -27.2580  -19.1290 C.ar  170  MSR170      0.1958
      4  O17        3.5060  -27.1850  -20.0090 O.3   170  MSR170     -0.2866
      5  C15        4.7840  -28.3990  -18.3770 C.ar  170  MSR170      0.0435
      6  C16        5.8510  -28.4580  -17.4720 C.ar  170  MSR170      0.0208
      7  C11        6.7470  -27.3980  -17.2330 C.ar  170  MSR170      0.0657
      8  N3         7.7700  -27.4840  -16.3300 N.ar  170  MSR170     -0.2864
      9  C4         8.8720  -26.7100  -16.3390 C.ar  170  MSR170      0.1022
     10  C5         9.6020  -27.1530  -15.2730 C.ar  170  MSR170      0.1196
     11  NFE        8.9180  -28.1630  -14.6580 N.ar  170  MSR170     -0.2220
     12  C2         7.7580  -28.3480  -15.3080 C.ar  170  MSR170      0.1828
@<TRIPOS>BOND
     1     4     3    1
     2     3     2   ar
     3     3     5   ar
     4     2     1   ar
     5     5     6   ar
     6     1     7   ar
     7     6     7   ar
     8     7     8    1
     9     9     8   ar
    10     9    10   ar
    11     8    12   ar
    12    12    11   ar
    13    10    11   ar
