@<TRIPOS>MOLECULE
3p0z_CTN_A_1.pdb
 17 18 0 0 0
SMALL
GASTEIGER

@<TRIPOS>ATOM
      1  O5'       23.9190  -36.2850    1.4810 O.3   175  CTN175     -0.2176
      2  C5'       24.2120  -36.6190    2.8450 C.3   175  CTN175      0.2142
      3  C4'       22.9370  -36.9630    3.5990 C.3   175  CTN175      0.1829
      4  O4'       22.2910  -35.7260    3.9230 O.3   175  CTN175     -0.3318
      5  C1'       20.9150  -35.8160    3.5440 C.3   175  CTN175      0.2400
      6  N1        20.5380  -34.5240    2.9590 N.am  175  CTN175     -0.1778
      7  C6        21.2060  -34.0130    1.9180 C.2   175  CTN175      0.0836
      8  C5        20.8440  -32.7890    1.3540 C.2   175  CTN175      0.0687
      9  C4        19.7850  -32.0820    1.9310 C.2   175  CTN175      0.2346
     10  N3        19.1320  -32.6010    2.9600 N.2   175  CTN175     -0.3024
     11  C2        19.4900  -33.7890    3.5140 C.1   175  CTN175      0.2756
     12  O2        18.8660  -34.2670    4.4920 O.2   175  CTN175     -0.1925
     13  N4        19.4030  -30.8910    1.4310 N.pl3 175  CTN175     -0.0921
     14  C2'       20.8120  -36.9450    2.5200 C.3   175  CTN175      0.2319
     15  O2'       19.5460  -37.6330    2.5000 O.3   175  CTN175     -0.2157
     16  C3'       21.9730  -37.8390    2.8030 C.3   175  CTN175      0.2159
     17  O3'       21.4630  -38.9810    3.5150 O.3   175  CTN175     -0.2175
@<TRIPOS>BOND
     1     8     7    2
     2     8     9    1
     3    13     9    1
     4     1     2    1
     5     7     6    1
     6     9    10    2
     7    15    14    1
     8    14    16    1
     9    14     5    1
    10    16    17    1
    11    16     3    1
    12     2     3    1
    13     6    11   am
    14     6     5    1
    15    10    11    2
    16    11    12    2
    17     5     4    1
    18     3     4    1
