@<TRIPOS>MOLECULE
3p10_CTN_A_1.pdb
 17 18 0 0 0
SMALL
GASTEIGER

@<TRIPOS>ATOM
      1  O5'       23.8370  -36.3320    1.4520 O.3   165  CTN165     -0.2176
      2  C5'       24.0990  -36.6700    2.8200 C.3   165  CTN165      0.2142
      3  C4'       22.8170  -37.0040    3.5760 C.3   165  CTN165      0.1829
      4  O4'       22.1780  -35.7600    3.8860 O.3   165  CTN165     -0.3318
      5  C1'       20.8000  -35.8160    3.4860 C.3   165  CTN165      0.2400
      6  N1        20.4360  -34.5160    2.8950 N.am  165  CTN165     -0.1778
      7  C6        21.0860  -34.0360    1.8150 C.2   165  CTN165      0.0836
      8  C5        20.6950  -32.8060    1.2860 C.2   165  CTN165      0.0687
      9  C4        19.6550  -32.0840    1.8830 C.2   165  CTN165      0.2346
     10  N3        19.0030  -32.5920    2.9540 N.2   165  CTN165     -0.3024
     11  C2        19.3930  -33.7730    3.4860 C.1   165  CTN165      0.2756
     12  O2        18.8120  -34.2420    4.4910 O.2   165  CTN165     -0.1925
     13  N4        19.2860  -30.8810    1.3520 N.pl3 165  CTN165     -0.0921
     14  C2'       20.6890  -36.9280    2.4480 C.3   165  CTN165      0.2319
     15  O2'       19.4360  -37.6370    2.4430 O.3   165  CTN165     -0.2157
     16  C3'       21.8440  -37.8450    2.7580 C.3   165  CTN165      0.2159
     17  O3'       21.3630  -38.9330    3.5510 O.3   165  CTN165     -0.2175
@<TRIPOS>BOND
     1     8     7    2
     2     8     9    1
     3    13     9    1
     4     1     2    1
     5     7     6    1
     6     9    10    2
     7    15    14    1
     8    14    16    1
     9    14     5    1
    10    16    17    1
    11    16     3    1
    12     2     3    1
    13     6    11   am
    14     6     5    1
    15    10    11    2
    16    11    12    2
    17     5     4    1
    18     3     4    1
