@<TRIPOS>MOLECULE
3p10_F69_A_1.pdb
 13 14 0 0 0
SMALL
GASTEIGER

@<TRIPOS>ATOM
      1  C1        -4.2690  -30.7150  -14.7900 C.ar  170  F69170      0.0045
      2  C2        -4.3220  -29.7900  -13.7460 C.ar  170  F69170      0.0003
      3  C3        -4.6010  -30.1770  -12.4360 C.ar  170  F69170     -0.0000
      4  C4        -4.8330  -31.5180  -12.1280 C.ar  170  F69170     -0.0002
      5  C5        -4.7640  -32.5020  -13.1260 C.ar  170  F69170     -0.0017
      6  C6        -4.4990  -32.1650  -14.4590 C.ar  170  F69170      0.0111
      7  C7        -3.9610  -30.1950  -16.1620 C.ar  170  F69170      0.0292
      8  C8        -4.5090  -30.3750  -17.4350 C.ar  170  F69170      0.0070
      9  C9        -3.8340  -29.6280  -18.4110 C.ar  170  F69170      0.0075
     10  C10       -2.7810  -28.8610  -17.9440 C.ar  170  F69170      0.0354
     11  S11       -2.6470  -29.0740  -16.2150 S.2   170  F69170     -0.0864
     12  C12       -4.4330  -33.3180  -15.4590 C.3   170  F69170      0.2086
     13  O13       -5.4980  -33.2720  -16.4140 O.3   170  F69170     -0.2152
@<TRIPOS>BOND
     1     9    10   ar
     2     9     8   ar
     3    10    11   ar
     4     8     7   ar
     5    13    12    1
     6    11     7   ar
     7     7     1    1
     8    12     6    1
     9     1     6   ar
    10     1     2   ar
    11     6     5   ar
    12     2     3   ar
    13     5     4   ar
    14     3     4   ar
