@<TRIPOS>MOLECULE
3p13_RIP_A_1.pdb
 10 10 0 0 0
SMALL
GASTEIGER

@<TRIPOS>ATOM
      1  C1        39.1220   31.6040  -17.2550 C.3   201  RIP201      0.3024
      2  C2        38.9790   32.6240  -16.1180 C.3   201  RIP201      0.2434
      3  C3        40.3350   32.9390  -15.4620 C.3   201  RIP201      0.2199
      4  C4        41.4930   33.1390  -16.4540 C.3   201  RIP201      0.2143
      5  C5        41.4550   32.1750  -17.6440 C.3   201  RIP201      0.1804
      6  O1        39.3240   30.3020  -16.7330 O.3   201  RIP201     -0.1869
      7  O2        38.3860   33.7910  -16.6530 O.3   201  RIP201     -0.2148
      8  O3        40.2360   34.0820  -14.6430 O.3   201  RIP201     -0.2174
      9  O4        41.4960   34.4680  -16.9230 O.3   201  RIP201     -0.2176
     10  O5        40.1420   32.0220  -18.1690 O.3   201  RIP201     -0.3237
@<TRIPOS>BOND
     1    10     5    1
     2    10     1    1
     3     5     4    1
     4     1     6    1
     5     1     2    1
     6     9     4    1
     7     7     2    1
     8     4     3    1
     9     2     3    1
    10     3     8    1
