@<TRIPOS>MOLECULE
3p17_99P_H_1.pdb
 26 28 0 0 0
SMALL
GASTEIGER

@<TRIPOS>ATOM
      1  C1        19.6110  -13.9940   24.6830 C.ar  1001  99P1001    -0.0202
      2  C2        18.1780  -14.5050   24.6150 C.3   1001  99P1001     0.0547
      3  C3        17.6990  -14.5780   23.1540 C.3   1001  99P1001     0.1721
      4  N4        16.3850  -15.3010   23.0820 N.3   1001  99P1001    -0.1228
      5  C5        17.4730  -13.1790   22.5570 C.2   1001  99P1001     0.2437
      6  N6        18.3390  -12.7830   21.5650 N.am  1001  99P1001    -0.2718
      7  O7        16.5570  -12.4680   23.0010 O.2   1001  99P1001    -0.2733
      8  C8        20.6710  -14.6660   24.0630 C.ar  1001  99P1001    -0.0042
      9  C9        21.9580  -14.1600   24.1540 C.ar  1001  99P1001    -0.0003
     10  C10       22.2090  -12.9810   24.8600 C.ar  1001  99P1001    -0.0000
     11  C11       21.1620  -12.3040   25.4820 C.ar  1001  99P1001    -0.0003
     12  C12       19.8780  -12.8100   25.3900 C.ar  1001  99P1001    -0.0042
     13  C13       18.2050  -11.4320   20.9920 C.3   1001  99P1001     0.1535
     14  C14       16.7460  -11.3110   20.4680 C.2   1001  99P1001     0.2598
     15  O15       16.2600  -12.1930   19.7200 O.2   1001  99P1001    -0.2715
     16  N16       16.0870  -10.1430   20.7160 N.am  1001  99P1001    -0.1991
     17  C17       14.7610   -9.8760   20.1810 C.3   1001  99P1001     0.1431
     18  C18       13.7180  -10.4350   21.0910 C.ar  1001  99P1001     0.0186
     19  C19       19.1940  -11.4200   19.8060 C.3   1001  99P1001     0.0310
     20  C20       20.2390  -12.4020   20.2720 C.3   1001  99P1001     0.0237
     21  C21       19.4570  -13.5360   20.9490 C.3   1001  99P1001     0.0939
     22  C22       12.9340   -9.6220   21.8870 C.ar  1001  99P1001     0.0963
     23  N23       11.9730  -10.0820   22.7300 N.ar  1001  99P1001    -0.2426
     24  C24       11.7790  -11.4190   22.7850 C.ar  1001  99P1001     0.0989
     25  C25       12.5170  -12.2990   22.0250 C.ar  1001  99P1001     0.0204
     26  C26       13.4900  -11.7940   21.1770 C.ar  1001  99P1001     0.0006
@<TRIPOS>BOND
     1    15    14    2
     2    19    20    1
     3    19    13    1
     4    17    16    1
     5    17    18    1
     6    20    21    1
     7    14    16   am
     8    14    13    1
     9    21     6    1
    10    13     6    1
    11    18    26   ar
    12    18    22   ar
    13    26    25   ar
    14     6     5   am
    15    22    23   ar
    16    25    24   ar
    17     5     7    2
    18     5     3    1
    19    23    24   ar
    20     4     3    1
    21     3     2    1
    22     8     9   ar
    23     8     1   ar
    24     9    10   ar
    25     2     1    1
    26     1    12   ar
    27    10    11   ar
    28    12    11   ar
