@<TRIPOS>MOLECULE
3p19_NAP_A_1.pdb
 48 52 0 0 0
SMALL
GASTEIGER

@<TRIPOS>ATOM
      1  PA        21.8730   21.5110  196.6610 P.3   2001  NAP2001     0.2189
      2  O1A       21.1490   21.4450  197.9540 O.3   2001  NAP2001    -0.4371
      3  O2A       22.0850   20.2670  195.8450 O.2   2001  NAP2001    -0.5170
      4  O5B       23.2980   22.1110  196.9630 O.3   2001  NAP2001    -0.3112
      5  C5B       23.4830   23.1090  197.9750 C.3   2001  NAP2001     0.1813
      6  C4B       24.9680   23.2350  198.2340 C.3   2001  NAP2001     0.1820
      7  O4B       25.3190   24.2720  199.1820 O.3   2001  NAP2001    -0.3136
      8  C3B       25.3700   21.8960  198.8710 C.3   2001  NAP2001     0.2157
      9  O3B       26.6530   21.5310  198.2950 O.3   2001  NAP2001    -0.2175
     10  C2B       25.5040   22.2640  200.3600 C.3   2001  NAP2001     0.2314
     11  O2B       26.5620   21.4820  200.8850 O.3   2001  NAP2001    -0.2630
     12  C1B       26.0480   23.6800  200.2520 C.3   2001  NAP2001     0.3158
     13  N9A       25.7930   24.4170  201.4850 N.pl3 2001  NAP2001    -0.1439
     14  C8A       24.5920   24.6470  202.0440 C.3   2001  NAP2001     0.3377
     15  N7A       24.7600   25.3600  203.1690 N.2   2001  NAP2001    -0.2095
     16  C5A       26.0640   25.5750  203.3120 C.2   2001  NAP2001     0.2526
     17  C6A       26.8060   26.2320  204.2620 C.2   2001  NAP2001     0.4393
     18  N6A       26.1780   26.8300  205.2890 N.pl3 2001  NAP2001     0.2180
     19  N1A       28.1460   26.2770  204.1150 N.2   2001  NAP2001     0.0021
     20  C2A       28.7520   25.7090  203.0870 C.3   2001  NAP2001     0.5254
     21  N3A       28.0560   25.0680  202.1570 N.2   2001  NAP2001    -0.0055
     22  C4A       26.7260   24.9730  202.2520 C.2   2001  NAP2001     0.3518
     23  O3        21.0870   22.6330  195.8240 O.3   2001  NAP2001    -0.2703
     24  PN        21.5450   23.3710  194.4830 P.3   2001  NAP2001     0.2189
     25  O1N       20.3430   23.5430  193.6650 O.2   2001  NAP2001    -0.5170
     26  O2N       22.7690   22.7650  193.8860 O.3   2001  NAP2001    -0.4371
     27  O5D       21.9660   24.8090  195.1280 O.3   2001  NAP2001    -0.3112
     28  C5D       23.1060   25.5600  194.7260 C.3   2001  NAP2001     0.1813
     29  C4D       22.6840   26.9870  194.3710 C.3   2001  NAP2001     0.1799
     30  O4D       21.7820   26.9770  193.2470 O.3   2001  NAP2001    -0.3327
     31  C3D       21.8610   27.5540  195.5540 C.3   2001  NAP2001     0.2158
     32  O3D       22.3480   28.8690  195.8400 O.3   2001  NAP2001    -0.2175
     33  C2D       20.4710   27.6950  194.9550 C.3   2001  NAP2001     0.2309
     34  O2D       19.7970   28.7920  195.5540 O.3   2001  NAP2001    -0.2158
     35  C1D       20.8020   28.0020  193.5050 C.3   2001  NAP2001     0.2263
     36  N1N       19.6560   27.7660  192.6050 N.pl3 2001  NAP2001    -0.2787
     37  C2N       19.1160   26.4680  192.4820 C.3   2001  NAP2001     0.1244
     38  C3N       18.0350   26.2280  191.6270 C.2   2001  NAP2001     0.0544
     39  C7N       17.4520   24.7940  191.5260 C.2   2001  NAP2001     0.2818
     40  O7N       16.2790   24.5620  190.9220 O.2   2001  NAP2001    -0.2670
     41  N7N       18.1350   23.8130  192.1230 N.am  2001  NAP2001    -0.0839
     42  C4N       17.4830   27.2810  190.8800 C.2   2001  NAP2001     0.0033
     43  C5N       18.0180   28.5730  191.0040 C.2   2001  NAP2001     0.0157
     44  C6N       19.1030   28.8070  191.8440 C.2   2001  NAP2001     0.0633
     45  P2B       26.7680   20.8980  202.3900 P.3   2001  NAP2001     0.5328
     46  O1X       27.5780   19.6660  202.2670 O.2   2001  NAP2001    -0.2224
     47  O2X       27.5330   22.0380  203.1980 O.3   2001  NAP2001    -0.1145
     48  O3X       25.3440   20.6440  203.0500 O.3   2001  NAP2001    -0.1145
@<TRIPOS>BOND
     1    42    43    1
     2    42    38    2
     3    40    39    2
     4    43    44    2
     5    39    38    1
     6    39    41   am
     7    38    37    1
     8    44    36    1
     9    37    36    1
    10    36    35    1
    11    30    35    1
    12    30    29    1
    13    35    33    1
    14    25    24    2
    15    26    24    1
    16    29    28    1
    17    29    31    1
    18    24    27    1
    19    24    23    1
    20    28    27    1
    21    33    34    1
    22    33    31    1
    23    31    32    1
    24    23     1    1
    25     3     1    2
    26     1     4    1
    27     1     2    1
    28     4     5    1
    29     5     6    1
    30     6     8    1
    31     6     7    1
    32     9     8    1
    33     8    10    1
    34     7    12    1
    35    12    10    1
    36    12    13    1
    37    10    11    1
    38    11    45    1
    39    13    14    1
    40    13    22    1
    41    14    15    1
    42    21    22    2
    43    21    20    1
    44    22    16    1
    45    46    45    2
    46    45    48    1
    47    45    47    1
    48    20    19    1
    49    15    16    2
    50    16    17    1
    51    19    17    2
    52    17    18    1
