@<TRIPOS>MOLECULE
3p1f_3PF_A_1.pdb
 12 13 0 0 0
SMALL
GASTEIGER

@<TRIPOS>ATOM
      1  CAA       24.4120   15.1620   20.6810 C.3   1198  3PF1198     0.1263
      2  OAB       25.5580   15.7390   18.3010 O.2   1198  3PF1198    -0.1930
      3  CAC       25.7920    9.6590   18.2240 C.2   1198  3PF1198    -0.0043
      4  CAD       26.3020   10.1650   17.0520 C.2   1198  3PF1198    -0.0187
      5  CAE       25.4750   10.4980   19.2930 C.2   1198  3PF1198    -0.0007
      6  CAF       26.4860   11.5290   16.8710 C.3   1198  3PF1198     0.0857
      7  CAG       25.3250   12.7600   20.2750 C.3   1198  3PF1198     0.1323
      8  NAH       26.3450   13.7200   17.7750 N.2   1198  3PF1198    -0.3256
      9  CAI       25.7190   14.5830   18.6450 C.1   1198  3PF1198     0.2685
     10  CAJ       25.6890   11.8570   19.1090 C.2   1198  3PF1198     0.0251
     11  CAK       26.2440   12.3570   17.9490 C.2   1198  3PF1198     0.1251
     12  NAL       25.1590   14.1740   19.8550 N.am  1198  3PF1198    -0.2208
@<TRIPOS>BOND
     1     6     4    1
     2     6    11    1
     3     4     3    2
     4     8    11    2
     5     8     9    2
     6    11    10    1
     7     3     5    1
     8     2     9    2
     9     9    12   am
    10    10     5    2
    11    10     7    1
    12    12     7    1
    13    12     1    1
