@<TRIPOS>MOLECULE
3p1h_THP_A_1.pdb
 25 26 0 0 0
SMALL
GASTEIGER

@<TRIPOS>ATOM
      1  P2        17.8890   11.0220    4.7080 P.3   150  THP150      0.5327
      2  O4P       16.6660   11.7290    5.2460 O.3   150  THP150     -0.1145
      3  O5P       17.9120    9.4800    5.0750 O.2   150  THP150     -0.2224
      4  O6P       19.1820   11.6930    5.3330 O.3   150  THP150     -0.1145
      5  P1        21.0920   14.5390    0.8930 P.3   150  THP150      0.5326
      6  O1P       21.8160   13.4960    1.6810 O.3   150  THP150     -0.1145
      7  O2P       22.1560   15.2390   -0.0530 O.2   150  THP150     -0.2224
      8  O3P       20.4480   15.5270    1.9310 O.3   150  THP150     -0.1145
      9  O5'       17.8510   11.0880    3.1060 O.3   150  THP150     -0.2675
     10  C5'       17.9220   12.4090    2.5830 C.3   150  THP150      0.1857
     11  C4'       18.8400   12.3110    1.3640 C.3   150  THP150      0.1748
     12  O4'       18.4280   11.2020    0.5420 O.3   150  THP150     -0.3340
     13  C3'       18.7570   13.5770    0.4520 C.3   150  THP150      0.1600
     14  O3'       20.0400   13.8740   -0.1600 O.3   150  THP150     -0.2700
     15  C2'       17.8320   13.0860   -0.6770 C.3   150  THP150      0.0847
     16  C1'       18.1120   11.5790   -0.7880 C.3   150  THP150      0.2089
     17  N1        16.8470   10.9300   -1.1940 N.am  150  THP150     -0.1794
     18  C2        16.5880   10.7300   -2.5100 C.1   150  THP150      0.2844
     19  O2        17.4280   11.0520   -3.3720 O.2   150  THP150     -0.1918
     20  N3        15.4050   10.2230   -2.9200 N.2   150  THP150     -0.2455
     21  C4        14.4370    9.9210   -2.0000 C.1   150  THP150      0.2134
     22  O4        13.3680    9.4950   -2.3960 O.2   150  THP150     -0.2088
     23  C5        14.6840   10.1520   -0.6340 C.2   150  THP150      0.0891
     24  C5M       13.6450    9.7960    0.4080 C.3   150  THP150      0.0462
     25  C6        15.9050   10.6420   -0.2360 C.2   150  THP150      0.0877
@<TRIPOS>BOND
     1    19    18    2
     2    20    18    2
     3    20    21    2
     4    18    17   am
     5    22    21    2
     6    21    23    1
     7    17    16    1
     8    17    25    1
     9    16    15    1
    10    16    12    1
    11    15    13    1
    12    23    25    2
    13    23    24    1
    14    14    13    1
    15    14     5    1
    16     7     5    2
    17    13    11    1
    18    12    11    1
    19     5     6    1
    20     5     8    1
    21    11    10    1
    22    10     9    1
    23     9     1    1
    24     1     3    2
    25     1     2    1
    26     1     4    1
