@<TRIPOS>MOLECULE
3p1o_FSC_A_1.pdb
 48 51 0 0 0
SMALL
GASTEIGER

@<TRIPOS>ATOM
      1  C1       -18.5020  -18.7740   -0.7150 C.2   232  FSC232     -0.0172
      2  C4       -17.4710  -17.9030   -0.4080 C.2   232  FSC232     -0.0436
      3  C11      -15.9860  -18.1580   -0.6470 C.3   232  FSC232      0.0617
      4  C18      -15.3300  -18.2710    0.7320 C.3   232  FSC232      0.0082
      5  C17      -15.3810  -17.0240   -1.4920 C.3   232  FSC232      0.2123
      6  O24      -14.0940  -17.6660   -1.9310 O.3   232  FSC232     -0.4481
      7  C31      -13.3410  -16.7970   -2.6460 C.2   232  FSC232      0.3176
      8  O37      -13.8120  -15.7130   -2.9890 O.2   232  FSC232     -0.2501
      9  C36      -11.9000  -17.2200   -3.0330 C.3   232  FSC232      0.1212
     10  C10      -17.9600  -16.7050    0.3010 C.3   232  FSC232      0.0551
     11  C6       -19.4280  -16.6570   -0.2640 C.3   232  FSC232      0.1630
     12  O13      -20.2370  -15.9450    0.6100 O.3   232  FSC232     -0.2221
     13  C2       -19.8250  -18.1260   -0.2690 C.3   232  FSC232      0.0632
     14  C7       -20.9770  -18.3100   -1.3180 C.3   232  FSC232      0.0110
     15  C5       -20.3000  -18.5250    1.0050 C.2   232  FSC232     -0.0289
     16  C12      -19.9480  -19.5750    1.8680 C.2   232  FSC232     -0.0462
     17  C20      -20.6190  -19.8840    3.2060 C.3   232  FSC232      0.0476
     18  C27      -22.1440  -20.0990    2.9540 C.3   232  FSC232      0.1462
     19  O32      -22.7400  -20.3770    4.2190 O.3   232  FSC232     -0.3508
     20  C38      -24.1630  -20.7320    4.1140 C.3   232  FSC232      0.1741
     21  C26      -19.9880  -21.1940    3.6660 C.3   232  FSC232      0.0069
     22  C25      -18.5360  -21.1360    3.1250 C.3   232  FSC232      0.0045
     23  C19      -18.7000  -20.4830    1.7170 C.3   232  FSC232      0.0206
     24  C15      -18.7920  -21.6040    0.6260 C.3   232  FSC232      0.0370
     25  C23      -20.2570  -22.0950    0.1740 C.3   232  FSC232      0.0030
     26  C9       -17.8810  -21.2330   -0.5660 C.3   232  FSC232      0.1831
     27  O16      -17.7510  -22.4200   -1.3760 O.3   232  FSC232     -0.2202
     28  C3       -18.4910  -20.1130   -1.4480 C.3   232  FSC232      0.1661
     29  O8       -17.6310  -19.8760   -2.5930 O.3   232  FSC232     -0.3242
     30  C14      -18.2820  -20.1050   -3.9150 C.3   232  FSC232      0.2709
     31  O22      -19.0100  -18.8920   -4.2300 O.3   232  FSC232     -0.3257
     32  C30      -18.2880  -17.6950   -4.2260 C.3   232  FSC232      0.1812
     33  C33      -17.1210  -17.7660   -5.2230 C.3   232  FSC232      0.2239
     34  O39      -16.3180  -16.6390   -4.9860 O.3   232  FSC232     -0.2165
     35  C28      -16.2670  -19.0220   -4.9780 C.3   232  FSC232      0.2366
     36  O34      -15.3160  -18.9370   -6.0640 O.3   232  FSC232     -0.4466
     37  C40      -14.0890  -19.5220   -5.8030 C.2   232  FSC232      0.3176
     38  O43      -13.8310  -20.0370   -4.7000 O.2   232  FSC232     -0.2501
     39  C42      -13.0470  -19.5230   -6.9640 C.3   232  FSC232      0.1212
     40  C21      -17.1800  -20.2610   -4.9800 C.3   232  FSC232      0.2501
     41  O29      -16.4380  -21.4230   -4.6680 O.3   232  FSC232     -0.2137
     42  C35      -19.3250  -16.6130   -4.5730 C.3   232  FSC232      0.1741
     43  O41      -19.7390  -16.8800   -5.9100 O.3   232  FSC232     -0.3559
     44  C44      -20.5160  -15.7680   -6.5640 C.3   232  FSC232      0.0930
     45  C47      -21.8530  -15.4650   -5.8130 C.3   232  FSC232      0.0296
     46  C46      -20.7570  -16.1850   -8.0100 C.3   232  FSC232      0.0296
     47  C45      -19.7500  -14.5960   -6.5720 C.3   232  FSC232      0.0272
     48  C48      -18.4110  -14.5750   -6.9860 C.3   232  FSC232      0.0025
@<TRIPOS>BOND
     1    46    44    1
     2    48    47    1
     3    39    37    1
     4    47    44    1
     5    44    43    1
     6    44    45    1
     7    36    37    1
     8    36    35    1
     9    43    42    1
    10    37    38    2
    11    33    34    1
    12    33    35    1
    13    33    32    1
    14    40    35    1
    15    40    41    1
    16    40    30    1
    17    42    32    1
    18    31    32    1
    19    31    30    1
    20    30    29    1
    21     9     7    1
    22     8     7    2
    23     7     6    1
    24    29    28    1
    25     6     5    1
    26     5     3    1
    27    28     1    1
    28    28    26    1
    29    27    26    1
    30    14    13    1
    31     1     2    2
    32     1    13    1
    33     3     2    1
    34     3     4    1
    35    26    24    1
    36     2    10    1
    37    13    11    1
    38    13    15    1
    39    11    10    1
    40    11    12    1
    41    25    24    1
    42    24    23    1
    43    15    16    2
    44    23    16    1
    45    23    22    1
    46    16    17    1
    47    18    17    1
    48    18    19    1
    49    22    21    1
    50    17    21    1
    51    20    19    1
