@<TRIPOS>MOLECULE
3p1q_FSC_A_1.pdb
 48 51 0 0 0
SMALL
GASTEIGER

@<TRIPOS>ATOM
      1  C1        23.3810  -19.0420   -0.7750 C.2   249  FSC249     -0.0172
      2  C4        24.4230  -18.2070   -0.4020 C.2   249  FSC249     -0.0436
      3  C11       25.8570  -18.5190   -0.6870 C.3   249  FSC249      0.0617
      4  C18       26.5680  -18.6500    0.6800 C.3   249  FSC249      0.0082
      5  C17       26.4470  -17.3470   -1.4780 C.3   249  FSC249      0.2123
      6  O24       27.7130  -17.9500   -1.9290 O.3   249  FSC249     -0.4481
      7  C31       28.5050  -17.2440   -2.7420 C.2   249  FSC249      0.3176
      8  O37       28.1600  -16.1230   -3.1010 O.2   249  FSC249     -0.2501
      9  C36       29.8300  -17.9050   -3.1910 C.3   249  FSC249      0.1212
     10  C10       23.9580  -16.9370    0.2980 C.3   249  FSC249      0.0551
     11  C6        22.5110  -16.8870   -0.2680 C.3   249  FSC249      0.1630
     12  O13       21.6920  -16.0890    0.5840 O.3   249  FSC249     -0.2221
     13  C2        22.0520  -18.3990   -0.3070 C.3   249  FSC249      0.0632
     14  C7        20.8140  -18.6180   -1.3000 C.3   249  FSC249      0.0110
     15  C5        21.5560  -18.8530    0.9420 C.2   249  FSC249     -0.0289
     16  C12       21.9300  -19.8940    1.8030 C.2   249  FSC249     -0.0462
     17  C20       21.2450  -20.2390    3.0930 C.3   249  FSC249      0.0476
     18  C27       19.7010  -20.2630    2.8410 C.3   249  FSC249      0.1462
     19  O32       19.0900  -20.7050    4.0850 O.3   249  FSC249     -0.3508
     20  C38       17.6610  -20.8900    3.9110 C.3   249  FSC249      0.1741
     21  C26       21.9190  -21.5890    3.5720 C.3   249  FSC249      0.0069
     22  C25       23.3820  -21.3540    3.1240 C.3   249  FSC249      0.0045
     23  C19       23.2190  -20.7380    1.7020 C.3   249  FSC249      0.0206
     24  C15       23.1080  -21.8760    0.6030 C.3   249  FSC249      0.0370
     25  C23       21.6380  -22.2620    0.1430 C.3   249  FSC249      0.0030
     26  C9        23.9670  -21.5090   -0.6370 C.3   249  FSC249      0.1831
     27  O16       24.0780  -22.6440   -1.5110 O.3   249  FSC249     -0.2202
     28  C3        23.3750  -20.3950   -1.5300 C.3   249  FSC249      0.1661
     29  O8        24.2480  -20.1750   -2.6300 O.3   249  FSC249     -0.3242
     30  C14       23.6350  -20.4470   -3.8960 C.3   249  FSC249      0.2709
     31  O22       22.8120  -19.3010   -4.2560 O.3   249  FSC249     -0.3257
     32  C30       23.4790  -18.0300   -4.2990 C.3   249  FSC249      0.1812
     33  C33       24.6780  -18.0360   -5.2560 C.3   249  FSC249      0.2239
     34  O39       25.3960  -16.7460   -5.1310 O.3   249  FSC249     -0.2165
     35  C28       25.5910  -19.2590   -4.9560 C.3   249  FSC249      0.2366
     36  O34       26.4920  -19.3730   -6.1010 O.3   249  FSC249     -0.4466
     37  C40       27.7920  -19.6870   -5.9670 C.2   249  FSC249      0.3176
     38  O43       28.2240  -19.9820   -4.8440 O.2   249  FSC249     -0.2501
     39  C42       28.6820  -19.7170   -7.2360 C.3   249  FSC249      0.1212
     40  C21       24.7270  -20.5550   -4.9330 C.3   249  FSC249      0.2501
     41  O29       25.4710  -21.7860   -4.6990 O.3   249  FSC249     -0.2137
     42  C35       22.3570  -16.9980   -4.5750 C.3   249  FSC249      0.1741
     43  O41       22.0410  -17.1780   -5.9590 O.3   249  FSC249     -0.3559
     44  C44       21.3210  -16.0610   -6.6010 C.3   249  FSC249      0.0930
     45  C47       19.9150  -15.8730   -5.9720 C.3   249  FSC249      0.0296
     46  C46       21.1800  -16.3270   -8.1010 C.3   249  FSC249      0.0296
     47  C45       22.0670  -14.8730   -6.4550 C.3   249  FSC249      0.0272
     48  C48       23.3630  -14.7740   -6.9790 C.3   249  FSC249      0.0025
@<TRIPOS>BOND
     1    46    44    1
     2    39    37    1
     3    48    47    1
     4    44    47    1
     5    44    45    1
     6    44    43    1
     7    36    37    1
     8    36    35    1
     9    37    38    2
    10    43    42    1
    11    33    34    1
    12    33    35    1
    13    33    32    1
    14    35    40    1
    15    40    41    1
    16    40    30    1
    17    42    32    1
    18    32    31    1
    19    31    30    1
    20    30    29    1
    21     9     7    1
    22     8     7    2
    23     7     6    1
    24    29    28    1
    25     6     5    1
    26    28     1    1
    27    28    26    1
    28    27    26    1
    29     5     3    1
    30    14    13    1
    31     1     2    2
    32     1    13    1
    33     3     2    1
    34     3     4    1
    35    26    24    1
    36     2    10    1
    37    13    11    1
    38    13    15    1
    39    11    10    1
    40    11    12    1
    41    25    24    1
    42    24    23    1
    43    15    16    2
    44    23    16    1
    45    23    22    1
    46    16    17    1
    47    18    17    1
    48    18    19    1
    49    17    21    1
    50    22    21    1
    51    20    19    1
