@<TRIPOS>MOLECULE
3p1s_FSC_A_1.pdb
 48 51 0 0 0
SMALL
GASTEIGER

@<TRIPOS>ATOM
      1  C1        23.3230  -19.1700   -0.7850 C.2   249  FSC249     -0.0172
      2  C4        24.3770  -18.3650   -0.4040 C.2   249  FSC249     -0.0436
      3  C11       25.8200  -18.6890   -0.7090 C.3   249  FSC249      0.0617
      4  C18       26.5320  -18.8550    0.6330 C.3   249  FSC249      0.0082
      5  C17       26.4060  -17.5100   -1.4980 C.3   249  FSC249      0.2123
      6  O24       27.6930  -18.0210   -1.9700 O.3   249  FSC249     -0.4481
      7  C31       28.4000  -17.2480   -2.8020 C.2   249  FSC249      0.3176
      8  O37       28.0320  -16.1020   -3.0530 O.2   249  FSC249     -0.2501
      9  C36       29.7140  -17.8630   -3.3490 C.3   249  FSC249      0.1212
     10  C10       23.9160  -17.1440    0.3500 C.3   249  FSC249      0.0551
     11  C6        22.4530  -17.0610   -0.2040 C.3   249  FSC249      0.1630
     12  O13       21.6110  -16.2150    0.6140 O.3   249  FSC249     -0.2221
     13  C2        22.0010  -18.5500   -0.2970 C.3   249  FSC249      0.0632
     14  C7        20.8270  -18.6960   -1.3720 C.3   249  FSC249      0.0110
     15  C5        21.4780  -19.0010    0.9440 C.2   249  FSC249     -0.0289
     16  C12       21.8580  -20.0420    1.7860 C.2   249  FSC249     -0.0462
     17  C20       21.1430  -20.3990    3.1290 C.3   249  FSC249      0.0476
     18  C27       19.6440  -20.5050    2.8550 C.3   249  FSC249      0.1462
     19  O32       19.0700  -20.8340    4.1120 O.3   249  FSC249     -0.3508
     20  C38       17.6400  -20.9330    3.9170 C.3   249  FSC249      0.1741
     21  C26       21.8320  -21.7280    3.6260 C.3   249  FSC249      0.0069
     22  C25       23.2760  -21.5170    3.0790 C.3   249  FSC249      0.0045
     23  C19       23.1240  -20.8940    1.6580 C.3   249  FSC249      0.0206
     24  C15       23.0280  -22.0400    0.5530 C.3   249  FSC249      0.0370
     25  C23       21.5560  -22.4400    0.1480 C.3   249  FSC249      0.0030
     26  C9        23.9050  -21.6790   -0.6840 C.3   249  FSC249      0.1831
     27  O16       23.9760  -22.8310   -1.5300 O.3   249  FSC249     -0.2202
     28  C3        23.3240  -20.5110   -1.5500 C.3   249  FSC249      0.1661
     29  O8        24.2040  -20.2900   -2.6830 O.3   249  FSC249     -0.3242
     30  C14       23.5720  -20.4920   -3.9440 C.3   249  FSC249      0.2709
     31  O22       22.7880  -19.3590   -4.3030 O.3   249  FSC249     -0.3257
     32  C30       23.4360  -18.1100   -4.3330 C.3   249  FSC249      0.1812
     33  C33       24.6100  -18.0870   -5.2630 C.3   249  FSC249      0.2239
     34  O39       25.3150  -16.8370   -5.0650 O.3   249  FSC249     -0.2165
     35  C28       25.5280  -19.3220   -4.9940 C.3   249  FSC249      0.2366
     36  O34       26.3940  -19.4800   -6.1350 O.3   249  FSC249     -0.4466
     37  C40       27.7180  -19.5100   -5.9670 C.2   249  FSC249      0.3176
     38  O43       28.1360  -19.5260   -4.8050 O.2   249  FSC249     -0.2501
     39  C42       28.6510  -19.5480   -7.2140 C.3   249  FSC249      0.1212
     40  C21       24.6360  -20.5900   -4.9910 C.3   249  FSC249      0.2501
     41  O29       25.3660  -21.7930   -4.7600 O.3   249  FSC249     -0.2137
     42  C35       22.3980  -17.0210   -4.7010 C.3   249  FSC249      0.1741
     43  O41       21.9080  -17.3220   -6.0190 O.3   249  FSC249     -0.3559
     44  C44       21.2560  -16.2120   -6.6620 C.3   249  FSC249      0.0930
     45  C47       19.8490  -16.0010   -6.0530 C.3   249  FSC249      0.0296
     46  C46       21.1650  -16.4510   -8.1680 C.3   249  FSC249      0.0296
     47  C45       21.9830  -15.0240   -6.5350 C.3   249  FSC249      0.0272
     48  C48       23.3450  -15.0200   -6.8400 C.3   249  FSC249      0.0025
@<TRIPOS>BOND
     1    46    44    1
     2    39    37    1
     3    48    47    1
     4    44    47    1
     5    44    45    1
     6    44    43    1
     7    36    37    1
     8    36    35    1
     9    43    42    1
    10    37    38    2
    11    33    34    1
    12    33    35    1
    13    33    32    1
    14    35    40    1
    15    40    41    1
    16    40    30    1
    17    42    32    1
    18    32    31    1
    19    31    30    1
    20    30    29    1
    21     9     7    1
    22     8     7    2
    23     7     6    1
    24    29    28    1
    25     6     5    1
    26    28     1    1
    27    28    26    1
    28    27    26    1
    29     5     3    1
    30    14    13    1
    31     1     2    2
    32     1    13    1
    33     3     2    1
    34     3     4    1
    35    26    24    1
    36     2    10    1
    37    13    11    1
    38    13    15    1
    39    11    10    1
    40    11    12    1
    41    25    24    1
    42    24    23    1
    43    15    16    2
    44    23    16    1
    45    23    22    1
    46    16    17    1
    47    18    17    1
    48    18    19    1
    49    22    21    1
    50    17    21    1
    51    20    19    1
