@<TRIPOS>MOLECULE
3p23_ADP_A_1.pdb
 27 29 0 0 0
SMALL
GASTEIGER

@<TRIPOS>ATOM
      1  PB        26.5150  -38.3010   49.8430 P.3   1002  ADP1002     0.5373
      2  O1B       27.5150  -37.4440   50.5770 O.3   1002  ADP1002    -0.1143
      3  O2B       26.2560  -37.8210   48.4330 O.2   1002  ADP1002    -0.2221
      4  O3B       26.6950  -39.7960   49.9860 O.3   1002  ADP1002    -0.1143
      5  PA        23.7290  -38.0780   49.8470 P.3   1002  ADP1002     0.2231
      6  O1A       23.7460  -37.0540   48.7390 O.2   1002  ADP1002    -0.5169
      7  O2A       22.6200  -38.0880   50.8700 O.3   1002  ADP1002    -0.4370
      8  O3A       25.1380  -38.0010   50.6200 O.3   1002  ADP1002    -0.2261
      9  O5'       23.7650  -39.5500   49.1980 O.3   1002  ADP1002    -0.3111
     10  C5'       23.8170  -40.6930   50.0480 C.3   1002  ADP1002     0.1813
     11  C4'       23.8840  -41.9820   49.2340 C.3   1002  ADP1002     0.1821
     12  O4'       22.6870  -42.1570   48.4740 O.3   1002  ADP1002    -0.3135
     13  C3'       25.0300  -41.9990   48.2320 C.3   1002  ADP1002     0.2184
     14  O3'       26.1810  -42.6720   48.7530 O.3   1002  ADP1002    -0.2174
     15  C2'       24.4830  -42.7480   47.0350 C.3   1002  ADP1002     0.2570
     16  O2'       25.0150  -44.0750   47.0190 O.3   1002  ADP1002    -0.2130
     17  C1'       22.9760  -42.8000   47.2300 C.3   1002  ADP1002     0.3186
     18  N9        22.3400  -42.0730   46.1040 N.pl3 1002  ADP1002    -0.1439
     19  C8        22.2210  -40.7350   46.0020 C.3   1002  ADP1002     0.3377
     20  N7        21.6010  -40.3860   44.8480 N.2   1002  ADP1002    -0.2095
     21  C5        21.3170  -41.5210   44.1860 C.2   1002  ADP1002     0.2526
     22  C6        20.6680  -41.8680   42.9010 C.2   1002  ADP1002     0.4393
     23  N6        20.1890  -40.9000   42.0820 N.pl3 1002  ADP1002     0.2180
     24  N1        20.5700  -43.1790   42.5810 N.2   1002  ADP1002     0.0021
     25  C2        21.0410  -44.1450   43.3910 C.3   1002  ADP1002     0.5254
     26  N3        21.6410  -43.8990   44.5690 N.2   1002  ADP1002    -0.0055
     27  C4        21.8060  -42.6310   45.0140 C.2   1002  ADP1002     0.3518
@<TRIPOS>BOND
     1    23    22    1
     2    24    22    2
     3    24    25    1
     4    22    21    1
     5    25    26    1
     6    21    20    2
     7    21    27    1
     8    26    27    2
     9    20    19    1
    10    27    18    1
    11    19    18    1
    12    18    17    1
    13    16    15    1
    14    15    17    1
    15    15    13    1
    16    17    12    1
    17    13    14    1
    18    13    11    1
    19     3     1    2
    20    12    11    1
    21     6     5    2
    22     9     5    1
    23     9    10    1
    24    11    10    1
    25     1     4    1
    26     1     2    1
    27     1     8    1
    28     5     8    1
    29     5     7    1
