@<TRIPOS>MOLECULE
3p25_D02_A_1.pdb
 23 24 0 0 0
SMALL
GASTEIGER

@<TRIPOS>ATOM
      1  CAA       -5.7700    7.3620   11.0990 C.3   263  D02263      0.2560
      2  NAB       -5.3700   -0.3570   16.1140 N.3   263  D02263      0.0394
      3  OAC       -2.4870    8.6460   10.7230 O.2   263  D02263     -0.2434
      4  OAD       -5.4100    1.2140   18.2120 O.2   263  D02263     -0.1502
      5  OAE       -7.3280    1.2310   16.6500 O.2   263  D02263     -0.1502
      6  FAF       -1.7740    3.6640   15.1490 F     263  D02263     -0.2003
      7  FAG       -5.9410    5.4300   14.2380 F     263  D02263     -0.2003
      8  FAH       -2.9630    1.5540   16.3810 F     263  D02263     -0.2002
      9  FAI       -7.1460    3.4480   15.4530 F     263  D02263     -0.2002
     10  CAJ       -3.8310    6.0490   12.8210 C.3   263  D02263      0.1695
     11  NAK       -2.2540    7.5180   13.4920 N.2   263  D02263     -0.1395
     12  NAL       -2.4310    6.5850   14.4600 N.pl3 263  D02263     -0.0441
     13  OAM       -4.7110    8.2400   10.8610 O.3   263  D02263     -0.4404
     14  CAN       -3.3880    7.9260   11.1570 C.2   263  D02263      0.3585
     15  CAO       -3.1320    7.2070   12.4680 C.2   263  D02263      0.1765
     16  CAP       -3.1090    3.5590   15.2200 C.ar  263  D02263      0.1859
     17  CAQ       -5.2550    4.4840   14.7720 C.ar  263  D02263      0.1859
     18  CAR       -3.7150    2.5180   15.8490 C.ar  263  D02263      0.1896
     19  CAS       -5.8520    3.4540   15.3880 C.ar  263  D02263      0.1896
     20  CAT       -3.8930    4.5430   14.6780 C.ar  263  D02263      0.1282
     21  CAU       -5.1120    2.4200   15.9550 C.ar  263  D02263      0.1841
     22  NAV       -3.3740    5.6740   14.0060 N.pl3 263  D02263     -0.1922
     23  SAW       -5.8950    1.0440   16.8230 S.O2  263  D02263      0.0980
@<TRIPOS>BOND
     1     3    14    2
     2    13     1    1
     3    13    14    1
     4    14    15    1
     5    15    10    1
     6    15    11    2
     7    10    22    1
     8    11    12    1
     9    22    12    1
    10    22    20    1
    11     7    17    1
    12    20    17   ar
    13    20    16   ar
    14    17    19   ar
    15     6    16    1
    16    16    18   ar
    17    19     9    1
    18    19    21   ar
    19    18    21   ar
    20    18     8    1
    21    21    23    1
    22     2    23    1
    23     5    23    2
    24    23     4    2
