@<TRIPOS>MOLECULE
3p27_GDP_A_1.pdb
 28 30 0 0 0
SMALL
GASTEIGER

@<TRIPOS>ATOM
      1  PB        79.4970  -12.7030   67.4940 P.3   663  GDP663      0.5373
      2  O1B       79.1580  -12.2200   66.0960 O.2   663  GDP663     -0.2221
      3  O2B       78.4660  -13.7240   67.9580 O.3   663  GDP663     -0.1143
      4  O3B       80.9090  -13.2550   67.5180 O.3   663  GDP663     -0.1143
      5  O3A       79.3960  -11.4480   68.4920 O.3   663  GDP663     -0.2261
      6  PA        80.2740  -11.3330   69.8310 P.3   663  GDP663      0.2231
      7  O1A       79.4190  -10.9430   71.0270 O.3   663  GDP663     -0.4370
      8  O2A       80.9690  -12.6450   70.1290 O.2   663  GDP663     -0.5169
      9  O5'       81.3550  -10.2430   69.3070 O.3   663  GDP663     -0.3111
     10  C5'       81.0030   -8.9690   68.7660 C.3   663  GDP663      0.1813
     11  C4'       81.9150   -7.9160   69.3830 C.3   663  GDP663      0.1799
     12  O4'       81.1590   -6.7120   69.5720 O.3   663  GDP663     -0.3326
     13  C3'       82.3430   -8.3690   70.7680 C.3   663  GDP663      0.2158
     14  O3'       83.5590   -7.7200   71.1730 O.3   663  GDP663     -0.2175
     15  C2'       81.1560   -7.9170   71.6030 C.3   663  GDP663      0.2310
     16  O2'       81.4350   -7.8700   73.0120 O.3   663  GDP663     -0.2158
     17  C1'       80.8140   -6.5680   70.9570 C.3   663  GDP663      0.2293
     18  N9        79.3830   -6.1880   71.1510 N.pl3 663  GDP663     -0.2354
     19  C8        78.3200   -7.0150   71.2030 C.3   663  GDP663      0.2246
     20  N7        77.1620   -6.3270   71.4060 N.2   663  GDP663     -0.2322
     21  C5        77.4820   -5.0160   71.4790 C.2   663  GDP663      0.2182
     22  C6        76.7570   -3.7350   71.6750 C.1   663  GDP663      0.2372
     23  O6        75.5230   -3.7140   71.8270 O.2   663  GDP663     -0.2069
     24  N1        77.4540   -2.5940   71.6930 N.2   663  GDP663     -0.2485
     25  C2        78.7930   -2.5790   71.5370 C.1   663  GDP663      0.2531
     26  N2        79.4400   -1.3910   71.5590 N.pl3 663  GDP663     -0.0226
     27  N3        79.5250   -3.7060   71.3530 N.2   663  GDP663     -0.3074
     28  C4        78.9410   -4.9320   71.3140 C.2   663  GDP663      0.2300
@<TRIPOS>BOND
     1     2     1    2
     2     1     4    1
     3     1     3    1
     4     1     5    1
     5     5     6    1
     6    10     9    1
     7    10    11    1
     8     9     6    1
     9    11    12    1
    10    11    13    1
    11    12    17    1
    12     6     8    2
    13     6     7    1
    14    13    14    1
    15    13    15    1
    16    17    18    1
    17    17    15    1
    18    18    19    1
    19    18    28    1
    20    19    20    1
    21    28    27    2
    22    28    21    1
    23    27    25    2
    24    20    21    2
    25    21    22    1
    26    25    26    1
    27    25    24    2
    28    15    16    1
    29    22    24    2
    30    22    23    2
