@<TRIPOS>MOLECULE
3p29_D04_A_1.pdb
 25 27 0 0 0
SMALL
GASTEIGER

@<TRIPOS>ATOM
      1  NAA       -5.3250   -0.4190   16.1820 N.3   263  D04263      0.0394
      2  OAB       -5.3890    1.2210   18.1030 O.2   263  D04263     -0.1502
      3  OAC       -7.3370    1.1100   16.6620 O.2   263  D04263     -0.1502
      4  FAD       -1.6710    3.6290   15.1870 F     263  D04263     -0.2003
      5  FAE       -5.7860    5.4530   14.0810 F     263  D04263     -0.2003
      6  FAF       -2.9700    1.4390   16.4180 F     263  D04263     -0.2002
      7  FAG       -7.0930    3.3610   15.2660 F     263  D04263     -0.2002
      8  CAH       -2.2120    5.7630   12.9780 C.3   263  D04263      0.1582
      9  CAI        0.7880   10.2200   12.4450 C.3   263  D04263      0.0000
     10  CAJ       -0.2020   10.0380   11.3420 C.3   263  D04263      0.0004
     11  CAK        0.8770    8.9980   13.3080 C.3   263  D04263      0.0004
     12  CAL       -1.3280    9.1540   11.7680 C.3   263  D04263      0.0057
     13  CAM        0.5130    7.7350   12.5920 C.3   263  D04263      0.0057
     14  NAN       -2.2960    7.7180   14.0300 N.2   263  D04263     -0.1505
     15  NAO       -3.0680    6.8150   14.7030 N.pl3 263  D04263     -0.0446
     16  CAP       -3.0100    3.5050   15.2240 C.ar  263  D04263      0.1859
     17  CAQ       -5.1250    4.4510   14.6420 C.ar  263  D04263      0.1859
     18  CAR       -3.6820    2.4200   15.8490 C.ar  263  D04263      0.1896
     19  CAS       -5.7860    3.3970   15.2840 C.ar  263  D04263      0.1896
     20  CAT       -1.7730    7.0890   12.9660 C.2   263  D04263      0.0788
     21  CAU       -3.7290    4.4980   14.5990 C.ar  263  D04263      0.1281
     22  CAV       -5.0960    2.3540   15.8810 C.ar  263  D04263      0.1841
     23  CAW       -0.8560    7.7610   11.9920 C.3   263  D04263      0.0395
     24  NAX       -3.0270    5.6310   14.0410 N.pl3 263  D04263     -0.1928
     25  SAY       -5.9190    0.9920   16.7600 S.O2  263  D04263      0.0980
@<TRIPOS>BOND
     1    10    12    1
     2    10     9    1
     3    12    23    1
     4    23    13    1
     5    23    20    1
     6     9    11    1
     7    13    11    1
     8    20     8    1
     9    20    14    2
    10     8    24    1
    11    14    15    1
    12    24    21    1
    13    24    15    1
    14     5    17    1
    15    21    17   ar
    16    21    16   ar
    17    17    19   ar
    18     4    16    1
    19    16    18   ar
    20     7    19    1
    21    19    22   ar
    22    18    22   ar
    23    18     6    1
    24    22    25    1
    25     1    25    1
    26     3    25    2
    27    25     2    2
