@<TRIPOS>MOLECULE
3p2b_P2B_A_1.pdb
 26 29 0 0 0
SMALL
GASTEIGER

@<TRIPOS>ATOM
      1  C1        20.6150   14.0030   20.8350 C.2     1  P2B1        0.2009
      2  N2        20.1740   15.2740   20.4650 N.pl3   1  P2B1       -0.1845
      3  C4        18.9490   15.9420   20.5530 C.ar    1  P2B1        0.0919
      4  N5        19.6760   13.2350   21.4100 N.2     1  P2B1       -0.3151
      5  C6        19.9930   11.9980   21.8170 C.1     1  P2B1        0.2036
      6  N7        19.0180   11.2330   22.4040 N.pl3   1  P2B1       -0.2290
      7  N8        21.2250   11.4940   21.6700 N.2     1  P2B1       -0.3321
      8  C9        22.1730   12.2610   21.0930 C.2     1  P2B1        0.1312
      9  C10       23.4980   11.6210   20.9650 C.ar    1  P2B1        0.0300
     10  C11       21.9010   13.5430   20.6570 C.3     1  P2B1        0.1375
     11  C13       17.7210   15.3030   20.7390 C.ar    1  P2B1        0.0198
     12  C15       16.5400   16.0400   20.8210 C.ar    1  P2B1        0.0220
     13  C17       16.6190   17.4170   20.7160 C.ar    1  P2B1        0.0990
     14  N19       17.7760   18.0880   20.5380 N.ar    1  P2B1       -0.2410
     15  C20       18.9020   17.3350   20.4610 C.ar    1  P2B1        0.1154
     16  C22       17.6030   11.5570   22.2450 C.3     1  P2B1        0.1352
     17  C25       16.8960   11.5020   23.6010 C.3     1  P2B1        0.1644
     18  O28       17.1550   10.2580   24.2620 O.3     1  P2B1       -0.3501
     19  C29       18.5560   10.1120   24.5190 C.3     1  P2B1        0.1644
     20  C32       19.3530   10.0660   23.2130 C.3     1  P2B1        0.1352
     21  C35       24.3600   11.9560   19.9020 C.ar    1  P2B1        0.0025
     22  C37       25.6130   11.3510   19.7610 C.ar    1  P2B1        0.0034
     23  C39       26.0230   10.3860   20.6750 C.ar    1  P2B1        0.0420
     24  C41       25.1810   10.0330   21.7230 C.ar    1  P2B1        0.1958
     25  O42       25.6200    9.0820   22.5980 O.3     1  P2B1       -0.2866
     26  C44       23.9310   10.6330   21.8720 C.ar    1  P2B1        0.0443
@<TRIPOS>BOND
     1    22    21   ar
     2    22    23   ar
     3    21     9   ar
     4    15    14   ar
     5    15     3   ar
     6     2     3    1
     7     2     1    1
     8    14    13   ar
     9     3    11   ar
    10    10     1    1
    11    10     8    1
    12    23    24   ar
    13    13    12   ar
    14    11    12   ar
    15     1     4    2
    16     9     8    1
    17     9    26   ar
    18     8     7    2
    19     4     5    2
    20     7     5    2
    21    24    26   ar
    22    24    25    1
    23     5     6    1
    24    16     6    1
    25    16    17    1
    26     6    20    1
    27    20    19    1
    28    17    18    1
    29    18    19    1
