@<TRIPOS>MOLECULE
3p2e_SAH_A_1.pdb
 26 28 0 0 0
SMALL
GASTEIGER

@<TRIPOS>ATOM
      1  N         10.3760    8.8670    2.8770 N.3   6732  SAH6732    -0.1159
      2  CA        11.4310    9.6150    2.4340 C.3   6732  SAH6732     0.2168
      3  CB        10.9290   10.7780    1.5740 C.2   6732  SAH6732     0.0105
      4  CG        11.8990   11.4510    0.6490 C.2   6732  SAH6732     0.0284
      5  SD        11.2960   12.7830   -0.3350 S.3   6732  SAH6732    -0.1108
      6  C         12.3280   10.0360    3.6780 C.2   6732  SAH6732     0.3860
      7  O         13.4040   10.1580    3.2680 O.co2 6732  SAH6732    -0.2437
      8  OXT       11.9490   10.1940    4.7500 O.co2 6732  SAH6732    -0.2437
      9  C5'        9.7410   12.3670   -1.1350 C.3   6732  SAH6732     0.0945
     10  C4'        9.9310   10.9770   -1.9020 C.3   6732  SAH6732     0.1634
     11  O4'        8.5970   10.7010   -2.3490 O.3   6732  SAH6732    -0.3152
     12  C3'       10.8320   11.0260   -3.1190 C.3   6732  SAH6732     0.2168
     13  O3'       11.8980   10.0300   -3.0150 O.3   6732  SAH6732    -0.2175
     14  C2'        9.8550   10.8250   -4.3350 C.3   6732  SAH6732     0.2569
     15  O2'       10.3830   10.1440   -5.4520 O.3   6732  SAH6732    -0.2130
     16  C1'        8.6730   10.0850   -3.6730 C.3   6732  SAH6732     0.3185
     17  N9         7.3490   10.2710   -4.3890 N.pl3 6732  SAH6732    -0.1439
     18  C8         6.7920   11.4800   -4.8290 C.3   6732  SAH6732     0.3377
     19  N7         5.6510   11.3120   -5.4730 N.2   6732  SAH6732    -0.2095
     20  C5         5.4880    9.8870   -5.4260 C.2   6732  SAH6732     0.2526
     21  C6         4.3980    9.1340   -5.9840 C.2   6732  SAH6732     0.4393
     22  N6         3.3710    9.7240   -6.6400 N.pl3 6732  SAH6732     0.2180
     23  N1         4.4980    7.7670   -5.7900 N.2   6732  SAH6732     0.0021
     24  C2         5.5640    7.1660   -5.1090 C.3   6732  SAH6732     0.5254
     25  N3         6.6140    7.9060   -4.5730 N.2   6732  SAH6732    -0.0055
     26  C4         6.4880    9.2570   -4.7830 C.2   6732  SAH6732     0.3518
@<TRIPOS>BOND
     1    22    21    1
     2    21    23    2
     3    21    20    1
     4    23    24    1
     5    19    20    2
     6    19    18    1
     7    15    14    1
     8    20    26    1
     9    24    25    1
    10    18    17    1
    11    26    25    2
    12    26    17    1
    13    17    16    1
    14    14    16    1
    15    14    12    1
    16    16    11    1
    17    12    13    1
    18    12    10    1
    19    11    10    1
    20    10     9    1
    21     9     5    1
    22     5     4    1
    23     4     3    2
    24     3     2    1
    25     2     1    1
    26     2     6    1
    27     7     6   ar
    28     6     8   ar
