@<TRIPOS>MOLECULE
3p2h_MTA_A_1.pdb
 20 22 0 0 0
SMALL
GASTEIGER

@<TRIPOS>ATOM
      1  CS         0.0190   74.2890   57.0890 C.3   204  MTA204      0.0693
      2  S5'        0.0570   75.1620   58.6830 S.3   204  MTA204     -0.1367
      3  C5'        1.8370   75.4920   58.8560 C.3   204  MTA204      0.0899
      4  C4'        2.5350   74.4570   59.7410 C.3   204  MTA204      0.1630
      5  O4'        2.3930   73.1590   59.0990 O.3   204  MTA204     -0.3153
      6  C2'        4.6940   73.5780   59.1070 C.3   204  MTA204      0.2569
      7  O2'        6.0190   73.2670   59.5490 O.3   204  MTA204     -0.2130
      8  C3'        4.0280   74.8030   59.8270 C.3   204  MTA204      0.2168
      9  O3'        4.4270   74.8220   61.2030 O.3   204  MTA204     -0.2175
     10  C1'        3.6500   72.4670   59.3220 C.3   204  MTA204      0.3185
     11  N9         3.7690   71.3800   58.3280 N.pl3 204  MTA204     -0.1439
     12  C8         3.6560   71.4820   56.9620 C.3   204  MTA204      0.3377
     13  N7         3.8130   70.3270   56.3910 N.2   204  MTA204     -0.2095
     14  C5         4.0370   69.3930   57.3520 C.2   204  MTA204      0.2526
     15  C6         4.2760   67.9780   57.3570 C.2   204  MTA204      0.4393
     16  N6         4.3130   67.2770   56.1650 N.pl3 204  MTA204      0.2180
     17  N1         4.4650   67.3390   58.5580 N.2   204  MTA204      0.0021
     18  C2         4.4330   68.0100   59.7470 C.3   204  MTA204      0.5254
     19  N3         4.2070   69.3570   59.7530 N.2   204  MTA204     -0.0055
     20  C4         4.0100   70.0700   58.6190 C.2   204  MTA204      0.3518
@<TRIPOS>BOND
     1    16    15    1
     2    13    12    1
     3    13    14    2
     4    12    11    1
     5     1     2    1
     6    14    15    1
     7    14    20    1
     8    15    17    2
     9    11    20    1
    10    11    10    1
    11    17    18    1
    12    20    19    2
    13     2     3    1
    14     3     4    1
    15     5    10    1
    16     5     4    1
    17     6    10    1
    18     6     7    1
    19     6     8    1
    20     4     8    1
    21    18    19    1
    22     8     9    1
