@<TRIPOS>MOLECULE
3p2h_NOO_A_1.pdb
 17 17 0 0 0
SMALL
GASTEIGER

@<TRIPOS>ATOM
      1  C1         0.2140   82.0400   52.3690 C.2   300  NOO300      0.1741
      2  O1        -0.2360   83.1280   52.7140 O.2   300  NOO300     -0.2913
      3  C2        -0.6390   80.7780   52.3340 C.2   300  NOO300      0.0496
      4  C3        -0.0970   79.5050   52.5560 C.2   300  NOO300      0.0539
      5  C4         1.4400   79.3900   52.6220 C.3   300  NOO300      0.0438
      6  C5         2.2210   80.4590   51.7590 C.3   300  NOO300      0.0142
      7  C6         1.7210   81.9200   51.9800 C.3   300  NOO300      0.0696
      8  N7        -0.8660   78.2790   52.7410 N.am  300  NOO300     -0.1835
      9  C8        -0.7680   76.9490   52.2540 C.2   300  NOO300      0.2453
     10  O8         0.2460   76.2600   52.3080 O.2   300  NOO300     -0.2730
     11  C9        -2.0010   76.2790   51.6080 C.3   300  NOO300      0.0872
     12  C10       -3.4030   76.9270   51.7470 C.3   300  NOO300      0.0096
     13  C11       -4.4940   75.8230   51.6910 C.3   300  NOO300      0.0005
     14  C12       -5.7450   76.2630   50.9100 C.3   300  NOO300      0.0000
     15  C13       -6.8520   75.1890   50.9850 C.3   300  NOO300      0.0000
     16  C14       -8.2570   75.8190   50.9430 C.3   300  NOO300      0.0000
     17  C15       -9.3480   74.7560   50.7810 C.3   300  NOO300      0.0000
@<TRIPOS>BOND
     1    17    16    1
     2    14    15    1
     3    14    13    1
     4    16    15    1
     5    11    12    1
     6    11     9    1
     7    13    12    1
     8     6     7    1
     9     6     5    1
    10     7     1    1
    11     9    10    2
    12     9     8   am
    13     3     1    1
    14     3     4    2
    15     1     2    2
    16     4     5    1
    17     4     8    1
