@<TRIPOS>MOLECULE
3p2k_SAM_A_1.pdb
 27 29 0 0 0
SMALL
GASTEIGER

@<TRIPOS>ATOM
      1  N          9.6750   -5.6230    2.9260 N.3   6735  SAM6735    -0.1208
      2  CA         9.6010   -4.8190    1.6890 C.3   6735  SAM6735     0.1952
      3  C         10.9750   -4.4130    1.2720 C.2   6735  SAM6735     0.3819
      4  O         11.9340   -4.6880    2.0130 O.co2 6735  SAM6735    -0.2441
      5  OXT       11.1170   -3.7580    0.2320 O.co2 6735  SAM6735    -0.2441
      6  CB         9.0650   -3.4510    1.9950 C.3   6735  SAM6735     0.0414
      7  CG         8.2430   -3.2970    3.2430 C.3   6735  SAM6735     0.0503
      8  SD         7.4900   -1.6460    3.1610 S.3   6735  SAM6735    -0.1761
      9  CE         8.8630   -0.6120    3.7110 C.3   6735  SAM6735     0.0590
     10  C5'        6.7190   -1.8550    4.7660 C.3   6735  SAM6735     0.0806
     11  C4'        5.8630   -3.0910    4.6040 C.3   6735  SAM6735     0.1622
     12  O4'        5.6730   -3.6010    5.8940 O.3   6735  SAM6735    -0.3153
     13  C3'        4.4910   -2.7280    4.0330 C.3   6735  SAM6735     0.2168
     14  O3'        4.1530   -3.5090    2.9020 O.3   6735  SAM6735    -0.2175
     15  C2'        3.5100   -3.0430    5.1370 C.3   6735  SAM6735     0.2569
     16  O2'        2.4540   -3.7810    4.5880 O.3   6735  SAM6735    -0.2130
     17  C1'        4.3210   -3.9890    5.9750 C.3   6735  SAM6735     0.3185
     18  N9         3.8530   -4.0820    7.3460 N.pl3 6735  SAM6735    -0.1439
     19  C8         3.8330   -3.1450    8.3340 C.3   6735  SAM6735     0.3377
     20  N7         3.2990   -3.7260    9.4600 N.2   6735  SAM6735    -0.2095
     21  C5         2.9980   -5.0240    9.1770 C.2   6735  SAM6735     0.2526
     22  C6         2.4620   -6.0640    9.9240 C.2   6735  SAM6735     0.4393
     23  N6         2.1240   -5.8990   11.2020 N.pl3 6735  SAM6735     0.2180
     24  N1         2.2770   -7.2950    9.3420 N.2   6735  SAM6735     0.0021
     25  C2         2.6320   -7.4950    8.0240 C.3   6735  SAM6735     0.5254
     26  N3         3.1700   -6.4640    7.2750 N.2   6735  SAM6735    -0.0055
     27  C4         3.3540   -5.2530    7.8530 C.2   6735  SAM6735     0.3518
@<TRIPOS>BOND
     1     5     3   ar
     2     3     2    1
     3     3     4   ar
     4     2     6    1
     5     2     1    1
     6     6     7    1
     7    14    13    1
     8     8     7    1
     9     8     9    1
    10     8    10    1
    11    13    11    1
    12    13    15    1
    13    16    15    1
    14    11    10    1
    15    11    12    1
    16    15    17    1
    17    12    17    1
    18    17    18    1
    19    26    27    2
    20    26    25    1
    21    18    27    1
    22    18    19    1
    23    27    21    1
    24    25    24    1
    25    19    20    1
    26    21    20    2
    27    21    22    1
    28    24    22    2
    29    22    23    1
