@<TRIPOS>MOLECULE
3p2o_NAD_A_1.pdb
 44 48 0 0 0
SMALL
GASTEIGER

@<TRIPOS>ATOM
      1  PA        26.8020  -33.8370  -20.0880 P.3   291  NAD291      0.2189
      2  O1A       27.3290  -34.0280  -21.5010 O.2   291  NAD291     -0.5170
      3  O2A       26.3570  -35.1740  -19.5270 O.3   291  NAD291     -0.4371
      4  O5B       27.9490  -33.1950  -19.2450 O.3   291  NAD291     -0.3112
      5  C5B       28.0300  -33.3600  -17.8580 C.3   291  NAD291      0.1813
      6  C4B       29.2160  -32.7740  -17.2410 C.3   291  NAD291      0.1821
      7  O4B       29.0070  -32.6030  -15.8640 O.3   291  NAD291     -0.3135
      8  C3B       30.3490  -33.7190  -17.4440 C.3   291  NAD291      0.2184
      9  O3B       31.5440  -32.9870  -17.5910 O.3   291  NAD291     -0.2174
     10  C2B       30.3220  -34.4530  -16.2530 C.3   291  NAD291      0.2570
     11  O2B       31.5260  -35.0730  -15.9340 O.3   291  NAD291     -0.2130
     12  C1B       29.8790  -33.4610  -15.2190 C.3   291  NAD291      0.3186
     13  N9A       29.2190  -34.0680  -14.0560 N.pl3 291  NAD291     -0.1439
     14  C8A       28.2090  -34.9710  -14.0610 C.3   291  NAD291      0.3377
     15  N7A       27.9460  -35.3560  -12.7970 N.2   291  NAD291     -0.2095
     16  C5A       28.7930  -34.6910  -11.9800 C.2   291  NAD291      0.2526
     17  C6A       29.0120  -34.6420  -10.6010 C.2   291  NAD291      0.4393
     18  N6A       28.2640  -35.4710   -9.7210 N.pl3 291  NAD291      0.2180
     19  N1A       29.9580  -33.8500  -10.1000 N.2   291  NAD291      0.0021
     20  C2A       30.7210  -33.0920  -10.8940 C.3   291  NAD291      0.5254
     21  N3A       30.5410  -33.1010  -12.2220 N.2   291  NAD291     -0.0055
     22  C4A       29.6050  -33.8810  -12.7860 C.2   291  NAD291      0.3518
     23  O3        25.5580  -32.8800  -20.1190 O.3   291  NAD291     -0.2703
     24  PN        25.3630  -31.4040  -20.6900 P.3   291  NAD291      0.2189
     25  O1N       26.5950  -30.5520  -20.4490 O.3   291  NAD291     -0.4371
     26  O2N       24.8870  -31.3840  -22.1240 O.2   291  NAD291     -0.5170
     27  O5D       24.2360  -30.7540  -19.7930 O.3   291  NAD291     -0.3112
     28  C5D       24.2930  -30.7710  -18.3810 C.3   291  NAD291      0.1813
     29  C4D       23.0210  -30.2750  -17.7300 C.3   291  NAD291      0.1799
     30  O4D       22.5760  -29.0780  -18.3540 O.3   291  NAD291     -0.3327
     31  C3D       21.9690  -31.3300  -18.0030 C.3   291  NAD291      0.2158
     32  O3D       21.0930  -31.3530  -16.9080 O.3   291  NAD291     -0.2175
     33  C2D       21.2730  -30.7950  -19.2580 C.3   291  NAD291      0.2309
     34  O2D       19.9490  -31.2540  -19.3380 O.3   291  NAD291     -0.2158
     35  C1D       21.3160  -29.2990  -18.9770 C.3   291  NAD291      0.2263
     36  N1N       21.1590  -28.4700  -20.2010 N.pl3 291  NAD291     -0.2787
     37  C2N       20.2100  -27.4770  -20.2040 C.3   291  NAD291      0.1244
     38  C3N       19.8340  -26.8720  -21.4030 C.2   291  NAD291      0.0544
     39  C7N       18.5560  -26.0640  -21.4590 C.2   291  NAD291      0.2818
     40  O7N       17.8060  -25.9550  -22.6590 O.2   291  NAD291     -0.2670
     41  N7N       18.1760  -25.4270  -20.3570 N.am  291  NAD291     -0.0839
     42  C4N       20.7610  -26.8690  -22.4550 C.2   291  NAD291      0.0033
     43  C5N       21.9420  -27.6030  -22.2940 C.2   291  NAD291      0.0157
     44  C6N       22.0180  -28.5610  -21.2740 C.2   291  NAD291      0.0633
@<TRIPOS>BOND
     1    40    39    2
     2    42    43    1
     3    42    38    2
     4    43    44    2
     5    26    24    2
     6     2     1    2
     7    39    38    1
     8    39    41   am
     9    38    37    1
    10    44    36    1
    11    24    25    1
    12    24    23    1
    13    24    27    1
    14    37    36    1
    15    36    35    1
    16    23     1    1
    17     1     3    1
    18     1     4    1
    19    27    28    1
    20    34    33    1
    21    33    35    1
    22    33    31    1
    23     4     5    1
    24    35    30    1
    25    28    29    1
    26    30    29    1
    27    31    29    1
    28    31    32    1
    29     5     6    1
    30     9     8    1
    31     8     6    1
    32     8    10    1
    33     6     7    1
    34    10    11    1
    35    10    12    1
    36     7    12    1
    37    12    13    1
    38    14    13    1
    39    14    15    1
    40    13    22    1
    41    15    16    2
    42    22    21    2
    43    22    16    1
    44    21    20    1
    45    16    17    1
    46    20    19    1
    47    17    19    2
    48    17    18    1
