@<TRIPOS>MOLECULE
3p2v_DOY_A_1.pdb
 22 24 0 0 0
SMALL
GASTEIGER

@<TRIPOS>ATOM
      1  C1        18.8920    8.1120  -13.2670 C.ar  600  DOY600      0.0006
      2  C2        20.0810    8.4830  -12.6530 C.ar  600  DOY600      0.0074
      3  C3        20.2120    9.7460  -12.0300 C.ar  600  DOY600      0.0392
      4  S4        21.7630   10.0830  -11.2950 S.3   600  DOY600     -0.1083
      5  C5        21.2220   10.3230   -9.5920 C.3   600  DOY600      0.0832
      6  C6        21.7600    9.2160   -8.6430 C.ar  600  DOY600     -0.0117
      7  C7        22.2260    9.5710   -7.3650 C.ar  600  DOY600     -0.0034
      8  C8        22.7160    8.6090   -6.4800 C.ar  600  DOY600     -0.0003
      9  C9        22.7490    7.2580   -6.8710 C.ar  600  DOY600     -0.0000
     10  C10       22.2860    6.9000   -8.1470 C.ar  600  DOY600     -0.0003
     11  C11       21.7930    7.8700   -9.0380 C.ar  600  DOY600     -0.0034
     12  C12       19.7590   10.6560   -9.6360 C.3   600  DOY600      0.1011
     13  C13       19.6580   11.9240  -10.1570 C.2   600  DOY600      0.2310
     14  O14       19.7260   12.9530   -9.5210 O.2   600  DOY600     -0.2745
     15  N15       19.2700   11.8730  -11.4110 N.am  600  DOY600     -0.2474
     16  C16       18.6710   13.0740  -11.9930 C.3   600  DOY600      0.2125
     17  C17       17.3260   13.4590  -11.4360 C.2   600  DOY600      0.3851
     18  O18       16.5820   12.4360  -11.0000 O.co2 600  DOY600     -0.2437
     19  O19       16.9090   14.6160  -11.3740 O.co2 600  DOY600     -0.2437
     20  C20       19.1610   10.6510  -12.0150 C.ar  600  DOY600      0.0600
     21  C21       17.9720   10.2660  -12.6380 C.ar  600  DOY600      0.0154
     22  C22       17.8170    9.0230  -13.2620 C.ar  600  DOY600      0.0013
@<TRIPOS>BOND
     1     1    22   ar
     2     1     2   ar
     3    22    21   ar
     4     2     3   ar
     5    21    20   ar
     6     3    20   ar
     7     3     4    1
     8    20    15    1
     9    16    17    1
    10    16    15    1
    11    17    19   ar
    12    17    18   ar
    13    15    13   am
    14     4     5    1
    15    13    12    1
    16    13    14    2
    17    12     5    1
    18     5     6    1
    19    11     6   ar
    20    11    10   ar
    21     6     7   ar
    22    10     9   ar
    23     7     8   ar
    24     9     8   ar
