@<TRIPOS>MOLECULE
3p2v_NAP_A_1.pdb
 48 52 0 0 0
SMALL
GASTEIGER

@<TRIPOS>ATOM
      1  PA        21.6830   21.0550  -18.7450 P.3   500  NAP500      0.2189
      2  O1A       21.0800   20.7940  -20.0660 O.2   500  NAP500     -0.5170
      3  O2A       21.2440   22.2490  -17.9930 O.3   500  NAP500     -0.4371
      4  O5B       23.2850   21.1420  -18.9860 O.3   500  NAP500     -0.3112
      5  C5B       24.1280   21.4870  -17.9010 C.3   500  NAP500      0.1813
      6  C4B       25.5520   21.3160  -18.5440 C.3   500  NAP500      0.1820
      7  O4B       25.7170   22.3570  -19.4520 O.3   500  NAP500     -0.3136
      8  C3B       26.6680   21.5290  -17.4860 C.3   500  NAP500      0.2157
      9  O3B       27.7140   20.6430  -17.8180 O.3   500  NAP500     -0.2175
     10  C2B       27.0230   23.0100  -17.6890 C.3   500  NAP500      0.2314
     11  O2B       28.3940   23.2080  -17.3200 O.3   500  NAP500     -0.2630
     12  C1B       26.7930   23.1830  -19.1800 C.3   500  NAP500      0.3158
     13  N9A       26.5050   24.5570  -19.4580 N.pl3 500  NAP500     -0.1439
     14  C8A       25.6300   25.4630  -18.8670 C.3   500  NAP500      0.3377
     15  N7A       25.5610   26.6230  -19.4730 N.2   500  NAP500     -0.2095
     16  C5A       26.4400   26.4750  -20.5200 C.2   500  NAP500      0.2526
     17  C6A       26.7620   27.4340  -21.5160 C.2   500  NAP500      0.4393
     18  N6A       26.2680   28.6580  -21.6050 N.pl3 500  NAP500      0.2180
     19  N1A       27.7040   27.0110  -22.4650 N.2   500  NAP500      0.0021
     20  C2A       28.2800   25.7260  -22.4450 C.3   500  NAP500      0.5254
     21  N3A       27.9430   24.8100  -21.4650 N.2   500  NAP500     -0.0055
     22  C4A       27.0070   25.2260  -20.5080 C.2   500  NAP500      0.3518
     23  O3        21.6470   19.7170  -17.8620 O.3   500  NAP500     -0.2703
     24  PN        20.8950   19.1730  -16.5600 P.3   500  NAP500      0.2189
     25  O1N       21.6570   19.4760  -15.3380 O.3   500  NAP500     -0.4371
     26  O2N       20.6190   17.7260  -16.8610 O.2   500  NAP500     -0.5170
     27  O5D       19.4240   19.8080  -16.6080 O.3   500  NAP500     -0.3112
     28  C5D       19.1130   21.1360  -16.0710 C.3   500  NAP500      0.1813
     29  C4D       18.5040   20.9520  -14.6870 C.3   500  NAP500      0.1799
     30  O4D       17.2060   20.2520  -14.8010 O.3   500  NAP500     -0.3327
     31  C3D       19.2370   20.0710  -13.6300 C.3   500  NAP500      0.2158
     32  O3D       20.4140   20.5950  -13.0390 O.3   500  NAP500     -0.2175
     33  C2D       18.0690   19.7460  -12.6660 C.3   500  NAP500      0.2309
     34  O2D       17.8660   20.8830  -11.8180 O.3   500  NAP500     -0.2158
     35  C1D       16.9130   19.5150  -13.5970 C.3   500  NAP500      0.2263
     36  N1N       16.6720   18.0700  -14.0510 N.pl3 500  NAP500     -0.2787
     37  C2N       15.5460   17.4320  -13.5110 C.3   500  NAP500      0.1244
     38  C3N       15.4020   16.0400  -13.7330 C.2   500  NAP500      0.0544
     39  C7N       14.1790   15.2790  -13.1760 C.2   500  NAP500      0.2818
     40  O7N       14.2370   14.0510  -13.1560 O.2   500  NAP500     -0.2670
     41  N7N       13.1950   16.0600  -12.7830 N.am  500  NAP500     -0.0839
     42  C4N       16.3780   15.3070  -14.4830 C.2   500  NAP500      0.0033
     43  C5N       17.5070   15.9950  -15.0150 C.2   500  NAP500      0.0157
     44  C6N       17.6710   17.3910  -14.8180 C.2   500  NAP500      0.0633
     45  P2B       28.9100   23.9630  -15.9800 P.3   500  NAP500      0.5328
     46  O1X       29.0560   25.4400  -16.4180 O.2   500  NAP500     -0.2224
     47  O2X       27.9090   23.7370  -14.9040 O.3   500  NAP500     -0.1145
     48  O3X       30.2430   23.2490  -15.6850 O.3   500  NAP500     -0.1145
@<TRIPOS>BOND
     1    19    20    1
     2    19    17    2
     3    20    21    1
     4    18    17    1
     5    17    16    1
     6    21    22    2
     7    16    22    1
     8    16    15    2
     9    22    13    1
    10     2     1    2
    11    15    14    1
    12    13    12    1
    13    13    14    1
    14     7    12    1
    15     7     6    1
    16    12    10    1
    17     4     1    1
    18     4     5    1
    19     1     3    1
    20     1    23    1
    21     6     5    1
    22     6     8    1
    23    23    24    1
    24     9     8    1
    25    10     8    1
    26    10    11    1
    27    11    45    1
    28    26    24    2
    29    27    24    1
    30    27    28    1
    31    24    25    1
    32    46    45    2
    33    28    29    1
    34    45    48    1
    35    45    47    1
    36    43    44    2
    37    43    42    1
    38    44    36    1
    39    30    29    1
    40    30    35    1
    41    29    31    1
    42    42    38    2
    43    36    35    1
    44    36    37    1
    45    38    37    1
    46    38    39    1
    47    31    32    1
    48    31    33    1
    49    35    33    1
    50    39    40    2
    51    39    41   am
    52    33    34    1
