@<TRIPOS>MOLECULE
3p32_GDP_A_1.pdb
 28 30 0 0 0
SMALL
GASTEIGER

@<TRIPOS>ATOM
      1  PB        22.8960   37.5540  -15.1850 P.3   335  GDP335      0.5373
      2  O1B       23.3510   36.5730  -14.1360 O.3   335  GDP335     -0.1143
      3  O2B       23.0070   36.9080  -16.5410 O.2   335  GDP335     -0.2221
      4  O3B       21.4040   37.8380  -15.0010 O.3   335  GDP335     -0.1143
      5  O3A       23.6130   38.9750  -15.1790 O.3   335  GDP335     -0.2261
      6  PA        25.0700   39.3210  -14.5500 P.3   335  GDP335      0.2231
      7  O1A       26.0730   38.2970  -15.0160 O.2   335  GDP335     -0.5169
      8  O2A       25.0020   39.4920  -13.0560 O.3   335  GDP335     -0.4370
      9  O5'       25.2860   40.7270  -15.2440 O.3   335  GDP335     -0.3111
     10  C5'       25.4160   40.7800  -16.6680 C.3   335  GDP335      0.1813
     11  C4'       26.1180   42.0820  -17.0060 C.3   335  GDP335      0.1799
     12  O4'       25.3290   43.1550  -16.4740 O.3   335  GDP335     -0.3326
     13  C3'       27.4960   42.2030  -16.3600 C.3   335  GDP335      0.2158
     14  O3'       28.3150   43.0270  -17.1950 O.3   335  GDP335     -0.2175
     15  C2'       27.2310   42.9780  -15.0860 C.3   335  GDP335      0.2310
     16  O2'       28.3800   43.7090  -14.6360 O.3   335  GDP335     -0.2158
     17  C1'       26.0970   43.8970  -15.5230 C.3   335  GDP335      0.2293
     18  N9        25.2910   44.3460  -14.3550 N.pl3 335  GDP335     -0.2354
     19  C8        24.8290   43.5910  -13.3280 C.3   335  GDP335      0.2246
     20  N7        24.1410   44.3600  -12.4420 N.2   335  GDP335     -0.2322
     21  C5        24.1590   45.6290  -12.9060 C.2   335  GDP335      0.2182
     22  C6        23.6450   46.9430  -12.4690 C.1   335  GDP335      0.2372
     23  O6        22.9830   47.0650  -11.4060 O.2   335  GDP335     -0.2069
     24  N1        23.9040   48.0070  -13.2580 N.2   335  GDP335     -0.2485
     25  C2        24.6100   47.9350  -14.4120 C.1   335  GDP335      0.2531
     26  N2        24.8040   49.0640  -15.1420 N.pl3 335  GDP335     -0.0226
     27  N3        25.1110   46.7650  -14.8690 N.2   335  GDP335     -0.3074
     28  C4        24.9180   45.6110  -14.1720 C.2   335  GDP335      0.2300
@<TRIPOS>BOND
     1    14    13    1
     2    11    10    1
     3    11    12    1
     4    11    13    1
     5    10     9    1
     6     3     1    2
     7    12    17    1
     8    13    15    1
     9    17    15    1
    10    17    18    1
    11     9     6    1
    12     1     5    1
    13     1     4    1
    14     1     2    1
    15     5     6    1
    16    26    25    1
    17    15    16    1
    18     7     6    2
    19    27    25    2
    20    27    28    2
    21     6     8    1
    22    25    24    2
    23    18    28    1
    24    18    19    1
    25    28    21    1
    26    19    20    1
    27    24    22    2
    28    21    22    1
    29    21    20    2
    30    22    23    2
