@<TRIPOS>MOLECULE
3p3c_3P3_A_1.pdb
 27 28 0 0 0
SMALL
GASTEIGER

@<TRIPOS>ATOM
      1  O01      -18.0360   15.7110  -18.7160 O.2   501  3P3501     -0.5379
      2  C02      -17.3200   15.4140  -19.6730 C.2   501  3P3501      0.1093
      3  N03      -17.7470   15.8350  -20.9130 N.am  501  3P3501     -0.2011
      4  O04      -18.9410   16.4350  -20.8510 O.3   501  3P3501     -0.4026
      5  C05      -15.9810   14.7300  -19.5780 C.3   501  3P3501      0.1704
      6  N06      -15.1350   15.4870  -18.7150 N.am  501  3P3501     -0.1943
      7  C07      -13.7520   15.6800  -18.9910 C.2   501  3P3501      0.2652
      8  O08      -13.2430   15.0770  -19.8520 O.2   501  3P3501     -0.2684
      9  C09      -12.9270   16.4370  -17.9830 C.ar  501  3P3501      0.0551
     10  C10      -13.5540   17.0140  -16.8830 C.ar  501  3P3501      0.0052
     11  C11      -12.8050   17.6320  -15.8850 C.ar  501  3P3501      0.0084
     12  C12      -11.4180   17.6970  -15.9760 C.ar  501  3P3501      0.0426
     13  C13      -10.7870   17.1340  -17.0840 C.ar  501  3P3501      0.0084
     14  C14      -11.5390   16.5140  -18.0860 C.ar  501  3P3501      0.0052
     15  C15      -10.6560   18.1760  -14.8160 C.1   501  3P3501     -0.0512
     16  C16      -10.0420   18.5580  -13.8770 C.1   501  3P3501     -0.0092
     17  C17       -9.3620   18.9330  -12.7700 C.1   501  3P3501     -0.0092
     18  C18       -8.7750   19.2290  -11.7770 C.1   501  3P3501     -0.0512
     19  C19       -8.0750   19.5820  -10.5930 C.ar  501  3P3501      0.0426
     20  C20       -8.7060   19.5000   -9.3570 C.ar  501  3P3501      0.0083
     21  C21       -8.0160   19.8500   -8.2010 C.ar  501  3P3501      0.0006
     22  C22       -6.6970   20.2810   -8.2820 C.ar  501  3P3501      0.0000
     23  C23       -6.0660   20.3630   -9.5180 C.ar  501  3P3501      0.0006
     24  C24       -6.7550   20.0140  -10.6730 C.ar  501  3P3501      0.0083
     25  C25      -16.1670   13.2570  -19.2040 C.3   501  3P3501      0.1779
     26  C26      -16.5790   13.2310  -17.7060 C.3   501  3P3501      0.0378
     27  O27      -17.1820   12.6850  -20.0630 O.3   501  3P3501     -0.2209
@<TRIPOS>BOND
     1     3     4    1
     2     3     2   am
     3    27    25    1
     4     8     7    2
     5     2     5    1
     6     2     1    2
     7     5    25    1
     8     5     6    1
     9    25    26    1
    10     7     6   am
    11     7     9    1
    12    14     9   ar
    13    14    13   ar
    14     9    10   ar
    15    13    12   ar
    16    10    11   ar
    17    12    11   ar
    18    12    15    1
    19    15    16    3
    20    16    17    1
    21    17    18    3
    22    18    19    1
    23    24    19   ar
    24    24    23   ar
    25    19    20   ar
    26    23    22   ar
    27    20    21   ar
    28    22    21   ar
