@<TRIPOS>MOLECULE
3p3e_3P3_A_1.pdb
 27 28 0 0 0
SMALL
GASTEIGER

@<TRIPOS>ATOM
      1  O01      -22.1860   10.4250   -8.0330 O.2   501  3P3501     -0.5379
      2  C02      -23.2120    9.7710   -7.9090 C.2   501  3P3501      0.1093
      3  N03      -23.1070    8.4040   -7.5480 N.am  501  3P3501     -0.2011
      4  O04      -21.8990    7.9580   -7.3380 O.3   501  3P3501     -0.4026
      5  C05      -24.5160   10.4050   -8.2740 C.3   501  3P3501      0.1704
      6  N06      -24.7770   11.5270   -7.4000 N.am  501  3P3501     -0.1943
      7  C07      -26.0880   11.7060   -6.8110 C.2   501  3P3501      0.2652
      8  O08      -27.0140   10.9650   -7.1090 O.2   501  3P3501     -0.2684
      9  C09      -26.3030   12.9500   -5.9900 C.ar  501  3P3501      0.0551
     10  C10      -25.3760   14.0230   -6.1360 C.ar  501  3P3501      0.0052
     11  C11      -25.5720   15.2640   -5.3790 C.ar  501  3P3501      0.0084
     12  C12      -26.6850   15.3700   -4.5040 C.ar  501  3P3501      0.0426
     13  C13      -27.6290   14.2900   -4.3630 C.ar  501  3P3501      0.0084
     14  C14      -27.4370   13.0580   -5.1140 C.ar  501  3P3501      0.0052
     15  C15      -26.9010   16.5680   -3.7740 C.1   501  3P3501     -0.0512
     16  C16      -27.0890   17.5850   -3.1720 C.1   501  3P3501     -0.0092
     17  C17      -27.3080   18.7610   -2.5050 C.1   501  3P3501     -0.0092
     18  C18      -27.5020   19.7940   -1.9300 C.1   501  3P3501     -0.0512
     19  C19      -27.7380   21.0280   -1.2650 C.ar  501  3P3501      0.0426
     20  C20      -27.1800   22.2300   -1.7010 C.ar  501  3P3501      0.0083
     21  C21      -27.4420   23.4190   -1.0160 C.ar  501  3P3501      0.0006
     22  C22      -28.2660   23.4190    0.1060 C.ar  501  3P3501      0.0000
     23  C23      -28.8270   22.2250    0.5390 C.ar  501  3P3501      0.0006
     24  C24      -28.5640   21.0410   -0.1450 C.ar  501  3P3501      0.0083
     25  C25      -24.7440   10.6810   -9.7650 C.3   501  3P3501      0.1779
     26  C26      -23.7890   11.7920  -10.2430 C.3   501  3P3501      0.0378
     27  O27      -24.5050    9.4800  -10.5000 O.3   501  3P3501     -0.2209
@<TRIPOS>BOND
     1    27    25    1
     2    26    25    1
     3    25     5    1
     4     5     2    1
     5     5     6    1
     6     1     2    2
     7     2     3   am
     8     3     4    1
     9     6     7   am
    10     8     7    2
    11     7     9    1
    12    10     9   ar
    13    10    11   ar
    14     9    14   ar
    15    11    12   ar
    16    14    13   ar
    17    12    13   ar
    18    12    15    1
    19    15    16    3
    20    16    17    1
    21    17    18    3
    22    18    19    1
    23    20    19   ar
    24    20    21   ar
    25    19    24   ar
    26    21    22   ar
    27    24    23   ar
    28    22    23   ar
