@<TRIPOS>MOLECULE
3p3g_UKW_A_1.pdb
 19 19 0 0 0
SMALL
GASTEIGER

@<TRIPOS>ATOM
      1  O01       29.4390    2.9770   -7.6220 O.2   801  UKW801     -0.5379
      2  C02       30.4000    2.4480   -8.1860 C.2   801  UKW801      0.1093
      3  N03       30.2150    1.2430   -8.9290 N.am  801  UKW801     -0.2011
      4  O04       29.0190    0.6890   -8.9430 O.3   801  UKW801     -0.4026
      5  C05       31.6730    3.2430   -8.2570 C.3   801  UKW801      0.1704
      6  N06       32.6990    2.5260   -8.9980 N.am  801  UKW801     -0.1943
      7  C07       33.6460    1.6610   -8.3180 C.2   801  UKW801      0.2652
      8  O08       33.5650    1.4220   -7.1230 O.2   801  UKW801     -0.2684
      9  C09       34.8410    1.2390   -9.1270 C.ar  801  UKW801      0.0551
     10  C10       35.4840   -0.0060   -8.8890 C.ar  801  UKW801      0.0052
     11  C11       36.6850   -0.3350   -9.6660 C.ar  801  UKW801      0.0084
     12  C12       37.1920    0.5820  -10.6300 C.ar  801  UKW801      0.0426
     13  C13       36.5450    1.8380  -10.8470 C.ar  801  UKW801      0.0084
     14  C14       35.3500    2.1640  -10.0920 C.ar  801  UKW801      0.0052
     15  C15       38.3710    0.3180  -11.3850 C.1   801  UKW801     -0.0512
     16  C16       39.3730    0.0920  -12.0240 C.1   801  UKW801     -0.0092
     17  C25       31.5070    4.6960   -8.7020 C.3   801  UKW801      0.1779
     18  C26       32.8770    5.4100   -8.6900 C.3   801  UKW801      0.0378
     19  O27       30.9330    4.6930  -10.0130 O.3   801  UKW801     -0.2209
@<TRIPOS>BOND
     1    16    15    3
     2    15    12    1
     3    13    12   ar
     4    13    14   ar
     5    12    11   ar
     6    14     9   ar
     7    19    17    1
     8    11    10   ar
     9     9    10   ar
    10     9     7    1
    11     6     7   am
    12     6     5    1
    13     4     3    1
    14     3     2   am
    15    17    18    1
    16    17     5    1
    17     7     8    2
    18     5     2    1
    19     2     1    2
