@<TRIPOS>MOLECULE
3p3g_3P3_A_1.pdb
 27 28 0 0 0
SMALL
GASTEIGER

@<TRIPOS>ATOM
      1  O01       30.1570  -12.8490  -10.7240 O.2   401  3P3401     -0.5379
      2  C02       31.1870  -12.3410  -10.2330 C.2   401  3P3401      0.1093
      3  N03       32.1100  -13.2220   -9.6370 N.am  401  3P3401     -0.2011
      4  O04       31.8090  -14.5040   -9.7010 O.3   401  3P3401     -0.4026
      5  C05       31.3730  -10.8460  -10.1770 C.3   401  3P3401      0.1704
      6  N06       31.3310  -10.3110  -11.5140 N.am  401  3P3401     -0.1943
      7  C07       32.4590   -9.6180  -12.0740 C.2   401  3P3401      0.2652
      8  O08       33.4340   -9.3370  -11.3860 O.2   401  3P3401     -0.2684
      9  C09       32.2040   -9.0570  -13.4420 C.ar  401  3P3401      0.0551
     10  C10       31.3640   -9.8000  -14.3140 C.ar  401  3P3401      0.0052
     11  C11       30.9820   -9.2700  -15.6290 C.ar  401  3P3401      0.0084
     12  C12       31.4940   -8.0260  -16.0290 C.ar  401  3P3401      0.0426
     13  C13       32.3490   -7.2720  -15.1470 C.ar  401  3P3401      0.0084
     14  C14       32.7300   -7.7930  -13.8390 C.ar  401  3P3401      0.0052
     15  C15       31.1420   -7.4350  -17.2680 C.1   401  3P3401     -0.0512
     16  C16       30.8350   -6.9150  -18.2900 C.1   401  3P3401     -0.0092
     17  C17       30.4650   -6.2660  -19.4350 C.1   401  3P3401     -0.0092
     18  C18       30.1350   -5.6610  -20.4080 C.1   401  3P3401     -0.0512
     19  C19       29.7330   -4.9140  -21.5470 C.ar  401  3P3401      0.0426
     20  C20       28.4080   -4.8610  -21.9970 C.ar  401  3P3401      0.0083
     21  C21       28.0880   -4.0980  -23.1220 C.ar  401  3P3401      0.0006
     22  C22       29.0730   -3.3610  -23.7840 C.ar  401  3P3401      0.0000
     23  C23       30.3840   -3.4060  -23.3320 C.ar  401  3P3401      0.0006
     24  C24       30.7060   -4.1730  -22.2150 C.ar  401  3P3401      0.0083
     25  C25       30.5100  -10.0670   -9.1780 C.3   401  3P3401      0.1779
     26  C26       29.0330  -10.1260   -9.6170 C.3   401  3P3401      0.0378
     27  O27       30.6750  -10.6640   -7.8870 O.3   401  3P3401     -0.2209
@<TRIPOS>BOND
     1    22    23   ar
     2    22    21   ar
     3    23    24   ar
     4    21    20   ar
     5    24    19   ar
     6    20    19   ar
     7    19    18    1
     8    18    17    3
     9    17    16    1
    10    16    15    3
    11    15    12    1
    12    12    11   ar
    13    12    13   ar
    14    11    10   ar
    15    13    14   ar
    16    10     9   ar
    17    14     9   ar
    18     9     7    1
    19     7     6   am
    20     7     8    2
    21     6     5    1
    22     1     2    2
    23     2     5    1
    24     2     3   am
    25     5    25    1
    26     4     3    1
    27    26    25    1
    28    25    27    1
