@<TRIPOS>MOLECULE
3p3h_84A_A_1.pdb
 26 28 0 0 0
SMALL
GASTEIGER

@<TRIPOS>ATOM
      1  C1        15.0790    6.3660   15.1080 C.ar  300  84A300      0.0000
      2 FE1        19.7170    8.7600   13.4940 Fe    300  84A300      0.0000
      3  C2        14.9490    5.2840   15.9790 C.ar  300  84A300      0.0000
      4  C3        15.5330    4.0560   15.6660 C.ar  300  84A300      0.0000
      5  C4        16.1580    3.8810   14.4300 C.ar  300  84A300      0.0000
      6  C5        16.2640    4.9660   13.5560 C.ar  300  84A300      0.0000
      7  C6        15.7340    6.2270   13.8860 C.ar  300  84A300      0.0000
      8  S7        15.2760    2.7560   16.7890 S.O2  300  84A300      0.0000
      9  O8        13.7800    2.7740   16.8210 O.2   300  84A300      0.0000
     10  O9        15.8910    3.0060   18.0960 O.2   300  84A300      0.0000
     11  N10       15.8270    1.4140   16.1750 N.3   300  84A300      0.0000
     12  N11       15.8070    7.2890   13.0530 N.ar  300  84A300      0.0000
     13  C12       16.9080    7.8420   12.5600 C.ar  300  84A300      0.0000
     14  C13       16.4690    8.8310   11.7840 C.ar  300  84A300      0.0000
     15  C14       19.1470   10.8100   13.2560 C.2   300  84A300      0.0000
     16  N14       15.1330    8.7920   11.8540 N.ar  300  84A300      0.0000
     17  C15       19.2470   10.4910   14.5470 C.3   300  84A300      0.0000
     18  N15       14.8040    7.8680   12.6100 N.ar  300  84A300      0.0000
     19  C16       20.5080   10.1510   14.7870 C.2   300  84A300      0.0000
     20  C17       21.1900   10.2510   13.6460 C.2   300  84A300      0.0000
     21  C18       20.3460   10.6590   12.7000 C.2   300  84A300      0.0000
     22  C19       18.2260    7.4690   12.8190 C.2   300  84A300      0.0000
     23  C20       18.7280    7.1650   14.0150 C.3   300  84A300      0.0000
     24  C21       20.0100    6.8450   13.8610 C.2   300  84A300      0.0000
     25  C22       20.3070    6.9430   12.5640 C.2   300  84A300      0.0000
     26  C23       19.2020    7.3200   11.9220 C.2   300  84A300      0.0000
@<TRIPOS>BOND
     1    14    16   ar
     2    14    13   ar
     3    16    18   ar
     4    26    25    1
     5    26    22    2
     6    13    22    1
     7    13    12   ar
     8    25    24    2
     9    18    12   ar
    10    21    15    2
    11    21    20    1
    12    22    23    1
    13    12     7    1
    14    15    17    1
    15     2    23    1
    16     6     7   ar
    17     6     5   ar
    18    20    19    2
    19    24    23    1
    20     7     1   ar
    21     5     4   ar
    22    17    19    1
    23     1     3   ar
    24     4     3   ar
    25     4     8    1
    26    11     8    1
    27     8     9    2
    28     8    10    2
