@<TRIPOS>MOLECULE
3p3j_498_A_1.pdb
 26 29 0 0 0
SMALL
GASTEIGER

@<TRIPOS>ATOM
      1  C1        15.1000    6.3280   15.1900 C.ar  300  498300      0.0000
      2 RU1        19.8700    9.0160   13.5450 Ru    300  498300      0.0000
      3  C2        14.9570    5.2650   16.0840 C.ar  300  498300      0.0000
      4  C3        15.4630    4.0050   15.7550 C.ar  300  498300      0.0000
      5  C4        16.1070    3.7990   14.5330 C.ar  300  498300      0.0000
      6  C5        16.2430    4.8710   13.6470 C.ar  300  498300      0.0000
      7  C6        15.7440    6.1510   13.9650 C.ar  300  498300      0.0000
      8  S7        15.2620    2.7370   16.9230 S.O2  300  498300      0.0000
      9  O8        13.7670    2.6750   16.9460 O.2   300  498300      0.0000
     10  O9        15.8860    3.0470   18.2130 O.2   300  498300      0.0000
     11  N10       15.9040    1.4180   16.3490 N.3   300  498300      0.0000
     12  N11       15.8960    7.2170   13.1460 N.ar  300  498300      0.0000
     13  C12       17.0300    7.7720   12.7240 C.ar  300  498300      0.0000
     14  C13       16.6360    8.7810   11.9480 C.ar  300  498300      0.0000
     15  C14       19.3200   11.2320   13.3860 C.3   300  498300      0.0000
     16  N14       15.2980    8.7650   11.9580 N.ar  300  498300      0.0000
     17  C15       19.7500   11.0260   14.6350 C.2   300  498300      0.0000
     18  N15       14.9240    7.8290   12.6780 N.ar  300  498300      0.0000
     19  C16       21.0360   10.6960   14.5730 C.2   300  498300      0.0000
     20  C17       21.4100   10.6890   13.2910 C.3   300  498300      0.0000
     21  C18       20.3450   11.0240   12.5590 C.3   300  498300      0.0000
     22  C19       18.3390    7.3950   13.0270 C.2   300  498300      0.0000
     23  C20       18.7730    7.1460   14.2660 C.3   300  498300      0.0000
     24  C21       20.0660    6.8330   14.2030 C.2   300  498300      0.0000
     25  C22       20.4380    6.8880   12.9200 C.2   300  498300      0.0000
     26  C23       19.3740    7.2360   12.1950 C.2   300  498300      0.0000
@<TRIPOS>BOND
     1    14    16   ar
     2    14    13   ar
     3    16    18   ar
     4    26    25    1
     5    26    22    2
     6    21    20    1
     7    21    15    1
     8    21     2    1
     9    18    12   ar
    10    13    22    1
    11    13    12   ar
    12    25    24    2
    13    22    23    1
    14    12     7    1
    15    20    19    1
    16    15    17    1
    17     2    23    1
    18     6     7   ar
    19     6     5   ar
    20     7     1   ar
    21    24    23    1
    22     5     4   ar
    23    19    17    2
    24     1     3   ar
    25     4     3   ar
    26     4     8    1
    27    11     8    1
    28     8     9    2
    29     8    10    2
