@<TRIPOS>MOLECULE
3p3l_HEM_A_1.pdb
 43 50 0 0 0
SMALL
GASTEIGER

@<TRIPOS>ATOM
      1  CHA        0.6490   15.3350   41.8780 C.2   501  HEM501      0.0000
      2  CHB       -3.3450   15.3860   44.6470 C.2   501  HEM501      0.0000
      3  CHC       -5.1540   11.5560   42.2320 C.2   501  HEM501      0.0000
      4  CHD       -1.2130   11.5190   39.4220 C.2   501  HEM501      0.0000
      5  C1A       -0.2820   15.7070   42.8300 C.2   501  HEM501      0.0000
      6  C2A       -0.1890   16.8430   43.7250 C.2   501  HEM501      0.0000
      7  C3A       -1.2850   16.8570   44.4930 C.2   501  HEM501      0.0000
      8  C4A       -2.1200   15.7330   44.1050 C.2   501  HEM501      0.0000
      9  CMA       -1.6160   17.8890   45.5970 C.3   501  HEM501      0.0000
     10  CAA        0.9890   17.8450   43.7880 C.3   501  HEM501      0.0000
     11  CBA        2.0670   17.2330   44.6780 C.3   501  HEM501      0.0000
     12  CGA        3.3280   18.0580   44.6990 C.2   501  HEM501      0.0000
     13  O1A        3.6300   18.7730   43.7090 O.co2 501  HEM501      0.0000
     14  O2A        4.0460   17.9940   45.7250 O.co2 501  HEM501      0.0000
     15  C1B       -4.1360   14.3060   44.2970 C.ar  501  HEM501      0.0000
     16  C2B       -5.2850   13.8140   45.0280 C.ar  501  HEM501      0.0000
     17  C3B       -5.7830   12.7600   44.3630 C.ar  501  HEM501      0.0000
     18  C4B       -4.9690   12.5420   43.1850 C.ar  501  HEM501      0.0000
     19  CMB       -5.8160   14.4200   46.3480 C.3   501  HEM501      0.0000
     20  CAB       -6.9980   11.8850   44.7540 C.2   501  HEM501      0.0000
     21  CBB       -8.2160   12.4030   44.9020 C.2   501  HEM501      0.0000
     22  C1C       -4.2780   11.2300   41.2170 C.2   501  HEM501      0.0000
     23  C2C       -4.4740   10.2370   40.1720 C.2   501  HEM501      0.0000
     24  C3C       -3.3770   10.2390   39.3990 C.2   501  HEM501      0.0000
     25  C4C       -2.4570   11.2260   39.9270 C.2   501  HEM501      0.0000
     26  CMC       -5.7320    9.3500   39.9830 C.3   501  HEM501      0.0000
     27  CAC       -3.1060    9.3620   38.1550 C.2   501  HEM501      0.0000
     28  CBC       -3.0150    8.0320   38.2520 C.2   501  HEM501      0.0000
     29  C1D       -0.3370   12.4980   39.8380 C.ar  501  HEM501      0.0000
     30  C2D        0.9810   12.6950   39.2930 C.ar  501  HEM501      0.0000
     31  C3D        1.5780   13.8840   40.0460 C.ar  501  HEM501      0.0000
     32  C4D        0.5500   14.2900   40.9820 C.ar  501  HEM501      0.0000
     33  CMD        1.6460   11.8710   38.1780 C.3   501  HEM501      0.0000
     34  CAD        2.9830   14.4880   39.8340 C.3   501  HEM501      0.0000
     35  CBD        3.9920   13.6500   40.6140 C.3   501  HEM501      0.0000
     36  CGD        5.4200   14.0240   40.2920 C.2   501  HEM501      0.0000
     37  O1D        5.6850   15.1360   39.7580 O.co2 501  HEM501      0.0000
     38  O2D        6.3110   13.1910   40.5800 O.co2 501  HEM501      0.0000
     39  NA        -1.4730   15.0620   43.0900 N.2   501  HEM501      0.0000
     40  NB        -3.9760   13.5020   43.1820 N.ar  501  HEM501      0.0000
     41  NC        -3.0380   11.8130   41.0270 N.2   501  HEM501      0.0000
     42  ND        -0.5510   13.4480   40.8260 N.ar  501  HEM501      0.0000
     43 FE         -2.2700   13.4420   42.0380 Fe    501  HEM501      0.0000
@<TRIPOS>BOND
     1    27    28    2
     2    27    24    1
     3    33    30    1
     4    30    29   ar
     5    30    31   ar
     6    24    25    1
     7    24    23    2
     8     4    29    2
     9     4    25    1
    10    37    36   ar
    11    34    31    1
    12    34    35    1
    13    29    42   ar
    14    25    41    2
    15    26    23    1
    16    31    32   ar
    17    23    22    1
    18    36    38   ar
    19    36    35    1
    20    42    32   ar
    21    42    43    1
    22    32     1    2
    23    41    22    1
    24    41    43    1
    25    22     3    2
    26     1     5    1
    27    43    39    1
    28    43    40    1
    29     3    18    1
    30     5    39    2
    31     5     6    1
    32    39     8    1
    33    40    18   ar
    34    40    15   ar
    35    18    17   ar
    36    13    12   ar
    37     6    10    1
    38     6     7    2
    39    10    11    1
    40     8     7    1
    41     8     2    2
    42    15     2    1
    43    15    16   ar
    44    17    20    1
    45    17    16   ar
    46     7     9    1
    47    11    12    1
    48    12    14   ar
    49    20    21    2
    50    16    19    1
