@<TRIPOS>MOLECULE
3p3m_GTP_A_1.pdb
 32 34 0 0 0
SMALL
GASTEIGER

@<TRIPOS>ATOM
      1  PG        31.8600    7.9170   67.0650 P.3   416  GTP416      0.5373
      2  O1G       30.7380    8.7790   67.5920 O.3   416  GTP416     -0.1143
      3  O2G       32.6490    8.7260   66.0620 O.2   416  GTP416     -0.2221
      4  O3G       31.2920    6.6890   66.3960 O.3   416  GTP416     -0.1143
      5  O3B       32.8120    7.4860   68.2970 O.3   416  GTP416     -0.2258
      6  PB        32.6420    6.1040   69.1180 P.3   416  GTP416      0.2277
      7  O1B       31.2500    5.5370   68.9680 O.3   416  GTP416     -0.4368
      8  O2B       33.6950    5.1040   68.7190 O.2   416  GTP416     -0.5168
      9  O3A       32.8860    6.5430   70.6380 O.3   416  GTP416     -0.2700
     10  PA        31.6950    7.0000   71.6070 P.3   416  GTP416      0.2189
     11  O1A       32.1660    8.1760   72.4250 O.3   416  GTP416     -0.4371
     12  O2A       30.4440    7.3210   70.8240 O.2   416  GTP416     -0.5170
     13  O5'       31.5010    5.7240   72.5630 O.3   416  GTP416     -0.3112
     14  C5'       30.2450    5.1040   72.7080 C.3   416  GTP416      0.1813
     15  C4'       29.9450    4.9000   74.1850 C.3   416  GTP416      0.1799
     16  O4'       31.1230    4.5300   74.8690 O.3   416  GTP416     -0.3326
     17  C3'       29.4300    6.1580   74.8560 C.3   416  GTP416      0.2158
     18  O3'       28.1040    5.9370   75.2520 O.3   416  GTP416     -0.2175
     19  C2'       30.2770    6.3360   76.0950 C.3   416  GTP416      0.2310
     20  O2'       29.4610    6.5150   77.2320 O.3   416  GTP416     -0.2158
     21  C1'       31.0820    5.0500   76.1810 C.3   416  GTP416      0.2293
     22  N9        32.4290    5.3370   76.6930 N.pl3 416  GTP416     -0.2354
     23  C8        33.4350    6.0180   76.0620 C.3   416  GTP416      0.2246
     24  N7        34.5070    6.0520   76.8900 N.2   416  GTP416     -0.2322
     25  C5        34.2030    5.3980   78.0340 C.2   416  GTP416      0.2182
     26  C6        34.9250    5.1370   79.1970 C.1   416  GTP416      0.2372
     27  O6        36.0870    5.5300   79.3240 O.2   416  GTP416     -0.2069
     28  N1        34.3230    4.4220   80.2120 N.2   416  GTP416     -0.2485
     29  C2        33.0210    3.9790   80.0720 C.1   416  GTP416      0.2531
     30  N2        32.4380    3.2960   81.0510 N.pl3 416  GTP416     -0.0226
     31  N3        32.3160    4.2440   78.9180 N.2   416  GTP416     -0.3074
     32  C4        32.8990    4.9420   77.9170 C.2   416  GTP416      0.2300
@<TRIPOS>BOND
     1     3     1    2
     2     4     1    1
     3     1     2    1
     4     1     5    1
     5     5     6    1
     6     8     6    2
     7     7     6    1
     8     6     9    1
     9     9    10    1
    10    12    10    2
    11    10    11    1
    12    10    13    1
    13    13    14    1
    14    14    15    1
    15    15    17    1
    16    15    16    1
    17    17    18    1
    18    17    19    1
    19    16    21    1
    20    23    22    1
    21    23    24    1
    22    19    21    1
    23    19    20    1
    24    21    22    1
    25    22    32    1
    26    24    25    2
    27    32    25    1
    28    32    31    2
    29    25    26    1
    30    31    29    2
    31    26    27    2
    32    26    28    2
    33    29    28    2
    34    29    30    1
