@<TRIPOS>MOLECULE
3p3n_AKG_A_1.pdb
 10 9 0 0 0
SMALL
GASTEIGER

@<TRIPOS>ATOM
      1  C1        22.3660   25.2720   27.8760 C.2   1351  AKG1351     0.4219
      2  O1        22.2690   24.1900   27.2990 O.co2 1351  AKG1351    -0.2373
      3  O2        23.4400   25.8720   27.8790 O.co2 1351  AKG1351    -0.2373
      4  C2        21.1580   25.8730   28.5960 C.2   1351  AKG1351     0.2526
      5  O5        21.3320   26.8580   29.3140 O.2   1351  AKG1351    -0.2843
      6  C3        19.8920   25.3140   28.4280 C.3   1351  AKG1351     0.0881
      7  C4        18.8190   25.7450   29.2020 C.3   1351  AKG1351     0.1224
      8  C5        17.4620   25.2860   28.6600 C.2   1351  AKG1351     0.3653
      9  O3        16.4290   25.5670   29.2690 O.co2 1351  AKG1351    -0.2456
     10  O4        17.3690   24.6360   27.6180 O.co2 1351  AKG1351    -0.2456
@<TRIPOS>BOND
     1     2     1   ar
     2    10     8   ar
     3     1     3   ar
     4     1     4    1
     5     6     4    1
     6     6     7    1
     7     4     5    2
     8     8     7    1
     9     8     9   ar
