@<TRIPOS>MOLECULE
3p3o_HEM_A_1.pdb
 43 50 0 0 0
SMALL
GASTEIGER

@<TRIPOS>ATOM
      1  CHA       27.2320   13.9740   45.9280 C.2   501  HEM501      0.0000
      2  CHB       25.1640   11.1030   49.2820 C.2   501  HEM501      0.0000
      3  CHC       23.1840   14.9350   51.4430 C.2   501  HEM501      0.0000
      4  CHD       25.3260   17.8170   48.2310 C.2   501  HEM501      0.0000
      5  C1A       26.8360   12.8880   46.6600 C.2   501  HEM501      0.0000
      6  C2A       27.1990   11.5310   46.3470 C.2   501  HEM501      0.0000
      7  C3A       26.6210   10.7570   47.2450 C.2   501  HEM501      0.0000
      8  C4A       25.8840   11.5520   48.1880 C.2   501  HEM501      0.0000
      9  CMA       26.7500    9.2280   47.3050 C.3   501  HEM501      0.0000
     10  CAA       28.0970   11.0760   45.1900 C.3   501  HEM501      0.0000
     11  CBA       29.5530   11.0590   45.6610 C.3   501  HEM501      0.0000
     12  CGA       30.4650   10.4750   44.6320 C.2   501  HEM501      0.0000
     13  O1A       31.4670    9.7990   45.0570 O.co2 501  HEM501      0.0000
     14  O2A       30.1940   10.6540   43.3950 O.co2 501  HEM501      0.0000
     15  C1B       24.4560   11.9120   50.1660 C.ar  501  HEM501      0.0000
     16  C2B       23.7540   11.4440   51.3650 C.ar  501  HEM501      0.0000
     17  C3B       23.1870   12.5100   51.9540 C.ar  501  HEM501      0.0000
     18  C4B       23.5100   13.6520   51.1400 C.ar  501  HEM501      0.0000
     19  CMB       23.6960    9.9770   51.8360 C.3   501  HEM501      0.0000
     20  CAB       22.3250   12.5820   53.2430 C.2   501  HEM501      0.0000
     21  CBB       22.2820   11.6520   54.2170 C.2   501  HEM501      0.0000
     22  C1C       23.7280   16.0390   50.8520 C.2   501  HEM501      0.0000
     23  C2C       23.7750   17.3730   51.4200 C.2   501  HEM501      0.0000
     24  C3C       24.3660   18.1730   50.5260 C.2   501  HEM501      0.0000
     25  C4C       24.7150   17.3760   49.3780 C.2   501  HEM501      0.0000
     26  CMC       23.2100   17.7300   52.8120 C.3   501  HEM501      0.0000
     27  CAC       24.6410   19.6970   50.6110 C.2   501  HEM501      0.0000
     28  CBC       24.0540   20.4450   51.5540 C.2   501  HEM501      0.0000
     29  C1D       25.9980   17.0510   47.3150 C.ar  501  HEM501      0.0000
     30  C2D       26.6900   17.5950   46.1850 C.ar  501  HEM501      0.0000
     31  C3D       27.2930   16.4190   45.4480 C.ar  501  HEM501      0.0000
     32  C4D       26.8960   15.2730   46.2170 C.ar  501  HEM501      0.0000
     33  CMD       26.7500   19.0930   45.8510 C.3   501  HEM501      0.0000
     34  CAD       28.1500   16.4220   44.1970 C.3   501  HEM501      0.0000
     35  CBD       29.5950   16.5900   44.6240 C.3   501  HEM501      0.0000
     36  CGD       30.4510   16.5970   43.4130 C.2   501  HEM501      0.0000
     37  O1D       31.5580   17.1550   43.5270 O.co2 501  HEM501      0.0000
     38  O2D       30.0740   16.0090   42.3730 O.co2 501  HEM501      0.0000
     39  NA        26.0560   12.8780   47.8050 N.2   501  HEM501      0.0000
     40  NB        24.2930   13.2930   50.0630 N.ar  501  HEM501      0.0000
     41  NC        24.3160   16.0860   49.6190 N.2   501  HEM501      0.0000
     42  ND        26.1240   15.6630   47.2960 N.ar  501  HEM501      0.0000
     43 FE         25.3350   14.4830   48.7330 Fe    501  HEM501      0.0000
@<TRIPOS>BOND
     1    38    36   ar
     2    14    12   ar
     3    36    37   ar
     4    36    35    1
     5    34    35    1
     6    34    31    1
     7    12    13   ar
     8    12    11    1
     9    10    11    1
    10    10     6    1
    11    31    30   ar
    12    31    32   ar
    13    33    30    1
    14     1    32    2
    15     1     5    1
    16    30    29   ar
    17    32    42   ar
    18     6     5    1
    19     6     7    2
    20     5    39    2
    21     7     9    1
    22     7     8    1
    23    42    29   ar
    24    42    43    1
    25    29     4    2
    26    39     8    1
    27    39    43    1
    28     8     2    2
    29     4    25    1
    30    43    41    1
    31    43    40    1
    32     2    15    1
    33    25    41    2
    34    25    24    1
    35    41    22    1
    36    40    15   ar
    37    40    18   ar
    38    15    16   ar
    39    24    27    1
    40    24    23    2
    41    27    28    2
    42    22    23    1
    43    22     3    2
    44    18     3    1
    45    18    17   ar
    46    16    19    1
    47    16    17   ar
    48    23    26    1
    49    17    20    1
    50    20    21    2
