@<TRIPOS>MOLECULE
3p3p_AKG_A_1.pdb
 10 9 0 0 0
SMALL
GASTEIGER

@<TRIPOS>ATOM
      1  C1        22.4280   24.8950   27.8000 C.2   1351  AKG1351     0.4219
      2  O1        22.3120   23.7270   27.4320 O.co2 1351  AKG1351    -0.2373
      3  O2        23.5080   25.4720   27.6850 O.co2 1351  AKG1351    -0.2373
      4  C2        21.2320   25.6270   28.4140 C.2   1351  AKG1351     0.2526
      5  O5        21.3880   26.7610   28.8640 O.2   1351  AKG1351    -0.2843
      6  C3        19.9880   25.0060   28.4620 C.3   1351  AKG1351     0.0881
      7  C4        18.9330   25.5740   29.1680 C.3   1351  AKG1351     0.1224
      8  C5        17.5790   25.1040   28.6300 C.2   1351  AKG1351     0.3653
      9  O3        16.5390   25.4580   29.1840 O.co2 1351  AKG1351    -0.2456
     10  O4        17.5050   24.3730   27.6420 O.co2 1351  AKG1351    -0.2456
@<TRIPOS>BOND
     1     2     1   ar
     2    10     8   ar
     3     3     1   ar
     4     1     4    1
     5     4     6    1
     6     4     5    2
     7     6     7    1
     8     8     7    1
     9     8     9   ar
