@<TRIPOS>MOLECULE
3p3r_3M1_A_1.pdb
 20 21 0 0 0
SMALL
GASTEIGER

@<TRIPOS>ATOM
      1  OAA       -1.2280    1.4440   -8.0960 O.2   128  3M1128     -0.2865
      2  OAB       -1.8900    1.6250   -2.6190 O.2   128  3M1128     -0.1260
      3  OAC        1.7500   -1.6200   -3.8200 O.3   128  3M1128     -0.2831
      4  OAD        0.0430    0.0010   -2.2860 O.3   128  3M1128     -0.2813
      5  OAE       -2.5760    2.1570   -4.7620 O.2   128  3M1128     -0.1260
      6  FAF        0.2550    1.0800  -10.3730 F     128  3M1128     -0.2041
      7  CAG        0.4790   -2.5440  -10.6670 C.ar  128  3M1128      0.0023
      8  CAH       -0.0420   -2.8650   -9.4430 C.ar  128  3M1128      0.0002
      9  CAI        0.5520   -1.1990  -10.9790 C.ar  128  3M1128      0.0297
     10  CAJ       -0.3910   -1.9290   -8.4910 C.ar  128  3M1128      0.0054
     11  CAK        0.7340   -0.7320   -5.8370 C.ar  128  3M1128      0.0487
     12  CAL       -0.9750    0.8440   -5.6470 C.ar  128  3M1128      0.0308
     13  CAM       -0.6120    0.4150   -7.7900 C.2   128  3M1128      0.1979
     14  CAN        0.8540   -0.8080   -4.4170 C.ar  128  3M1128      0.2361
     15  CAO        0.1660   -0.2040  -10.0550 C.ar  128  3M1128      0.1432
     16  CAP        0.0260   -0.0210   -3.6480 C.ar  128  3M1128      0.2564
     17  CAQ       -0.2190    0.1260   -6.3760 C.ar  128  3M1128      0.0441
     18  CAR       -0.2700   -0.5900   -8.7930 C.ar  128  3M1128      0.0664
     19  CAS       -0.8520    0.7840   -4.3220 C.ar  128  3M1128      0.1849
     20  NAT       -1.7180    1.5600   -3.8730 N.pl3 128  3M1128      0.0610
@<TRIPOS>BOND
     1     9     7   ar
     2     9    15   ar
     3     7     8   ar
     4     6    15    1
     5    15    18   ar
     6     8    10   ar
     7    18    10   ar
     8    18    13    1
     9     1    13    2
    10    13    17    1
    11    17    11   ar
    12    17    12   ar
    13    11    14   ar
    14    12    19   ar
    15     5    20    2
    16    14     3    1
    17    14    16   ar
    18    19    20    1
    19    19    16   ar
    20    20     2    2
    21    16     4    1
