@<TRIPOS>MOLECULE
3p3s_3M2_A_1.pdb
 18 19 0 0 0
SMALL
GASTEIGER

@<TRIPOS>ATOM
      1  CAA       -0.4820    2.1060   -7.9920 C.3   128  3M2128      0.1219
      2  NAB       -0.4760    2.6010  -10.8100 N.pl3 128  3M2128     -0.0770
      3  OAC        0.3300   -1.9800  -10.2550 O.2   128  3M2128     -0.2079
      4  OAD        0.0650    0.1860   -2.2540 O.3   128  3M2128     -0.2855
      5 BRAE       -1.9390    2.0000   -3.4480 Br    128  3M2128     -0.0457
      6 BRAF        2.0060   -2.0010   -3.2830 Br    128  3M2128     -0.0457
      7  CAG        0.0640   -0.8590   -7.6860 C.2   128  3M2128      0.0280
      8  CAH       -0.8860    0.5230   -5.7780 C.ar  128  3M2128      0.0100
      9  CAI        0.7810   -1.1490   -5.5450 C.ar  128  3M2128      0.0100
     10  NAJ       -0.0500    0.1890  -11.0050 N.2   128  3M2128     -0.2972
     11  CAK        0.0010    0.0030   -3.5950 C.ar  128  3M2128      0.2079
     12  CAL       -0.0390   -0.4380   -6.3650 C.ar  128  3M2128      0.0032
     13  CAM       -0.8480    0.7420   -4.3810 C.ar  128  3M2128      0.0739
     14  CAN        0.7970   -0.9210   -4.2060 C.ar  128  3M2128      0.0739
     15  CAO       -0.2770    1.3470  -10.3450 C.cat 128  3M2128      0.2936
     16  CAP        0.1070   -0.7600  -10.0740 C.1   128  3M2128      0.2215
     17  CAQ       -0.0420   -0.1460   -8.8370 C.2   128  3M2128      0.1509
     18  NAR       -0.2670    1.1140   -9.0480 N.pl3 128  3M2128     -0.2357
@<TRIPOS>BOND
     1    10    15    2
     2    10    16    2
     3     2    15    1
     4    15    18    1
     5     3    16    2
     6    16    17    1
     7    18    17    1
     8    18     1    1
     9    17     7    2
    10     7    12    1
    11    12     8   ar
    12    12     9   ar
    13     8    13   ar
    14     9    14   ar
    15    13    11   ar
    16    13     5    1
    17    14    11   ar
    18    14     6    1
    19    11     4    1
