@<TRIPOS>MOLECULE
3p3t_3M3_A_1.pdb
 18 19 0 0 0
SMALL
GASTEIGER

@<TRIPOS>ATOM
      1  CAA        0.1120   -2.5970   -9.5630 C.3   128  3M3128      0.0495
      2  CAB       -0.5150    2.4550   -9.7240 C.3   128  3M3128      0.0495
      3  FAC        3.1440   -2.2510   -4.7390 F     128  3M3128     -0.2010
      4  CAD        2.4880   -1.3430   -1.3160 C.ar  128  3M3128      0.0025
      5  CAE        1.2840   -0.6650   -1.4300 C.ar  128  3M3128      0.0033
      6  CAF        3.1170   -1.8890   -2.4040 C.ar  128  3M3128      0.0328
      7  CAG        0.6770   -0.5050   -2.6830 C.ar  128  3M3128      0.0392
      8  CAH        0.5670    0.3180   -6.8340 C.3   128  3M3128      0.0481
      9  CAI        0.2760    0.2750   -5.3270 C.3   128  3M3128      0.2055
     10  CAJ       -0.6480   -0.0780   -7.7020 C.3   128  3M3128      0.0152
     11  NAK        0.2570   -0.6860  -11.2590 N.2   128  3M3128     -0.1570
     12  NAL        0.1060    0.5650  -11.2950 N.2   128  3M3128     -0.1570
     13  OAM        0.8430   -0.9940   -5.0320 O.3   128  3M3128     -0.4732
     14  CAN        2.5320   -1.7610   -3.6340 C.ar  128  3M3128      0.1738
     15  CAO        0.0240   -1.1410  -10.0150 C.2   128  3M3128      0.0636
     16  CAP       -0.2280    0.9930  -10.0720 C.2   128  3M3128      0.0636
     17  CAQ        1.3410   -1.0610   -3.7660 C.ar  128  3M3128      0.1658
     18  CAR       -0.2950   -0.0800   -9.1930 C.3   128  3M3128      0.0758
@<TRIPOS>BOND
     1    12    11    1
     2    12    16    2
     3    11    15    2
     4    16     2    1
     5    16    18    1
     6    15     1    1
     7    15    18    1
     8    18    10    1
     9    10     8    1
    10     8     9    1
    11     9    13    1
    12    13    17    1
    13     3    14    1
    14    17    14   ar
    15    17     7   ar
    16    14     6   ar
    17     7     5   ar
    18     6     4   ar
    19     5     4   ar
