@<TRIPOS>MOLECULE
3p3u_3M4_A_1.pdb
 20 22 0 0 0
SMALL
GASTEIGER

@<TRIPOS>ATOM
      1  CAA        3.1670   -2.3870   -3.0100 C.3   128  3M4128      0.0512
      2  CAB       -1.0650    1.0220   -1.1220 C.ar  128  3M4128      0.0031
      3  CAC       -1.7560    1.6100   -2.1770 C.ar  128  3M4128      0.0004
      4  CAD       -0.1800    2.9570   -9.7420 C.ar  128  3M4128      0.0996
      5  CAE       -1.2610    1.0740  -10.2090 C.ar  128  3M4128      0.0996
      6  CAF       -0.0530    0.1100   -1.3570 C.ar  128  3M4128      0.0371
      7  CAG       -1.3610    1.2390   -3.4590 C.ar  128  3M4128      0.0089
      8  CAH        0.1510    2.3180   -8.5460 C.ar  128  3M4128      0.0318
      9  CAI       -0.9470    0.3080   -9.0840 C.ar  128  3M4128      0.0318
     10  CAJ        2.0950   -1.5740   -3.8100 C.3   128  3M4128      0.2055
     11  NAK       -0.8650    2.3020  -10.5790 N.ar  128  3M4128     -0.2423
     12  NAL        0.4290   -0.9010   -6.8500 N.2   128  3M4128     -0.0068
     13  NAM       -0.3490    0.9240   -5.9370 N.2   128  3M4128     -0.3084
     14  OAN        1.3380   -1.1360   -2.7130 O.3   128  3M4128     -0.4753
     15  OAO        0.3940   -1.1020   -5.4940 O.2   128  3M4128     -0.3108
     16  CAP       -0.2070    1.0210   -8.2150 C.ar  128  3M4128      0.0801
     17  CAQ        0.3410   -0.2360   -2.6300 C.ar  128  3M4128      0.1442
     18  CAR        0.0210    0.3560   -7.0490 C.1   128  3M4128      0.1272
     19  CAS       -0.3360    0.3440   -3.6750 C.ar  128  3M4128      0.1031
     20  CAT       -0.0810    0.0720   -4.9860 C.2   128  3M4128      0.3199
@<TRIPOS>BOND
     1    11     5   ar
     2    11     4   ar
     3     5     9   ar
     4     4     8   ar
     5     9    16   ar
     6     8    16   ar
     7    16    18    1
     8    18    12    2
     9    18    13    2
    10    12    15    1
    11    13    20    2
    12    15    20    1
    13    20    19    1
    14    10     1    1
    15    10    14    1
    16    19     7   ar
    17    19    17   ar
    18     7     3   ar
    19    14    17    1
    20    17     6   ar
    21     3     2   ar
    22     6     2   ar
