@<TRIPOS>MOLECULE
3p3x_HEM_A_1.pdb
 43 50 0 0 0
SMALL
GASTEIGER

@<TRIPOS>ATOM
      1  CHA       24.8920   11.4470   21.6070 C.2   501  HEM501      0.0000
      2  CHB       21.9720   10.4170   25.3470 C.2   501  HEM501      0.0000
      3  CHC       19.7970   14.7340   24.9780 C.2   501  HEM501      0.0000
      4  CHD       23.0210   15.9800   21.5670 C.2   501  HEM501      0.0000
      5  C1A       24.2890   10.7680   22.6450 C.2   501  HEM501      0.0000
      6  C2A       24.5860    9.4150   23.0860 C.2   501  HEM501      0.0000
      7  C3A       23.7780    9.1430   24.1180 C.2   501  HEM501      0.0000
      8  C4A       22.9390   10.3010   24.3660 C.2   501  HEM501      0.0000
      9  CMA       23.7370    7.8180   24.9120 C.3   501  HEM501      0.0000
     10  CAA       25.6510    8.4620   22.4800 C.3   501  HEM501      0.0000
     11  CBA       27.0040    8.7560   23.1260 C.3   501  HEM501      0.0000
     12  CGA       28.0010    7.6410   22.9210 C.2   501  HEM501      0.0000
     13  O1A       28.7000    7.2910   23.9060 O.co2 501  HEM501      0.0000
     14  O2A       28.1130    7.1000   21.7890 O.co2 501  HEM501      0.0000
     15  C1B       21.0860   11.4580   25.5440 C.ar  501  HEM501      0.0000
     16  C2B       19.9480   11.4690   26.4490 C.ar  501  HEM501      0.0000
     17  C3B       19.3460   12.6650   26.3530 C.ar  501  HEM501      0.0000
     18  C4B       20.0800   13.4460   25.3750 C.ar  501  HEM501      0.0000
     19  CMB       19.5350   10.2930   27.3620 C.3   501  HEM501      0.0000
     20  CAB       18.0820   13.1640   27.1020 C.2   501  HEM501      0.0000
     21  CBB       17.9640   13.1320   28.4330 C.2   501  HEM501      0.0000
     22  C1C       20.5370   15.4870   24.0900 C.2   501  HEM501      0.0000
     23  C2C       20.4230   16.9130   23.8650 C.2   501  HEM501      0.0000
     24  C3C       21.3110   17.2490   22.9240 C.2   501  HEM501      0.0000
     25  C4C       22.0230   16.0550   22.5170 C.2   501  HEM501      0.0000
     26  CMC       19.4450   17.8760   24.5810 C.3   501  HEM501      0.0000
     27  CAC       21.5410   18.6660   22.3590 C.2   501  HEM501      0.0000
     28  CBC       21.3230   18.9080   21.0630 C.2   501  HEM501      0.0000
     29  C1D       23.7670   14.8810   21.2000 C.ar  501  HEM501      0.0000
     30  C2D       24.6690   14.8240   20.0690 C.ar  501  HEM501      0.0000
     31  C3D       25.2480   13.4070   20.0820 C.ar  501  HEM501      0.0000
     32  C4D       24.6440   12.7490   21.2190 C.ar  501  HEM501      0.0000
     33  CMD       24.9840   15.9480   19.0540 C.3   501  HEM501      0.0000
     34  CAD       26.2790   12.8160   19.0980 C.3   501  HEM501      0.0000
     35  CBD       27.6420   13.2440   19.6260 C.3   501  HEM501      0.0000
     36  CGD       28.7800   12.4530   19.0370 C.2   501  HEM501      0.0000
     37  O1D       29.9350   12.8430   19.3240 O.co2 501  HEM501      0.0000
     38  O2D       28.5620   11.4550   18.2990 O.co2 501  HEM501      0.0000
     39  NA        23.2850   11.2720   23.4510 N.2   501  HEM501      0.0000
     40  NB        21.1300   12.6800   24.9050 N.ar  501  HEM501      0.0000
     41  NC        21.5290   15.0070   23.2580 N.2   501  HEM501      0.0000
     42  ND        23.7790   13.6460   21.8430 N.ar  501  HEM501      0.0000
     43 FE         22.4360   13.1680   23.3750 Fe    501  HEM501      0.0000
@<TRIPOS>BOND
     1    38    36   ar
     2    36    37   ar
     3    36    35    1
     4    33    30    1
     5    34    35    1
     6    34    31    1
     7    30    31   ar
     8    30    29   ar
     9    31    32   ar
    10    28    27    2
    11    29     4    2
    12    29    42   ar
    13    32     1    2
    14    32    42   ar
    15     4    25    1
    16     1     5    1
    17    14    12   ar
    18    42    43    1
    19    27    24    1
    20    10     6    1
    21    10    11    1
    22    25    24    1
    23    25    41    2
    24     5     6    1
    25     5    39    2
    26    12    11    1
    27    12    13   ar
    28    24    23    2
    29     6     7    2
    30    41    43    1
    31    41    22    1
    32    43    39    1
    33    43    40    1
    34    39     8    1
    35    23    22    1
    36    23    26    1
    37    22     3    2
    38     7     8    1
    39     7     9    1
    40     8     2    2
    41    40    18   ar
    42    40    15   ar
    43     3    18    1
    44     2    15    1
    45    18    17   ar
    46    15    16   ar
    47    17    16   ar
    48    17    20    1
    49    16    19    1
    50    20    21    2
