@<TRIPOS>MOLECULE
3p3z_P3Z_A_1.pdb
 19 21 0 0 0
SMALL
GASTEIGER

@<TRIPOS>ATOM
      1  CAA       22.2700    6.9360   42.3890 C.3   502  P3Z502      0.2525
      2  OAB       24.1250   13.9220   42.8080 O.3   502  P3Z502     -0.2166
      3  CAC       24.2100    9.6770   43.1460 C.ar  502  P3Z502      0.0367
      4  CAD       22.2420    9.7700   41.7520 C.ar  502  P3Z502      0.0367
      5  CAE       24.0760   11.0380   43.4220 C.ar  502  P3Z502      0.0015
      6  CAF       22.1080   11.1300   42.0330 C.ar  502  P3Z502      0.0015
      7  CAG       22.4160   13.8190   47.3490 C.ar  502  P3Z502      0.1989
      8  CAH       21.5070   13.1560   45.3350 C.ar  502  P3Z502      0.1006
      9  CAI       23.7440   13.9680   45.4820 C.ar  502  P3Z502      0.1006
     10  CAJ       21.7000   15.4710   42.4120 C.3   502  P3Z502      0.0032
     11  CAK       22.0440   14.6840   41.1460 C.3   502  P3Z502      0.0032
     12  NAL       21.4020   13.3460   46.6410 N.ar  502  P3Z502     -0.2227
     13  NAM       23.5690   14.1310   46.7830 N.ar  502  P3Z502     -0.2227
     14  OAN       23.4390    7.7040   42.0460 O.3   502  P3Z502     -0.4714
     15  CAO       23.2920    9.0370   42.3120 C.ar  502  P3Z502      0.1387
     16  CAP       23.0240   11.7750   42.8700 C.ar  502  P3Z502      0.0092
     17  CAQ       22.7070   13.4710   44.7020 C.ar  502  P3Z502      0.0472
     18  CAR       21.7110   13.9370   42.4410 C.3   502  P3Z502      0.0361
     19  CAS       22.8980   13.2830   43.1880 C.3   502  P3Z502      0.1668
@<TRIPOS>BOND
     1    11    10    1
     2    11    18    1
     3     4     6   ar
     4     4    15   ar
     5     6    16   ar
     6    14    15    1
     7    14     1    1
     8    15     3   ar
     9    10    18    1
    10    18    19    1
    11     2    19    1
    12    16    19    1
    13    16     5   ar
    14     3     5   ar
    15    19    17    1
    16    17     8   ar
    17    17     9   ar
    18     8    12   ar
    19     9    13   ar
    20    12     7   ar
    21    13     7   ar
