@<TRIPOS>MOLECULE
3p3z_HEM_A_1.pdb
 43 50 0 0 0
SMALL
GASTEIGER

@<TRIPOS>ATOM
      1  CHA       27.2160   13.9510   45.6560 C.2   501  HEM501      0.0000
      2  CHB       25.2150   11.0170   48.9800 C.2   501  HEM501      0.0000
      3  CHC       23.3130   14.8640   51.2430 C.2   501  HEM501      0.0000
      4  CHD       25.3590   17.8330   47.9980 C.2   501  HEM501      0.0000
      5  C1A       26.8560   12.8220   46.3590 C.2   501  HEM501      0.0000
      6  C2A       27.2460   11.4600   46.0540 C.2   501  HEM501      0.0000
      7  C3A       26.6920   10.6600   46.9720 C.2   501  HEM501      0.0000
      8  C4A       25.9320   11.4760   47.8930 C.2   501  HEM501      0.0000
      9  CMA       26.8240    9.1280   47.0540 C.3   501  HEM501      0.0000
     10  CAA       28.1390   11.0140   44.8730 C.3   501  HEM501      0.0000
     11  CBA       29.6010   10.9630   45.3050 C.3   501  HEM501      0.0000
     12  CGA       30.4580   10.3540   44.2180 C.2   501  HEM501      0.0000
     13  O1A       30.1400   10.5190   43.0080 O.co2 501  HEM501      0.0000
     14  O2A       31.4740    9.6990   44.5660 O.co2 501  HEM501      0.0000
     15  C1B       24.4910   11.7820   49.8680 C.ar  501  HEM501      0.0000
     16  C2B       23.6550   11.2960   50.9490 C.ar  501  HEM501      0.0000
     17  C3B       23.1270   12.3600   51.5750 C.ar  501  HEM501      0.0000
     18  C4B       23.6120   13.5560   50.9110 C.ar  501  HEM501      0.0000
     19  CMB       23.4330    9.8030   51.2930 C.3   501  HEM501      0.0000
     20  CAB       22.1650   12.3390   52.7870 C.2   501  HEM501      0.0000
     21  CBB       22.5010   11.7400   53.9350 C.2   501  HEM501      0.0000
     22  C1C       23.7620   16.0110   50.6150 C.2   501  HEM501      0.0000
     23  C2C       23.6140   17.3790   51.0900 C.2   501  HEM501      0.0000
     24  C3C       24.1830   18.1950   50.1840 C.2   501  HEM501      0.0000
     25  C4C       24.7050   17.3690   49.1160 C.2   501  HEM501      0.0000
     26  CMC       22.9170   17.7870   52.4110 C.3   501  HEM501      0.0000
     27  CAC       24.3050   19.7430   50.1910 C.2   501  HEM501      0.0000
     28  CBC       24.0500   20.4970   51.2650 C.2   501  HEM501      0.0000
     29  C1D       26.0200   17.0850   47.0500 C.ar  501  HEM501      0.0000
     30  C2D       26.6790   17.6260   45.8830 C.ar  501  HEM501      0.0000
     31  C3D       27.2570   16.4110   45.1510 C.ar  501  HEM501      0.0000
     32  C4D       26.8940   15.2610   45.9500 C.ar  501  HEM501      0.0000
     33  CMD       26.7790   19.1110   45.4590 C.3   501  HEM501      0.0000
     34  CAD       28.0710   16.4180   43.8420 C.3   501  HEM501      0.0000
     35  CBD       29.5400   16.4560   44.2440 C.3   501  HEM501      0.0000
     36  CGD       30.4440   16.5580   43.0480 C.2   501  HEM501      0.0000
     37  O1D       31.4310   17.3280   43.1280 O.co2 501  HEM501      0.0000
     38  O2D       30.1930   15.8760   42.0230 O.co2 501  HEM501      0.0000
     39  NA        26.0600   12.7890   47.4870 N.2   501  HEM501      0.0000
     40  NB        24.4320   13.1590   49.8730 N.ar  501  HEM501      0.0000
     41  NC        24.4320   16.0510   49.4100 N.2   501  HEM501      0.0000
     42  ND        26.1650   15.7000   47.0500 N.ar  501  HEM501      0.0000
     43 FE         25.2770   14.4140   48.4490 Fe    501  HEM501      0.0000
@<TRIPOS>BOND
     1    38    36   ar
     2    13    12   ar
     3    36    37   ar
     4    36    35    1
     5    34    35    1
     6    34    31    1
     7    12    14   ar
     8    12    11    1
     9    10    11    1
    10    10     6    1
    11    31    30   ar
    12    31    32   ar
    13    33    30    1
    14     1    32    2
    15     1     5    1
    16    30    29   ar
    17    32    42   ar
    18     6     5    1
    19     6     7    2
    20     5    39    2
    21     7     9    1
    22     7     8    1
    23    42    29   ar
    24    42    43    1
    25    29     4    2
    26    39     8    1
    27    39    43    1
    28     8     2    2
    29     4    25    1
    30    43    41    1
    31    43    40    1
    32     2    15    1
    33    25    41    2
    34    25    24    1
    35    41    22    1
    36    15    40   ar
    37    15    16   ar
    38    40    18   ar
    39    24    27    1
    40    24    23    2
    41    27    28    2
    42    22    23    1
    43    22     3    2
    44    18     3    1
    45    18    17   ar
    46    16    19    1
    47    16    17   ar
    48    23    26    1
    49    17    20    1
    50    20    21    2
