@<TRIPOS>MOLECULE
3p41_IPE_A_1.pdb
 14 13 0 0 0
SMALL
GASTEIGER

@<TRIPOS>ATOM
      1  C1       -18.7320    7.6670   18.0800 C.3   299  IPE299      0.1491
      2  O1       -19.7740    8.6250   18.1010 O.3   299  IPE299     -0.3138
      3  C2       -18.2920    7.3520   16.6860 C.3   299  IPE299      0.0325
      4  C3       -17.2410    6.5440   16.6120 C.3   299  IPE299      0.0025
      5  C4       -16.6000    6.0620   17.8840 C.3   299  IPE299      0.0001
      6  C5       -16.6930    6.1280   15.2810 C.3   299  IPE299      0.0001
      7  PA       -20.0800    9.2080   19.5660 P.3   299  IPE299      0.2230
      8  O1A      -21.2890   10.1350   19.5110 O.2   299  IPE299     -0.5169
      9  O2A      -18.7820    9.7810   20.0690 O.3   299  IPE299     -0.4370
     10  O3A      -20.3800    7.8230   20.3490 O.3   299  IPE299     -0.2261
     11  PB       -21.3320    7.5840   21.6310 P.3   299  IPE299      0.5373
     12  O1B      -22.7370    7.4380   21.0570 O.2   299  IPE299     -0.2221
     13  O2B      -21.1650    8.8580   22.4590 O.3   299  IPE299     -0.1143
     14  O3B      -20.7940    6.2740   22.2300 O.3   299  IPE299     -0.1143
@<TRIPOS>BOND
     1     6     4    1
     2     4     3    1
     3     4     5    1
     4     3     1    1
     5     1     2    1
     6     2     7    1
     7     8     7    2
     8     7     9    1
     9     7    10    1
    10    10    11    1
    11    12    11    2
    12    11    14    1
    13    11    13    1
