@<TRIPOS>MOLECULE
3p44_067_A_1.pdb
 26 28 0 0 0
SMALL
GASTEIGER

@<TRIPOS>ATOM
      1 RU         20.2830   11.1500   13.2000 Ru    300  067300      0.0000
      2  NAA       17.3150    8.5670   12.2170 N.2   300  067300      0.0000
      3  NAB       16.7120    7.7070   12.8610 N.pl3 300  067300      0.0000
      4  CAC       17.8710    5.0970   14.7890 C.ar  300  067300      0.0000
      5  CAD       17.4060    4.0510   15.5790 C.ar  300  067300      0.0000
      6  OAE       13.9940    2.7550   17.0240 O.2   300  067300      0.0000
      7  CAF       18.5770    8.5090   12.6240 C.2   300  067300      0.0000
      8  NAG       17.4590    7.1090   13.6400 N.pl3 300  067300      0.0000
      9  CAH       17.0120    6.1200   14.4080 C.ar  300  067300      0.0000
     10  CAI       16.0770    4.0270   15.9850 C.ar  300  067300      0.0000
     11  SAJ       15.4920    2.7100   16.9770 S.O2  300  067300      0.0000
     12  NAK       15.9730    1.2920   16.3350 N.3   300  067300      0.0000
     13  CAL       18.7020    7.5770   13.5590 C.3   300  067300      0.0000
     14  CAM       15.6850    6.1000   14.8220 C.ar  300  067300      0.0000
     15  CAN       15.2180    5.0530   15.6090 C.ar  300  067300      0.0000
     16  OAO       16.0360    2.8430   18.3680 O.2   300  067300      0.0000
     17  CAP       19.5710    9.2490   12.1390 C.2   300  067300      0.0000
     18  CAQ       20.8660    9.0870   12.3960 C.2   300  067300      0.0000
     19  CAR       21.5410    9.9850   11.6830 C.3   300  067300      0.0000
     20  CAS       20.6640   10.7020   10.9870 C.2   300  067300      0.0000
     21  CAT       19.4460   10.2480   11.2690 C.2   300  067300      0.0000
     22  CAU       19.3000   11.8430   15.1500 C.2   300  067300      0.0000
     23  CAV       19.1780   12.8410   14.2800 C.2   300  067300      0.0000
     24  CAW       20.3980   13.2920   14.0010 C.2   300  067300      0.0000
     25  CAX       21.2730   12.5730   14.6980 C.2   300  067300      0.0000
     26  CAY       20.5940   11.6760   15.4080 C.3   300  067300      0.0000
@<TRIPOS>BOND
     1    20    21    2
     2    20    19    1
     3    21    17    1
     4    19    18    1
     5    19     1    1
     6    17    18    2
     7    17     7    1
     8     2     7    2
     9     2     3    1
    10     7    13    1
    11     3     8    1
    12    13     8    1
    13     8     9    1
    14    24    23    1
    15    24    25    2
    16    23    22    2
    17     9     4   ar
    18     9    14   ar
    19    25    26    1
    20     4     5   ar
    21    14    15   ar
    22    22    26    1
    23     5    10   ar
    24    15    10   ar
    25    10    11    1
    26    12    11    1
    27    11     6    2
    28    11    16    2
