@<TRIPOS>MOLECULE
3p48_DUP_A_1.pdb
 28 29 0 0 0
SMALL
GASTEIGER

@<TRIPOS>ATOM
      1  O4       -22.0750   17.8090  -26.2290 O.2   148  DUP148     -0.2085
      2  C4       -21.7170   16.7160  -26.8920 C.1   148  DUP148      0.2182
      3  C5       -20.8990   15.7600  -26.3300 C.2   148  DUP148      0.1242
      4  C6       -20.5450   14.6660  -27.0740 C.2   148  DUP148      0.0928
      5  N3       -22.1830   16.5970  -28.1540 N.2   148  DUP148     -0.2452
      6  C2       -21.8130   15.5070  -28.8850 C.1   148  DUP148      0.2844
      7  O2       -22.2650   15.4300  -30.0170 O.2   148  DUP148     -0.1918
      8  N1       -21.0240   14.5150  -28.3370 N.am  148  DUP148     -0.1790
      9  C1'      -20.5670   13.3660  -29.0570 C.3   148  DUP148      0.2090
     10  C2'      -19.1450   13.5000  -29.5080 C.3   148  DUP148      0.0874
     11  C3'      -18.3560   12.7810  -28.4850 C.3   148  DUP148      0.1857
     12  O3'      -17.0890   12.4020  -28.9350 O.3   148  DUP148     -0.2203
     13  O4'      -20.5650   12.1840  -28.2320 O.3   148  DUP148     -0.3339
     14  C4'      -19.2180   11.6240  -28.1560 C.3   148  DUP148      0.1774
     15  C5'      -18.9660   11.1040  -26.8200 C.3   148  DUP148      0.1848
     16  O5'      -19.0850   11.9820  -25.7360 O.3   148  DUP148     -0.2775
     17  PA       -18.8870   11.4550  -24.2110 P.3   148  DUP148      0.4623
     18  O1A      -17.5620   10.6060  -23.9780 O.2   148  DUP148     -0.2354
     19  O2A      -19.0970   12.7770  -23.3660 O.3   148  DUP148     -0.1255
     20  N3A      -20.3680   10.6280  -24.0990 N.3   148  DUP148     -0.0179
     21  PB       -20.3770    9.1140  -23.2480 P.3   148  DUP148      0.4700
     22  O1B      -21.7560    9.0580  -22.5340 O.2   148  DUP148     -0.2350
     23  O2B      -19.1800    8.8010  -22.2530 O.3   148  DUP148     -0.1252
     24  O3B      -20.6280    8.0730  -24.3790 O.3   148  DUP148     -0.1901
     25  PG       -19.4300    7.3290  -25.1640 P.3   148  DUP148      0.5397
     26  O2G      -18.0300    7.7710  -24.7550 O.3   148  DUP148     -0.1143
     27  O1G      -19.4950    5.8170  -24.9350 O.3   148  DUP148     -0.1143
     28  O3G      -19.6880    7.6160  -26.6180 O.2   148  DUP148     -0.2220
@<TRIPOS>BOND
     1     7     6    2
     2    10     9    1
     3    10    11    1
     4     9     8    1
     5     9    13    1
     6    12    11    1
     7     6     8   am
     8     6     5    2
     9    11    14    1
    10     8     4    1
    11    13    14    1
    12    14    15    1
    13     5     2    2
    14     4     3    2
    15     2     3    1
    16     2     1    2
    17    15    16    1
    18    28    25    2
    19    16    17    1
    20    25    27    1
    21    25    26    1
    22    25    24    1
    23    24    21    1
    24    17    20    1
    25    17    18    2
    26    17    19    1
    27    20    21    1
    28    21    22    2
    29    21    23    1
