@<TRIPOS>MOLECULE
3p4e_AMP_A_1.pdb
 23 25 0 0 0
SMALL
GASTEIGER

@<TRIPOS>ATOM
      1  P         19.9850   40.7380  -13.1180 P.3   501  AMP501      0.5327
      2  O1P       18.8520   41.0230  -14.0850 O.2   501  AMP501     -0.2224
      3  O2P       19.5830   40.1140  -11.7940 O.3   501  AMP501     -0.1145
      4  O3P       20.9950   41.8610  -12.9480 O.3   501  AMP501     -0.1145
      5  O5'       20.8320   39.5640  -13.8360 O.3   501  AMP501     -0.2675
      6  C5'       20.5340   38.9390  -15.0850 C.3   501  AMP501      0.1860
      7  C4'       20.7290   37.4310  -14.9340 C.3   501  AMP501      0.1823
      8  O4'       22.0980   37.1160  -14.6180 O.3   501  AMP501     -0.3135
      9  C3'       19.8690   36.8860  -13.7970 C.3   501  AMP501      0.2184
     10  O3'       19.3380   35.5910  -14.0980 O.3   501  AMP501     -0.2174
     11  C2'       20.8260   36.8020  -12.6310 C.3   501  AMP501      0.2570
     12  O2'       20.4510   35.7810  -11.7040 O.3   501  AMP501     -0.2130
     13  C1'       22.1930   36.5960  -13.2860 C.3   501  AMP501      0.3186
     14  N9        23.2030   37.3500  -12.4960 N.pl3 501  AMP501     -0.1439
     15  C8        23.3830   38.7010  -12.4980 C.3   501  AMP501      0.3377
     16  N7        24.3730   39.0620  -11.6490 N.2   501  AMP501     -0.2095
     17  C5        24.8360   37.9250  -11.0960 C.2   501  AMP501      0.2526
     18  C6        25.8800   37.5980  -10.1090 C.2   501  AMP501      0.4393
     19  N6        26.6170   38.5960   -9.5560 N.pl3 501  AMP501      0.2180
     20  N1        26.0660   36.2870   -9.8090 N.2   501  AMP501      0.0021
     21  C2        25.3140   35.3010  -10.3430 C.3   501  AMP501      0.5254
     22  N3        24.3390   35.5240  -11.2430 N.2   501  AMP501     -0.0055
     23  C4        24.0640   36.7960  -11.6480 C.2   501  AMP501      0.3518
@<TRIPOS>BOND
     1     6     7    1
     2     6     5    1
     3     7     8    1
     4     7     9    1
     5     8    13    1
     6    10     9    1
     7     2     1    2
     8     5     1    1
     9     9    11    1
    10    13    11    1
    11    13    14    1
    12     1     4    1
    13     1     3    1
    14    11    12    1
    15    15    14    1
    16    15    16    1
    17    14    23    1
    18    16    17    2
    19    23    22    2
    20    23    17    1
    21    22    21    1
    22    17    18    1
    23    21    20    1
    24    18    20    2
    25    18    19    1
