@<TRIPOS>MOLECULE
3p4u_III_E_1.pdb
 35 34 0 0 0
SMALL
GASTEIGER

@<TRIPOS>ATOM
      1  C         37.1300    3.9010   20.7860 C.2   701  ACE701      0.2423
      2  O         36.1420    3.3560   20.2920 O.2   701  ACE701     -0.2733
      3  CH3       38.5050    3.6210   20.2400 C.3   701  ACE701      0.0964
      4  N         37.0930    4.5600   21.9510 N.am  702  VAL702     -0.1978
      5  CA        35.8710    4.7370   22.7430 C.3   702  VAL702      0.1726
      6  C         35.4110    6.1920   22.6890 C.2   702  VAL702      0.2616
      7  O         36.2070    7.1080   22.9090 O.2   702  VAL702     -0.2715
      8  CB        36.0820    4.3520   24.2180 C.3   702  VAL702      0.0290
      9  CG1       34.7470    4.3950   24.9710 C.3   702  VAL702      0.0023
     10  CG2       36.7230    2.9780   24.3280 C.3   702  VAL702      0.0023
     11  N         34.1270    6.3930   22.3980 N.am  703  GLU703     -0.1963
     12  CA        33.5560    7.7290   22.2890 C.3   703  GLU703      0.1733
     13  C         32.3580    7.8960   23.2180 C.2   703  GLU703      0.2616
     14  O         31.7430    6.9140   23.6530 O.2   703  GLU703     -0.2715
     15  CB        33.1620    8.0230   20.8390 C.3   703  GLU703      0.0429
     16  CG        34.3580    7.9340   19.8880 C.3   703  GLU703      0.1163
     17  CD        34.0650    8.4180   18.4920 C.2   703  GLU703      0.3649
     18  OE1       32.9120    8.3050   18.0350 O.co2 703  GLU703     -0.2457
     19  OE2       35.0120    8.9050   17.8360 O.co2 703  GLU703     -0.2457
     20  N         32.0480    9.1540   23.5060 N.am  704  ILE704     -0.1963
     21  CA        30.9780    9.5280   24.4210 C.3   704  ILE704      0.1727
     22  C         29.7070    9.8520   23.6320 C.2   704  ILE704      0.2616
     23  O         29.7550   10.5980   22.6610 O.2   704  ILE704     -0.2715
     24  CB        31.4070   10.7600   25.2530 C.3   704  ILE704      0.0290
     25  CG1       32.6920   10.4590   26.0400 C.3   704  ILE704      0.0022
     26  CG2       30.2920   11.2010   26.1960 C.3   704  ILE704      0.0023
     27  CD1       32.5750    9.2810   26.9970 C.3   704  ILE704      0.0001
     28  C         26.5540   10.7690   23.9830 C.2   705  ASJ705      0.2293
     29  N         28.5740    9.2930   24.0520 N.am  705  ASJ705     -0.1971
     30  O         25.3470   10.9570   23.7530 O.2   705  ASJ705     -0.2864
     31  CA        27.2850    9.5600   23.4030 C.3   705  ASJ705      0.1709
     32  CB        26.3770    8.3260   23.4780 C.3   705  ASJ705      0.1436
     33  CG        26.3940    7.5250   22.2020 C.2   705  ASJ705      0.3671
     34  OD1       25.9330    6.3750   22.2290 O.co2 705  ASJ705     -0.2456
     35  OD2       26.8720    8.0460   21.1720 O.co2 705  ASJ705     -0.2456
@<TRIPOS>BOND
     1    19    17   ar
     2    18    17   ar
     3    17    16    1
     4    16    15    1
     5     3     1    1
     6     2     1    2
     7     1     4   am
     8    15    12    1
     9    35    33   ar
    10     4     5    1
    11    33    34   ar
    12    33    32    1
    13    12    11    1
    14    12    13    1
    15    11     6   am
    16    23    22    2
    17     6     5    1
    18     6     7    2
    19     5     8    1
    20    13    20   am
    21    13    14    2
    22    31    32    1
    23    31    28    1
    24    31    29    1
    25    20    21    1
    26    22    29   am
    27    22    21    1
    28    30    28    2
    29     8    10    1
    30     8     9    1
    31    21    24    1
    32    24    25    1
    33    24    26    1
    34    25    27    1
