@<TRIPOS>MOLECULE
3p4v_PMX_A_1.pdb
 22 22 0 0 0
SMALL
GASTEIGER

@<TRIPOS>ATOM
      1  C         17.2030    5.8910   10.7410 C.2   300  PMX300      0.3846
      2  N         17.7600    5.8990   13.1530 N.am  300  PMX300     -0.1915
      3  O         17.1860    4.6670   10.7390 O.co2 300  PMX300     -0.2437
      4 CL         18.8440   12.5130   12.2970 Cl    300  PMX300     -0.0789
      5  CA        17.7150    6.6690   11.9200 C.3   300  PMX300      0.2024
      6  CB        19.0160    7.4160   11.6430 C.3   300  PMX300      0.0596
      7  CG        19.3270    8.6310   12.5030 C.ar  300  PMX300     -0.0188
      8  OAA       15.5140    6.1210   13.6470 O.2   300  PMX300     -0.2684
      9  CAC       20.3140    9.6950   14.6370 C.ar  300  PMX300      0.0426
     10  CAD       15.5870    4.3200   15.5060 C.2   300  PMX300      0.0866
     11  CAE       16.6530    4.6740   14.9560 C.2   300  PMX300      0.0661
     12  CAF       16.5790    5.5950   13.9220 C.2   300  PMX300      0.2656
     13  CAK       19.9200   11.0340   14.1140 C.ar  300  PMX300      0.2061
     14  OAL       20.1980   12.1780   14.8460 O.3   300  PMX300     -0.2857
     15  OAM       16.7660    2.9910   17.1030 O.2   300  PMX300     -0.2449
     16  CAN       15.6490    3.3560   16.6560 C.2   300  PMX300      0.3417
     17  CAS       19.2470   11.1610   12.8130 C.ar  300  PMX300      0.0962
     18  OAU       14.5670    2.8620   17.1050 O.3   300  PMX300     -0.4413
     19  CAV       14.5490    2.1570   18.3050 C.3   300  PMX300      0.2560
     20  CD1       18.9550    9.9270   12.0080 C.ar  300  PMX300      0.0104
     21  CD2       20.0260    8.4970   13.8490 C.ar  300  PMX300     -0.0009
     22  OXT       16.6770    6.5580    9.6600 O.co2 300  PMX300     -0.2437
@<TRIPOS>BOND
     1    22     1   ar
     2     3     1   ar
     3     1     5    1
     4     6     5    1
     5     6     7    1
     6     5     2    1
     7    20     7   ar
     8    20    17   ar
     9     4    17    1
    10     7    21   ar
    11    17    13   ar
    12     2    12   am
    13     8    12    2
    14    21     9   ar
    15    12    11    1
    16    13     9   ar
    17    13    14    1
    18    11    10    2
    19    10    16    1
    20    16    15    2
    21    16    18    1
    22    18    19    1
