@<TRIPOS>MOLECULE
3p4w_DSF_A_1.pdb
 10 9 0 0 0
SMALL
GASTEIGER

@<TRIPOS>ATOM
      1  FAA       47.9420   -6.1330   45.6450 F     319  DSF319     -0.1663
      2  FAB       47.7900   -7.4350   47.2700 F     319  DSF319     -0.1663
      3  FAC       46.6950   -9.6200   46.6550 F     319  DSF319     -0.1942
      4  FAD       47.5090  -10.8990   44.2870 F     319  DSF319     -0.1650
      5  FAE       45.4140  -10.6000   44.7540 F     319  DSF319     -0.1650
      6  FAF       46.3760   -9.4190   43.2650 F     319  DSF319     -0.1650
      7  OAG       46.3560   -7.7050   45.4630 O.3   319  DSF319     -0.2639
      8  CAH       47.0320   -6.8040   46.3540 C.3   319  DSF319      0.4520
      9  CAI       46.9960   -8.9940   45.5070 C.3   319  DSF319      0.3781
     10  CAJ       46.5600  -10.0040   44.4340 C.3   319  DSF319      0.4556
@<TRIPOS>BOND
     1     6    10    1
     2     4    10    1
     3    10     5    1
     4    10     9    1
     5     7     9    1
     6     7     8    1
     7     9     3    1
     8     1     8    1
     9     8     2    1
