@<TRIPOS>MOLECULE
3p4x_ADP_A_1.pdb
 27 29 0 0 0
SMALL
GASTEIGER

@<TRIPOS>ATOM
      1  PB        13.2640  -52.0960    3.8560 P.3   800  ADP800      0.5373
      2  O1B       13.5390  -50.8480    4.6660 O.3   800  ADP800     -0.1143
      3  O2B       12.1780  -52.9820    4.4260 O.3   800  ADP800     -0.1143
      4  O3B       14.5010  -52.8570    3.4340 O.2   800  ADP800     -0.2221
      5  PA        13.0770  -50.3460    1.5140 P.3   800  ADP800      0.2231
      6  O1A       12.2820  -49.1050    1.8310 O.3   800  ADP800     -0.4370
      7  O2A       14.5850  -50.2670    1.4090 O.2   800  ADP800     -0.5169
      8  O3A       12.5970  -51.5640    2.4770 O.3   800  ADP800     -0.2261
      9  O5'       12.5620  -50.9010    0.0950 O.3   800  ADP800     -0.3111
     10  C5'       13.4780  -51.5290   -0.7960 C.3   800  ADP800      0.1813
     11  C4'       13.1370  -51.0990   -2.2110 C.3   800  ADP800      0.1821
     12  O4'       11.7240  -51.1750   -2.4060 O.3   800  ADP800     -0.3135
     13  C3'       13.5460  -49.6550   -2.4560 C.3   800  ADP800      0.2184
     14  O3'       14.5900  -49.6050   -3.4290 O.3   800  ADP800     -0.2174
     15  C2'       12.3110  -48.9470   -2.9780 C.3   800  ADP800      0.2570
     16  O2'       12.5850  -48.3020   -4.2280 O.3   800  ADP800     -0.2130
     17  C1'       11.2680  -50.0400   -3.1470 C.3   800  ADP800      0.3186
     18  N9         9.9660  -49.5790   -2.6130 N.pl3 800  ADP800     -0.1439
     19  C8         9.7960  -48.9040   -1.4620 C.3   800  ADP800      0.3377
     20  N7         8.4860  -48.6190   -1.2540 N.2   800  ADP800     -0.2095
     21  C5         7.7920  -49.1180   -2.2920 C.2   800  ADP800      0.2526
     22  C6         6.3660  -49.1620   -2.6920 C.2   800  ADP800      0.4393
     23  N6         5.4290  -48.5950   -1.8900 N.pl3 800  ADP800      0.2180
     24  N1         6.0540  -49.7800   -3.8670 N.2   800  ADP800      0.0021
     25  C2         7.0010  -50.3400   -4.6480 C.3   800  ADP800      0.5254
     26  N3         8.3170  -50.3350   -4.3410 N.2   800  ADP800     -0.0055
     27  C4         8.7710  -49.7480   -3.1970 C.2   800  ADP800      0.3518
@<TRIPOS>BOND
     1    25    26    1
     2    25    24    1
     3    26    27    2
     4    16    15    1
     5    24    22    2
     6    14    13    1
     7    27    18    1
     8    27    21    1
     9    17    15    1
    10    17    18    1
    11    17    12    1
    12    15    13    1
    13    22    21    1
    14    22    23    1
    15    18    19    1
    16    13    11    1
    17    12    11    1
    18    21    20    2
    19    11    10    1
    20    19    20    1
    21    10     9    1
    22     9     5    1
    23     7     5    2
    24     5     6    1
    25     5     8    1
    26     8     1    1
    27     4     1    2
    28     1     3    1
    29     1     2    1
