@<TRIPOS>MOLECULE
3p50_PFL_A_1.pdb
 13 13 0 0 0
SMALL
GASTEIGER

@<TRIPOS>ATOM
      1  O1        45.7150   -4.8190   48.0680 O.3   319  PFL319     -0.2872
      2  C1        46.3200   -5.7830   48.8200 C.ar  319  PFL319      0.1877
      3  C2        46.2500   -5.5670   50.2700 C.ar  319  PFL319      0.0161
      4  C6        46.9960   -6.9640   48.2350 C.ar  319  PFL319      0.0161
      5  C3        46.8760   -6.5780   51.1200 C.ar  319  PFL319     -0.0011
      6  C7        45.4990   -4.3040   50.8530 C.3   319  PFL319      0.0255
      7  C4        47.5320   -7.7280   50.5660 C.ar  319  PFL319     -0.0004
      8  C5        47.5860   -7.9100   49.1520 C.ar  319  PFL319     -0.0011
      9  C10       47.1010   -7.2090   46.7120 C.3   319  PFL319      0.0255
     10  C8        43.9410   -4.3900   50.4920 C.3   319  PFL319      0.0048
     11  C9        45.7690   -4.1510   52.3500 C.3   319  PFL319      0.0048
     12  C11       47.0330   -8.6620   46.4380 C.3   319  PFL319      0.0048
     13  C12       46.0450   -6.5800   45.8470 C.3   319  PFL319      0.0048
@<TRIPOS>BOND
     1    13     9    1
     2    12     9    1
     3     9     4    1
     4     1     2    1
     5     4     2   ar
     6     4     8   ar
     7     2     3   ar
     8     8     7   ar
     9     3     6    1
    10     3     5   ar
    11    10     6    1
    12     7     5   ar
    13     6    11    1
