@<TRIPOS>MOLECULE
3p55_670_A_1.pdb
 26 29 0 0 0
SMALL
GASTEIGER

@<TRIPOS>ATOM
      1 FE         20.3050   11.0480   13.2600 Fe    300  670300      0.0000
      2  NAA       17.3950    8.6660   12.2590 N.2   300  670300      0.0000
      3  NAB       16.7770    7.7820   12.8560 N.pl3 300  670300      0.0000
      4  CAC       17.8640    5.0920   14.7060 C.ar  300  670300      0.0000
      5  CAD       17.3760    4.0410   15.4740 C.ar  300  670300      0.0000
      6  OAE       13.9490    2.7540   16.8760 O.2   300  670300      0.0000
      7  CAF       18.6470    8.5980   12.6960 C.2   300  670300      0.0000
      8  NAG       17.5050    7.1570   13.6300 N.pl3 300  670300      0.0000
      9  CAH       17.0330    6.1530   14.3640 C.ar  300  670300      0.0000
     10  CAI       16.0530    4.0460   15.9000 C.ar  300  670300      0.0000
     11  SAJ       15.4490    2.7260   16.8800 S.O2  300  670300      0.0000
     12  NAK       15.9630    1.3110   16.2580 N.3   300  670300      0.0000
     13  CAL       18.7490    7.6290   13.5950 C.3   300  670300      0.0000
     14  CAM       15.7110    6.1600   14.7950 C.ar  300  670300      0.0000
     15  CAN       15.2210    5.1070   15.5610 C.ar  300  670300      0.0000
     16  OAO       15.9520    2.8750   18.2850 O.2   300  670300      0.0000
     17  CAP       19.6440    9.3730   12.2780 C.2   300  670300      0.0000
     18  CAQ       20.9340    9.2250   12.5680 C.3   300  670300      0.0000
     19  CAR       21.6110   10.1820   11.9390 C.2   300  670300      0.0000
     20  CAS       20.7390   10.9230   11.2610 C.2   300  670300      0.0000
     21  CAT       19.5240   10.4230   11.4700 C.2   300  670300      0.0000
     22  CAU       19.1080   11.6030   14.8300 C.2   300  670300      0.0000
     23  CAV       19.3310   12.6640   14.0600 C.2   300  670300      0.0000
     24  CAW       20.6400   12.9060   14.0590 C.2   300  670300      0.0000
     25  CAX       21.2260   11.9920   14.8280 C.2   300  670300      0.0000
     26  CAY       20.2800   11.1870   15.3040 C.3   300  670300      0.0000
@<TRIPOS>BOND
     1    20    21    1
     2    20    19    2
     3    21    17    2
     4    19    18    1
     5     2     7    2
     6     2     3    1
     7    17    18    1
     8    17     7    1
     9    18     1    1
    10     7    13    1
    11     3     8    1
    12     1    26    1
    13    13     8    1
    14     8     9    1
    15    24    23    1
    16    24    25    2
    17    23    22    2
    18     9     4   ar
    19     9    14   ar
    20     4     5   ar
    21    14    15   ar
    22    25    26    1
    23    22    26    1
    24     5    10   ar
    25    15    10   ar
    26    10    11    1
    27    12    11    1
    28     6    11    2
    29    11    16    2
