@<TRIPOS>MOLECULE
3p58_P58_A_1.pdb
 12 12 0 0 0
SMALL
GASTEIGER

@<TRIPOS>ATOM
      1  CAA       -6.0560    3.8860   15.0950 C.3   263  P58263      0.1134
      2  SAB       -7.3050    1.7730   16.8420 S.3   263  P58263     -0.0271
      3  SAC       -4.9680    0.0320   16.2240 S.2   263  P58263     -0.0271
      4  CAD       -4.8820    1.1590   10.4940 C.ar  263  P58263     -0.0000
      5  CAE       -4.7370    2.5580   10.7550 C.ar  263  P58263     -0.0003
      6  CAF       -4.6980    0.2420   11.5640 C.ar  263  P58263     -0.0003
      7  CAG       -4.4700    3.0050   12.0660 C.ar  263  P58263     -0.0026
      8  CAH       -4.4200    0.6900   12.8780 C.ar  263  P58263     -0.0026
      9  CAI       -4.0060    2.4630   14.5590 C.3   263  P58263      0.1186
     10  CAJ       -5.6820    1.6540   16.2110 C.2   263  P58263      0.1215
     11  CAK       -4.2880    2.0620   13.1080 C.ar  263  P58263     -0.0024
     12  NAL       -5.2840    2.6460   15.2760 N.am  263  P58263     -0.2911
@<TRIPOS>BOND
     1     4     5   ar
     2     4     6   ar
     3     5     7   ar
     4     6     8   ar
     5     7    11   ar
     6     8    11   ar
     7    11     9    1
     8     9    12    1
     9     1    12    1
    10    12    10    1
    11    10     3    2
    12    10     2    1
