@<TRIPOS>MOLECULE
3p5d_MAN_A_1.pdb
 11 11 0 0 0
SMALL
GASTEIGER

@<TRIPOS>ATOM
      1  C1        31.1010   44.6610    6.6710 C.3   402  MAN402      0.1777
      2  C2        30.4710   43.5990    7.5860 C.3   402  MAN402      0.2141
      3  C3        31.4210   42.4080    7.7260 C.3   402  MAN402      0.2173
      4  C4        31.8690   41.9300    6.3580 C.3   402  MAN402      0.2142
      5  C5        32.4470   43.0950    5.5660 C.3   402  MAN402      0.1810
      6  C6        32.9040   42.6380    4.1880 C.3   402  MAN402      0.2141
      7  O2        29.2110   43.2030    7.0790 O.3   402  MAN402     -0.2176
      8  O3        30.8130   41.3120    8.3870 O.3   402  MAN402     -0.2175
      9  O4        32.8110   40.8950    6.5360 O.3   402  MAN402     -0.2176
     10  O5        31.4520   44.0840    5.4330 O.3   402  MAN402     -0.3481
     11  O6        33.6380   43.6650    3.5610 O.3   402  MAN402     -0.2176
@<TRIPOS>BOND
     1    11     6    1
     2     6     5    1
     3    10     5    1
     4    10     1    1
     5     5     4    1
     6     4     9    1
     7     4     3    1
     8     1     2    1
     9     7     2    1
    10     2     3    1
    11     3     8    1
