@<TRIPOS>MOLECULE
3p5e_MAN_A_1.pdb
 12 12 0 0 0
SMALL
GASTEIGER

@<TRIPOS>ATOM
      1  C1        31.3000   44.6930    6.8910 C.3   402  MAN402      0.3024
      2  C2        30.5990   43.6210    7.7290 C.3   402  MAN402      0.2434
      3  C3        31.4810   42.3850    7.7990 C.3   402  MAN402      0.2199
      4  C4        31.8710   41.9440    6.4070 C.3   402  MAN402      0.2144
      5  C5        32.5330   43.0950    5.6630 C.3   402  MAN402      0.1836
      6  C6        32.9110   42.6920    4.2440 C.3   402  MAN402      0.2142
      7  O1        32.4640   45.1290    7.5570 O.3   402  MAN402     -0.1869
      8  O2        29.3580   43.2970    7.1450 O.3   402  MAN402     -0.2148
      9  O3        30.8070   41.3080    8.4190 O.3   402  MAN402     -0.2174
     10  O4        32.7630   40.8740    6.5710 O.3   402  MAN402     -0.2176
     11  O5        31.6470   44.1890    5.6160 O.3   402  MAN402     -0.3236
     12  O6        33.7080   43.7110    3.6740 O.3   402  MAN402     -0.2176
@<TRIPOS>BOND
     1    12     6    1
     2     6     5    1
     3    11     5    1
     4    11     1    1
     5     5     4    1
     6     4    10    1
     7     4     3    1
     8     1     7    1
     9     1     2    1
    10     8     2    1
    11     2     3    1
    12     3     9    1
