@<TRIPOS>MOLECULE
3p5f_MAN_A_1.pdb
 12 12 0 0 0
SMALL
GASTEIGER

@<TRIPOS>ATOM
      1  C1        31.2040   44.6710    6.6250 C.3   402  MAN402      0.3024
      2  C2        30.5110   43.5470    7.3900 C.3   402  MAN402      0.2434
      3  C3        31.4040   42.3150    7.4530 C.3   402  MAN402      0.2199
      4  C4        31.9200   41.9600    6.0710 C.3   402  MAN402      0.2144
      5  C5        32.5550   43.1820    5.4090 C.3   402  MAN402      0.1836
      6  C6        33.0370   42.8700    3.9970 C.3   402  MAN402      0.2142
      7  O1        32.3450   45.0930    7.3380 O.3   402  MAN402     -0.1869
      8  O2        29.2840   43.2150    6.7740 O.3   402  MAN402     -0.2148
      9  O3        30.6760   41.2120    7.9360 O.3   402  MAN402     -0.2174
     10  O4        32.8490   40.9060    6.2050 O.3   402  MAN402     -0.2176
     11  O5        31.6010   44.2200    5.3470 O.3   402  MAN402     -0.3236
     12  O6        33.8530   43.9280    3.5440 O.3   402  MAN402     -0.2176
@<TRIPOS>BOND
     1    12     6    1
     2     6     5    1
     3    11     5    1
     4    11     1    1
     5     5     4    1
     6     4    10    1
     7     4     3    1
     8     1     7    1
     9     1     2    1
    10     8     2    1
    11     2     3    1
    12     3     9    1
