@<TRIPOS>MOLECULE
3p5g_GLA_A_1.pdb
 11 11 0 0 0
SMALL
GASTEIGER

@<TRIPOS>ATOM
      1  C1        35.3890   42.5640    1.5540 C.3   400  GLA400      0.1777
      2  C2        34.4170   41.9670    0.5430 C.3   400  GLA400      0.2141
      3  C3        33.7650   40.7240    1.1240 C.3   400  GLA400      0.2173
      4  C4        34.8410   39.7400    1.5630 C.3   400  GLA400      0.2142
      5  C5        35.7980   40.4340    2.5200 C.3   400  GLA400      0.1810
      6  C6        36.9300   39.5100    2.9600 C.3   400  GLA400      0.2141
      7  O2        33.4060   42.9030    0.2450 O.3   400  GLA400     -0.2176
      8  O3        32.9450   40.1320    0.1480 O.3   400  GLA400     -0.2175
      9  O4        35.5430   39.2880    0.4240 O.3   400  GLA400     -0.2176
     10  O5        36.3470   41.5820    1.8990 O.3   400  GLA400     -0.3481
     11  O6        37.6800   40.1400    3.9770 O.3   400  GLA400     -0.2176
@<TRIPOS>BOND
     1     8     3    1
     2     7     2    1
     3     9     4    1
     4     2     3    1
     5     2     1    1
     6     3     4    1
     7     1    10    1
     8     4     5    1
     9    10     5    1
    10     5     6    1
    11     6    11    1
