@<TRIPOS>MOLECULE
3p5g_FUC_A_1.pdb
 10 10 0 0 0
SMALL
GASTEIGER

@<TRIPOS>ATOM
      1  C1        32.6290   42.9600    4.9610 C.3   402  FUC402      0.1776
      2  C2        31.9430   41.8570    5.7650 C.3   402  FUC402      0.2141
      3  C3        31.6670   42.3300    7.1780 C.3   402  FUC402      0.2172
      4  C4        30.8670   43.6220    7.1480 C.3   402  FUC402      0.2116
      5  C5        31.5770   44.6380    6.2580 C.3   402  FUC402      0.1483
      6  C6        30.7120   45.8860    6.1310 C.3   402  FUC402      0.0349
      7  O2        32.7980   40.7390    5.8470 O.3   402  FUC402     -0.2176
      8  O3        30.9720   41.3110    7.8880 O.3   402  FUC402     -0.2175
      9  O4        29.5730   43.3990    6.6330 O.3   402  FUC402     -0.2177
     10  O5        31.8220   44.1210    4.9620 O.3   402  FUC402     -0.3508
@<TRIPOS>BOND
     1     1    10    1
     2     1     2    1
     3    10     5    1
     4     2     7    1
     5     2     3    1
     6     6     5    1
     7     5     4    1
     8     9     4    1
     9     4     3    1
    10     3     8    1
