@<TRIPOS>MOLECULE
3p5h_BGC_A_1.pdb
 12 12 0 0 0
SMALL
GASTEIGER

@<TRIPOS>ATOM
      1  C2        31.9630   42.2330    6.6230 C.3   400  BGC400      0.2434
      2  C3        32.5670   43.4710    5.9650 C.3   400  BGC400      0.2199
      3  C4        31.5720   44.6270    6.0330 C.3   400  BGC400      0.2144
      4  C5        31.0220   44.8170    7.4440 C.3   400  BGC400      0.1836
      5  C6        29.9180   45.8690    7.4420 C.3   400  BGC400      0.2142
      6  C1        31.4630   42.5620    8.0150 C.3   400  BGC400      0.3024
      7  O1        30.8910   41.3800    8.5370 O.3   400  BGC400     -0.1869
      8  O2        32.9070   41.1860    6.6850 O.3   400  BGC400     -0.2148
      9  O3        32.8500   43.1540    4.6220 O.3   400  BGC400     -0.2174
     10  O4        32.1870   45.8250    5.6090 O.3   400  BGC400     -0.2176
     11  O5        30.5030   43.6060    7.9540 O.3   400  BGC400     -0.3236
     12  O6        28.9570   45.5330    6.4660 O.3   400  BGC400     -0.2176
@<TRIPOS>BOND
     1     9     2    1
     2    10     3    1
     3     2     3    1
     4     2     1    1
     5     3     4    1
     6    12     5    1
     7     1     8    1
     8     1     6    1
     9     5     4    1
    10     4    11    1
    11    11     6    1
    12     6     7    1
