@<TRIPOS>MOLECULE
3p5i_G6S_A_1.pdb
 15 15 0 0 0
SMALL
GASTEIGER

@<TRIPOS>ATOM
      1  C1        32.2820   44.4450    7.5140 C.3   400  G6S400      0.1777
      2  C2        32.8740   43.1110    7.0750 C.3   400  G6S400      0.2141
      3  C3        31.9860   42.4410    6.0380 C.3   400  G6S400      0.2172
      4  C4        30.5430   42.4050    6.5290 C.3   400  G6S400      0.2142
      5  C5        30.1040   43.7580    7.0840 C.3   400  G6S400      0.1801
      6  C6        28.7140   43.6680    7.7030 C.3   400  G6S400      0.2045
      7  O2        34.1520   43.3300    6.5210 O.3   400  G6S400     -0.2176
      8  O4        30.4120   41.3890    7.5000 O.3   400  G6S400     -0.2176
      9  O5        31.0020   44.2270    8.0650 O.3   400  G6S400     -0.3481
     10  O6        27.8470   43.0930    6.7540 O.3   400  G6S400     -0.2384
     11  S         26.4120   43.0110    7.3820 S.3   400  G6S400     -0.0001
     12  O7        25.7370   41.7200    6.9180 O.2   400  G6S400     -0.3452
     13  O8        26.5200   43.0210    8.9070 O.3   400  G6S400     -0.2682
     14  O9        25.6030   44.2260    6.9320 O.2   400  G6S400     -0.3452
     15  O3        32.4380   41.1200    5.8340 O.3   400  G6S400     -0.2175
@<TRIPOS>BOND
     1    15     3    1
     2     3     4    1
     3     3     2    1
     4     7     2    1
     5     4     5    1
     6     4     8    1
     7    10    11    1
     8    10     6    1
     9    12    11    2
    10    14    11    2
    11     2     1    1
    12     5     6    1
    13     5     9    1
    14    11    13    1
    15     1     9    1
