@<TRIPOS>MOLECULE
3p5k_P5K_A_1.pdb
 33 36 0 0 0
SMALL
GASTEIGER

@<TRIPOS>ATOM
      1  C1        49.3880   27.3340  -16.9430 C.ar  362  P5K362      0.0085
      2  C2        50.5990   28.0370  -16.7650 C.ar  362  P5K362      0.0752
      3  C3        51.0900   28.6110  -17.9580 C.ar  362  P5K362      0.1084
      4  S4        49.8890   28.2890  -19.2010 S.2   362  P5K362     -0.0746
      5  C5        48.8690   27.3240  -18.2260 C.ar  362  P5K362      0.0080
      6  C6        47.6130   26.7320  -18.8380 C.3   362  P5K362      0.0246
      7  C7        46.7920   27.6530  -19.7150 C.3   362  P5K362      0.0049
      8  C8        46.6810   26.4300  -17.6890 C.3   362  P5K362      0.0049
      9  C9        47.9830   25.5890  -19.7590 C.3   362  P5K362      0.0049
     10  N10       52.2150   29.3510  -18.0840 N.am  362  P5K362     -0.1539
     11  C11       51.3610   28.1210  -15.4400 C.2   362  P5K362      0.2509
     12  O12       51.7330   27.1250  -14.9560 O.2   362  P5K362     -0.2698
     13  N13       51.6840   29.1810  -14.6680 N.am  362  P5K362     -0.2724
     14  C14       52.4040   30.2800  -19.0430 C.2   362  P5K362      0.3482
     15  N15       53.5330   30.9340  -19.1790 N.am  362  P5K362     -0.1607
     16  O16       51.4070   30.5020  -19.8670 O.2   362  P5K362     -0.2484
     17  C17       53.8130   32.0040  -20.0030 C.ar  362  P5K362      0.0749
     18  C18       53.0070   33.1390  -19.9120 C.ar  362  P5K362      0.0166
     19  C19       53.2620   34.2450  -20.7690 C.ar  362  P5K362      0.0013
     20  C20       54.3470   34.2030  -21.6480 C.ar  362  P5K362      0.0001
     21  C21       55.1640   33.0310  -21.7770 C.ar  362  P5K362      0.0013
     22  C22       54.9140   31.9640  -20.9390 C.ar  362  P5K362      0.0154
     23  C23       51.5570   30.5840  -15.1010 C.3   362  P5K362      0.1190
     24  C24       52.2430   28.9240  -13.2770 C.3   362  P5K362      0.1190
     25  C25       56.2190   33.0240  -22.7030 C.ar  362  P5K362      0.0000
     26  C26       57.0840   31.9300  -22.8490 C.ar  362  P5K362      0.0000
     27  C27       56.8120   30.8400  -22.0120 C.ar  362  P5K362      0.0000
     28  C28       55.7620   30.8460  -21.0780 C.ar  362  P5K362      0.0013
     29  C29       50.7450   31.3280  -14.0140 C.3   362  P5K362      0.1723
     30  C30       51.5150   29.6600  -12.1260 C.3   362  P5K362      0.1723
     31  S31       51.6540   31.3010  -12.5320 S.O2  362  P5K362     -0.0066
     32  O32       50.6480   32.4090  -11.6980 O.2   362  P5K362     -0.1729
     33  O33       53.0380   31.9310  -13.2860 O.2   362  P5K362     -0.1729
@<TRIPOS>BOND
     1    26    25   ar
     2    26    27   ar
     3    25    21   ar
     4    27    28   ar
     5    21    20   ar
     6    21    22   ar
     7    20    19   ar
     8    28    22   ar
     9    22    17   ar
    10    19    18   ar
    11    17    18   ar
    12    17    15    1
    13    16    14    2
    14     9     6    1
    15     7     6    1
    16     4     5   ar
    17     4     3   ar
    18    15    14   am
    19    14    10   am
    20     6     5    1
    21     6     8    1
    22     5     1   ar
    23    10     3    1
    24     3     2   ar
    25     1     2   ar
    26     2    11    1
    27    11    12    2
    28    11    13   am
    29    23    13    1
    30    23    29    1
    31    13    24    1
    32    29    31    1
    33    33    31    2
    34    24    30    1
    35    31    30    1
    36    31    32    2
