@<TRIPOS>MOLECULE
3p5l_IT5_A_1.pdb
 17 18 0 0 0
SMALL
GASTEIGER

@<TRIPOS>ATOM
      1  N11       -4.6910    4.1960   10.8940 N.1   263  IT5263     -0.1956
      2  N22       -5.2930    2.5690   14.8150 N.am  263  IT5263     -0.2969
      3  SAB       -4.9140    0.1470   15.9500 S.2   263  IT5263     -0.0271
      4  SAC       -7.2240    1.8800   16.6470 S.3   263  IT5263     -0.0271
      5  CAD       -4.4160    4.3790   11.9910 C.1   263  IT5263      0.0753
      6  CAE       -1.1950    7.9350   13.6880 C.ar  263  IT5263     -0.0000
      7  CAF       -1.0450    6.9260   12.6740 C.ar  263  IT5263     -0.0003
      8  CAG       -2.2550    7.8440   14.6250 C.ar  263  IT5263     -0.0003
      9  CAH       -1.9570    5.8840   12.6210 C.ar  263  IT5263     -0.0033
     10  CAI       -3.1830    6.7990   14.5820 C.ar  263  IT5263     -0.0033
     11  CAJ       -6.1170    3.7260   14.4730 C.3   263  IT5263      0.0931
     12  CAK       -4.2210    2.2350   13.9030 C.3   263  IT5263      0.0931
     13  CAL       -5.2580    4.9220   14.2010 C.3   263  IT5263      0.0397
     14  CAM       -3.3410    3.4160   13.9020 C.3   263  IT5263      0.0397
     15  CAN       -5.6800    1.7120   15.8590 C.2   263  IT5263      0.1212
     16  CAO       -3.0460    5.8060   13.5610 C.ar  263  IT5263     -0.0096
     17  CAQ       -4.0430    4.6290   13.4630 C.3   263  IT5263      0.1013
@<TRIPOS>BOND
     1     1     5    3
     2     5    17    1
     3     9     7   ar
     4     9    16   ar
     5     7     6   ar
     6    17    16    1
     7    17    14    1
     8    17    13    1
     9    16    10   ar
    10     6     8   ar
    11    14    12    1
    12    12     2    1
    13    13    11    1
    14    11     2    1
    15    10     8   ar
    16     2    15    1
    17    15     3    2
    18    15     4    1
