@<TRIPOS>MOLECULE
3p5n_RBF_A_1.pdb
 27 29 0 0 0
SMALL
GASTEIGER

@<TRIPOS>ATOM
      1  N1        20.2620  -10.1170   78.7880 N.2   190  RBF190     -0.2887
      2  C2        19.6190  -10.2120   80.0100 C.1   190  RBF190      0.3669
      3  O2        18.6860   -9.4660   80.2820 O.2   190  RBF190     -0.1744
      4  N3        20.0210  -11.1430   80.9380 N.2   190  RBF190     -0.2300
      5  C4        21.0620  -11.9930   80.6490 C.1   190  RBF190      0.2513
      6  O4        21.4440  -12.8420   81.4520 O.2   190  RBF190     -0.2057
      7  C4A       21.6970  -11.9030   79.4310 C.2   190  RBF190      0.2706
      8  N5        22.7270  -12.7700   79.1900 N.2   190  RBF190     -0.3841
      9  C5A       23.3880  -12.7090   77.9910 C.2   190  RBF190      0.1452
     10  C6        24.4260  -13.6020   77.7960 C.2   190  RBF190      0.0252
     11  C7        25.1200  -13.5800   76.6090 C.2   190  RBF190     -0.0375
     12  C7M       26.2330  -14.5660   76.4300 C.3   190  RBF190      0.0268
     13  C8        24.7740  -12.6620   75.6170 C.3   190  RBF190      0.0417
     14  C8M       25.5340  -12.6370   74.3230 C.3   190  RBF190      0.0091
     15  C9        23.7290  -11.7600   75.8170 C.2   190  RBF190     -0.0049
     16  C9A       23.0220  -11.7760   77.0150 C.2   190  RBF190      0.0795
     17  N10       21.9820  -10.8800   77.2610 N.pl3 190  RBF190     -0.2545
     18  C10       21.3110  -10.9620   78.4810 C.2   190  RBF190      0.2449
     19  C1'       21.5260   -9.8730   76.2310 C.3   190  RBF190      0.1336
     20  C2'       22.4720   -8.7570   75.8240 C.3   190  RBF190      0.2048
     21  O2'       22.2370   -7.6900   76.7110 O.3   190  RBF190     -0.2185
     22  C3'       22.0730   -8.3920   74.3860 C.3   190  RBF190      0.2166
     23  O3'       21.5630   -9.5530   73.7760 O.3   190  RBF190     -0.2175
     24  C4'       23.1380   -7.8140   73.4330 C.3   190  RBF190      0.2175
     25  O4'       22.6180   -7.7980   72.1100 O.3   190  RBF190     -0.2175
     26  C5'       24.4600   -8.5870   73.4170 C.3   190  RBF190      0.2175
     27  O5'       25.4260   -7.8870   72.6500 O.3   190  RBF190     -0.2175
@<TRIPOS>BOND
     1    25    24    1
     2    27    26    1
     3    26    24    1
     4    24    22    1
     5    23    22    1
     6    14    13    1
     7    22    20    1
     8    13    15    1
     9    13    11    1
    10    15    16    2
    11    20    19    1
    12    20    21    1
    13    19    17    1
    14    12    11    1
    15    11    10    2
    16    16    17    1
    17    16     9    1
    18    17    18    1
    19    10     9    1
    20     9     8    2
    21    18     1    2
    22    18     7    1
    23     1     2    2
    24     8     7    2
    25     7     5    1
    26     2     3    2
    27     2     4    2
    28     5     4    2
    29     5     6    2
