@<TRIPOS>MOLECULE
3p5o_EAM_A_1.pdb
 30 33 0 0 0
SMALL
GASTEIGER

@<TRIPOS>ATOM
      1 CL         30.0640   48.5180   -7.0500 Cl      1  EAM1       -0.0822
      2  C10       29.0760   49.1150   -5.7480 C.ar    1  EAM1        0.0577
      3  C9        29.4380   48.8300   -4.4430 C.ar    1  EAM1        0.0114
      4  C8        28.6500   49.2820   -3.4020 C.ar    1  EAM1        0.0023
      5  C11       27.9370   49.8640   -6.0320 C.ar    1  EAM1        0.0114
      6  C12       27.1490   50.3230   -4.9760 C.ar    1  EAM1        0.0023
      7  C7        27.5180   50.0660   -3.6500 C.ar    1  EAM1        0.0173
      8  C6        26.6630   50.4900   -2.5010 C.2     1  EAM1        0.0779
      9  N2        25.4340   50.7350   -2.8010 N.2     1  EAM1       -0.2641
     10  C13       27.2720   50.4370   -1.1350 C.ar    1  EAM1        0.0364
     11  C19       26.5010   50.1460   -0.0080 C.ar    1  EAM1        0.0678
     12  C18       26.9420   50.5620    1.2500 C.ar    1  EAM1        0.0208
     13  C17       28.1760   51.1830    1.4220 C.ar    1  EAM1        0.0384
     14  C15       28.9860   51.4230    0.3120 C.ar    1  EAM1        0.1389
     15  O2        30.2210   52.0450    0.4010 O.3     1  EAM1       -0.4714
     16  C16       30.8290   52.2390    1.6800 C.3     1  EAM1        0.2525
     17  C14       28.5320   51.0310   -0.9440 C.ar    1  EAM1        0.0398
     18  N3        25.1990   49.5540   -0.0700 N.ar    1  EAM1       -0.2791
     19  C22       24.1840   50.0970   -0.8260 C.ar    1  EAM1        0.1697
     20  N5        23.0880   49.3970   -0.6560 N.ar    1  EAM1       -0.1313
     21  N4        23.3830   48.3730    0.2570 N.ar    1  EAM1       -0.1333
     22  C20       24.6440   48.4840    0.5990 C.ar    1  EAM1        0.1473
     23  C21       25.3360   47.5810    1.5530 C.3     1  EAM1        0.0742
     24  C5        24.5290   51.2470   -1.7650 C.3     1  EAM1        0.1707
     25  C4        23.2930   51.7520   -2.5170 C.3     1  EAM1        0.1188
     26  C3        23.6190   52.9410   -3.4060 C.2     1  EAM1        0.2438
     27  O1        24.6110   53.6270   -3.1960 O.2     1  EAM1       -0.2733
     28  N1        22.7760   53.2000   -4.4070 N.am    1  EAM1       -0.2054
     29  C2        23.0040   54.3190   -5.3120 C.3     1  EAM1        0.1152
     30  C1        21.7710   54.6940   -6.1080 C.3     1  EAM1        0.0252
@<TRIPOS>BOND
     1     1     2    1
     2    30    29    1
     3     5     2   ar
     4     5     6   ar
     5     2     3   ar
     6    29    28    1
     7     6     7   ar
     8     3     4   ar
     9    28    26   am
    10     7     4   ar
    11     7     8    1
    12    26    27    2
    13    26    25    1
    14     9     8    2
    15     9    24    1
    16    25    24    1
    17     8    10    1
    18    24    19    1
    19    10    17   ar
    20    10    11   ar
    21    17    14   ar
    22    19    20   ar
    23    19    18   ar
    24    20    21   ar
    25    18    11    1
    26    18    22   ar
    27    11    12   ar
    28    21    22   ar
    29    14    15    1
    30    14    13   ar
    31    15    16    1
    32    22    23    1
    33    12    13   ar
