@<TRIPOS>MOLECULE
3p5p_A3C_A_1.pdb
 29 30 0 0 0
SMALL
GASTEIGER

@<TRIPOS>ATOM
      1  C01       32.7400   -9.4190  -16.9000 C.3   911  A3C911      0.1664
      2  O01       33.7600   -9.9660  -16.0980 O.3   911  A3C911     -0.3123
      3  C02       31.4220  -10.1960  -16.8910 C.3   911  A3C911      0.1051
      4  P02       34.8690  -10.9510  -16.7460 P.3   911  A3C911      0.2230
      5  N03       31.1750  -10.9530  -15.6830 N.3   911  A3C911     -0.2694
      6  O03       34.3890  -12.4720  -16.5260 O.3   911  A3C911     -0.2261
      7  P04       34.1320  -12.9880  -15.0170 P.3   911  A3C911      0.5373
      8  O05       34.0190  -14.4670  -15.0680 O.2   911  A3C911     -0.2221
      9  O06       36.2120  -10.6440  -16.1710 O.3   911  A3C911     -0.4370
     10  O07       34.9420  -10.6960  -18.1890 O.2   911  A3C911     -0.5169
     11  O08       32.9190  -12.4050  -14.3910 O.3   911  A3C911     -0.1143
     12  O09       35.2640  -12.7750  -14.0730 O.3   911  A3C911     -0.1143
     13  C11       30.6650  -10.0330  -14.6840 C.3   911  A3C911      0.0725
     14  C12       29.5130   -9.1550  -15.2010 C.3   911  A3C911      0.0213
     15  C13       30.2510  -12.0450  -15.9070 C.3   911  A3C911      0.0897
     16  C21       28.5300   -8.7420  -14.0810 C.3   911  A3C911      0.0197
     17  C22       29.2740   -7.8630  -13.1040 C.2   911  A3C911     -0.0445
     18  C23       28.3680   -7.6150  -11.9450 C.3   911  A3C911      0.0220
     19  C24       26.9460   -7.1400  -12.2530 C.3   911  A3C911      0.0043
     20  C25       26.2640   -8.0690  -13.2640 C.3   911  A3C911      0.0006
     21  C26       24.7910   -7.6810  -13.4780 C.3   911  A3C911      0.0000
     22  C27       24.2730   -8.6450  -14.5460 C.3   911  A3C911      0.0000
     23  C28       25.1150   -8.6210  -15.8170 C.3   911  A3C911      0.0000
     24  C29       26.5460   -9.0850  -15.5460 C.3   911  A3C911      0.0003
     25  C30       27.1670   -8.1570  -14.5020 C.3   911  A3C911      0.0035
     26  C31       30.4680   -7.2600  -13.0450 C.2   911  A3C911     -0.0091
     27  C32       24.6170   -6.2430  -13.9840 C.3   911  A3C911      0.0000
     28  C33       23.9550   -7.8990  -12.2160 C.3   911  A3C911      0.0000
     29  C34       27.5000   -6.8910  -15.2940 C.3   911  A3C911      0.0003
@<TRIPOS>BOND
     1    10     4    2
     2     1     3    1
     3     1     2    1
     4     3     5    1
     5     4     6    1
     6     4     9    1
     7     4     2    1
     8     6     7    1
     9    15     5    1
    10    23    24    1
    11    23    22    1
    12     5    13    1
    13    24    25    1
    14    29    25    1
    15    14    13    1
    16    14    16    1
    17     8     7    2
    18     7    11    1
    19     7    12    1
    20    22    21    1
    21    25    16    1
    22    25    20    1
    23    16    17    1
    24    27    21    1
    25    21    20    1
    26    21    28    1
    27    20    19    1
    28    17    26    2
    29    17    18    1
    30    19    18    1
