@<TRIPOS>MOLECULE
3p5q_HEM_A_1.pdb
 43 50 0 0 0
SMALL
GASTEIGER

@<TRIPOS>ATOM
      1  CHA       16.4490    1.0310   16.8650 C.2   142  HEM142      0.0000
      2  CHB       14.0990    5.2450   16.1630 C.2   142  HEM142      0.0000
      3  CHC       10.9370    3.1170   13.1570 C.2   142  HEM142      0.0000
      4  CHD       12.7570   -1.1840   14.5580 C.2   142  HEM142      0.0000
      5  C1A       16.1150    2.3730   16.9180 C.2   142  HEM142      0.0000
      6  C2A       16.8310    3.4160   17.6230 C.2   142  HEM142      0.0000
      7  C3A       16.1810    4.5780   17.4410 C.2   142  HEM142      0.0000
      8  C4A       15.0280    4.3170   16.6000 C.2   142  HEM142      0.0000
      9  CMA       16.5710    5.9700   18.0100 C.3   142  HEM142      0.0000
     10  CAA       18.1180    3.2050   18.4440 C.3   142  HEM142      0.0000
     11  CBA       17.8810    2.4270   19.7270 C.3   142  HEM142      0.0000
     12  CGA       19.1960    2.2200   20.4500 C.2   142  HEM142      0.0000
     13  O1A       19.1790    1.6220   21.5600 O.co2 142  HEM142      0.0000
     14  O2A       20.2690    2.6410   19.9260 O.co2 142  HEM142      0.0000
     15  C1B       13.0700    5.0630   15.2580 C.ar  142  HEM142      0.0000
     16  C2B       12.1900    6.0940   14.7330 C.ar  142  HEM142      0.0000
     17  C3B       11.3280    5.5120   13.8850 C.ar  142  HEM142      0.0000
     18  C4B       11.5970    4.0810   13.8870 C.ar  142  HEM142      0.0000
     19  CMB       12.3200    7.6000   15.0580 C.3   142  HEM142      0.0000
     20  CAB       10.1850    6.1460   13.0570 C.2   142  HEM142      0.0000
     21  CBB        9.6180    7.2880   13.4270 C.2   142  HEM142      0.0000
     22  C1C       11.1320    1.7530   13.3230 C.2   142  HEM142      0.0000
     23  C2C       10.2630    0.7230   12.8100 C.2   142  HEM142      0.0000
     24  C3C       10.7720   -0.4700   13.1880 C.2   142  HEM142      0.0000
     25  C4C       11.9630   -0.2200   13.9740 C.2   142  HEM142      0.0000
     26  CMC        9.0150    1.0300   11.9520 C.3   142  HEM142      0.0000
     27  CAC       10.2150   -1.8850   12.9150 C.2   142  HEM142      0.0000
     28  CBC        8.8960   -2.0850   12.9870 C.2   142  HEM142      0.0000
     29  C1D       13.8940   -1.0180   15.3100 C.ar  142  HEM142      0.0000
     30  C2D       14.6570   -2.0940   15.8930 C.ar  142  HEM142      0.0000
     31  C3D       15.8260   -1.4190   16.6130 C.ar  142  HEM142      0.0000
     32  C4D       15.6440    0.0060   16.4010 C.ar  142  HEM142      0.0000
     33  CMD       14.3340   -3.6010   15.7850 C.3   142  HEM142      0.0000
     34  CAD       16.9390   -2.1280   17.4220 C.3   142  HEM142      0.0000
     35  CBD       16.3680   -2.1510   18.8310 C.3   142  HEM142      0.0000
     36  CGD       17.2140   -2.9780   19.7490 C.2   142  HEM142      0.0000
     37  O1D       17.4130   -2.5340   20.8930 O.co2 142  HEM142      0.0000
     38  O2D       17.6760   -4.0780   19.3530 O.co2 142  HEM142      0.0000
     39  NA        15.0290    2.9620   16.3140 N.2   142  HEM142      0.0000
     40  NB        12.6590    3.8480   14.7230 N.ar  142  HEM142      0.0000
     41  NC        12.1490    1.1450   14.0350 N.2   142  HEM142      0.0000
     42  ND        14.5090    0.1840   15.6360 N.ar  142  HEM142      0.0000
     43 FE         13.6030    2.0460   15.1660 Fe    142  HEM142      0.0000
@<TRIPOS>BOND
     1    26    23    1
     2    23    24    2
     3    23    22    1
     4    27    28    2
     5    27    24    1
     6    20    21    2
     7    20    17    1
     8     3    22    2
     9     3    18    1
    10    24    25    1
    11    22    41    1
    12    17    18   ar
    13    17    16   ar
    14    18    40   ar
    15    25    41    2
    16    25     4    1
    17    41    43    1
    18     4    29    2
    19    40    43    1
    20    40    15   ar
    21    16    19    1
    22    16    15   ar
    23    43    42    1
    24    43    39    1
    25    15     2    1
    26    29    42   ar
    27    29    30   ar
    28    42    32   ar
    29    33    30    1
    30    30    31   ar
    31     2     8    2
    32    39     8    1
    33    39     5    2
    34    32    31   ar
    35    32     1    2
    36     8     7    1
    37    31    34    1
    38     1     5    1
    39     5     6    1
    40    34    35    1
    41     7     6    2
    42     7     9    1
    43     6    10    1
    44    10    11    1
    45    35    36    1
    46    38    36   ar
    47    11    12    1
    48    36    37   ar
    49    14    12   ar
    50    12    13   ar
