@<TRIPOS>MOLECULE
3p5r_FGG_A_1.pdb
 30 29 0 0 0
SMALL
GASTEIGER

@<TRIPOS>ATOM
      1  C01       12.1220   24.5770   -8.9270 C.3   911  FGG911      0.2044
      2  F01       14.1900   24.0830  -10.0770 F     911  FGG911     -0.2069
      3  O01       11.4360   24.3880  -10.1350 O.3   911  FGG911     -0.3065
      4  C02       13.4420   23.8830   -9.0120 C.2   911  FGG911      0.1400
      5  P02       10.1690   23.4010  -10.1180 P.3   911  FGG911      0.2234
      6  C03       13.8610   23.0690   -8.0310 C.2   911  FGG911     -0.0178
      7  O03       10.4280   22.3910   -8.8850 O.3   911  FGG911     -0.2261
      8  C04       15.1880   22.3950   -8.1650 C.3   911  FGG911      0.0287
      9  P04        9.4520   21.1810   -8.4600 P.3   911  FGG911      0.5373
     10  C05       15.5060   21.5470   -6.9360 C.3   911  FGG911      0.0298
     11  O05       10.0470   20.4890   -7.2950 O.3   911  FGG911     -0.1143
     12  C06       16.3390   22.2830   -5.9180 C.2   911  FGG911     -0.0342
     13  O06        8.9140   24.1560   -9.9170 O.3   911  FGG911     -0.4370
     14  C07       17.5230   22.8380   -6.2150 C.2   911  FGG911     -0.0478
     15  O07       10.1360   22.7110  -11.4320 O.2   911  FGG911     -0.5169
     16  C08       18.3110   23.5430   -5.1600 C.3   911  FGG911      0.0263
     17  O08        8.1370   21.7010   -8.0470 O.3   911  FGG911     -0.1143
     18  C09       18.9270   24.8060   -5.7440 C.3   911  FGG911      0.0297
     19  O09        9.2990   20.2660   -9.6230 O.2   911  FGG911     -0.2221
     20  C10       17.8750   25.8700   -5.7500 C.2   911  FGG911     -0.0342
     21  C11       18.1590   27.1270   -6.1100 C.2   911  FGG911     -0.0478
     22  C12       17.0750   28.1640   -6.1080 C.3   911  FGG911      0.0263
     23  C13       17.1610   29.0310   -7.3630 C.3   911  FGG911      0.0297
     24  C14       17.1590   28.1620   -8.5830 C.2   911  FGG911     -0.0342
     25  C15       16.0130   27.6540   -9.0540 C.2   911  FGG911     -0.0478
     26  C16       13.0150   22.8230   -6.8190 C.3   911  FGG911      0.0284
     27  C17       18.0830   22.7610   -7.6000 C.3   911  FGG911      0.0260
     28  C18       19.5510   27.4930   -6.5190 C.3   911  FGG911      0.0260
     29  C19       16.0450   26.7840  -10.2740 C.3   911  FGG911      0.0260
     30  C20       14.7090   27.9530   -8.3750 C.3   911  FGG911      0.0260
@<TRIPOS>BOND
     1    15     5    2
     2    29    25    1
     3     3     5    1
     4     3     1    1
     5     5    13    1
     6     5     7    1
     7     2     4    1
     8    19     9    2
     9    25    24    2
    10    25    30    1
    11     4     1    1
    12     4     6    2
    13     7     9    1
    14    24    23    1
    15     9    17    1
    16     9    11    1
    17     8     6    1
    18     8    10    1
    19     6    26    1
    20    27    14    1
    21    23    22    1
    22    10    12    1
    23    28    21    1
    24    14    12    2
    25    14    16    1
    26    21    22    1
    27    21    20    2
    28    20    18    1
    29    18    16    1
