@<TRIPOS>MOLECULE
3p5s_AVU_A_1.pdb
 35 38 0 0 0
SMALL
GASTEIGER

@<TRIPOS>ATOM
      1  N1         6.6280    8.4750   35.0590 N.2   280  AVU280      0.0021
      2  C2         7.1440    7.9460   36.1850 C.3   280  AVU280      0.5254
      3  N3         8.4820    7.9890   36.3640 N.2   280  AVU280     -0.0055
      4  C4         9.3070    8.5360   35.4520 C.2   280  AVU280      0.3518
      5  C5         8.8020    9.0870   34.2880 C.2   280  AVU280      0.2526
      6  C6         7.4290    9.0350   34.1220 C.2   280  AVU280      0.4393
      7  N6         6.8370    9.5850   32.9340 N.pl3 280  AVU280      0.2180
      8  N7         9.8580    9.5590   33.5720 N.2   280  AVU280     -0.2095
      9  C8        10.9920    9.2910   34.2700 C.3   280  AVU280      0.3377
     10  N9        10.6440    8.6690   35.4280 N.pl3 280  AVU280     -0.1439
     11  PA        14.5750   13.2240   37.9190 P.3   280  AVU280      0.2189
     12  PB        15.5090   12.6810   35.3240 P.3   280  AVU280      0.2189
     13  C1'       11.4750    8.2000   36.5390 C.3   280  AVU280      0.3186
     14  O1A       15.8750   13.3340   38.6640 O.3   280  AVU280     -0.4371
     15  O1B       16.1400   11.4700   35.9860 O.3   280  AVU280     -0.4371
     16  C1R       13.5930   11.2920   30.6930 C.3   280  AVU280      0.1801
     17  C2'       12.8580    7.7880   36.1820 C.3   280  AVU280      0.2570
     18  O2'       13.1330    6.5090   36.6820 O.3   280  AVU280     -0.2130
     19  O2A       13.5290   14.2040   38.4090 O.2   280  AVU280     -0.5170
     20  O2B       16.4800   13.5200   34.5290 O.2   280  AVU280     -0.5170
     21  C2R       12.7190   12.4340   30.2880 C.3   280  AVU280      0.2229
     22  F2R       11.4940   12.1260   30.7150 F     280  AVU280     -0.2317
     23  C3'       13.7250    8.7910   36.7610 C.3   280  AVU280      0.2184
     24  O3'       14.8510    8.2160   37.3130 O.3   280  AVU280     -0.2174
     25  O3A       14.7880   13.5790   36.3990 O.3   280  AVU280     -0.2703
     26  C3R       13.1470   13.5610   31.0570 C.3   280  AVU280      0.2162
     27  O3R       13.6400   14.5710   30.2120 O.3   280  AVU280     -0.2174
     28  C4'       12.8830    9.5890   37.7680 C.3   280  AVU280      0.1821
     29  O4'       11.5630    9.1580   37.6350 O.3   280  AVU280     -0.3135
     30  C4R       14.2080   13.0740   31.9870 C.3   280  AVU280      0.1782
     31  O4R       14.6210   11.8100   31.4610 O.3   280  AVU280     -0.3480
     32  C5'       13.0000   11.1230   37.6400 C.3   280  AVU280      0.1813
     33  O5'       14.1930   11.6870   38.0920 O.3   280  AVU280     -0.3112
     34  C5R       13.7380   12.9960   33.4030 C.3   280  AVU280      0.1812
     35  O5R       14.3740   12.1450   34.3040 O.3   280  AVU280     -0.3112
@<TRIPOS>BOND
     1    27    26    1
     2    21    16    1
     3    21    22    1
     4    21    26    1
     5    16    31    1
     6    26    30    1
     7    31    30    1
     8    30    34    1
     9     7     6    1
    10    34    35    1
    11     8     9    1
    12     8     5    2
    13     6     5    1
    14     6     1    2
    15     9    10    1
    16     5     4    1
    17    35    12    1
    18    20    12    2
    19     1     2    1
    20    12    15    1
    21    12    25    1
    22    10     4    1
    23    10    13    1
    24     4     3    2
    25    17    13    1
    26    17    18    1
    27    17    23    1
    28     2     3    1
    29    25    11    1
    30    13    29    1
    31    23    24    1
    32    23    28    1
    33    29    28    1
    34    32    28    1
    35    32    33    1
    36    11    33    1
    37    11    19    2
    38    11    14    1
