@<TRIPOS>MOLECULE
3p5y_BMP_A_1.pdb
 22 23 0 0 0
SMALL
GASTEIGER

@<TRIPOS>ATOM
      1  P         -1.0430   13.6210    9.3630 P.3   229  BMP229      0.5327
      2  OP1        0.1330   14.3320    8.8420 O.3   229  BMP229     -0.1145
      3  OP2       -2.2110   14.6000    9.8580 O.3   229  BMP229     -0.1145
      4  OP3       -1.5420   12.5570    8.2720 O.2   229  BMP229     -0.2224
      5  O5'       -0.6490   12.8330   10.7280 O.3   229  BMP229     -0.2675
      6  C5'        0.6450   12.2380   10.6990 C.3   229  BMP229      0.1859
      7  C4'        0.7840   11.4960   12.0490 C.3   229  BMP229      0.1801
      8  O4'        1.9810   10.6730   12.1040 O.3   229  BMP229     -0.3319
      9  C3'        0.8990   12.4470   13.2570 C.3   229  BMP229      0.2158
     10  O3'        0.3360   11.7660   14.3920 O.3   229  BMP229     -0.2175
     11  C2'        2.4210   12.6310   13.4350 C.3   229  BMP229      0.2320
     12  O2'        2.7450   12.9150   14.8050 O.3   229  BMP229     -0.2157
     13  C1'        2.9100   11.2130   13.0650 C.3   229  BMP229      0.2425
     14  N1         4.2300   11.1350   12.4320 N.am  229  BMP229     -0.1473
     15  C2         4.5640   11.8690   11.3510 C.1   229  BMP229      0.2863
     16  O2         3.7870   12.6780   10.8800 O.2   229  BMP229     -0.1918
     17  N3         5.7740   11.7490   10.7800 N.2   229  BMP229     -0.2489
     18  C4         6.6770   10.8710   11.2420 C.1   229  BMP229      0.2018
     19  O4         7.7630   10.7770   10.6860 O.2   229  BMP229     -0.2129
     20  C5         6.3530   10.0650   12.3560 C.3   229  BMP229      0.2213
     21  C6         5.1180   10.2030   12.9240 C.2   229  BMP229      0.2591
     22  O1         4.7570    9.4490   13.9730 O.2   229  BMP229     -0.2725
@<TRIPOS>BOND
     1     4     1    2
     2     2     1    1
     3     1     3    1
     4     1     5    1
     5    19    18    2
     6     6     5    1
     7     6     7    1
     8    17    18    2
     9    17    15    2
    10    16    15    2
    11    18    20    1
    12    15    14   am
    13     7     8    1
    14     7     9    1
    15     8    13    1
    16    20    21    1
    17    14    21   am
    18    14    13    1
    19    21    22    2
    20    13    11    1
    21     9    11    1
    22     9    10    1
    23    11    12    1
