@<TRIPOS>MOLECULE
3p5z_BMP_A_1.pdb
 22 23 0 0 0
SMALL
GASTEIGER

@<TRIPOS>ATOM
      1  P          4.4280   -2.5120    8.7370 P.3   229  BMP229      0.5327
      2  OP1        3.1600   -3.2430    8.9190 O.3   229  BMP229     -0.1145
      3  OP2        5.6610   -3.4700    8.5900 O.3   229  BMP229     -0.1145
      4  OP3        4.3340   -1.4400    7.5830 O.2   229  BMP229     -0.2224
      5  O5'        4.8110   -1.7230   10.0880 O.3   229  BMP229     -0.2675
      6  C5'        3.7410   -1.1310   10.8300 C.3   229  BMP229      0.1859
      7  C4'        4.4540   -0.3680   11.9580 C.3   229  BMP229      0.1801
      8  O4'        3.5330    0.5130   12.6480 O.3   229  BMP229     -0.3319
      9  C3'        5.0370   -1.3000   13.0370 C.3   229  BMP229      0.2158
     10  O3'        6.1870   -0.6870   13.6470 O.3   229  BMP229     -0.2175
     11  C2'        3.8970   -1.3790   14.0640 C.3   229  BMP229      0.2320
     12  O2'        4.4460   -1.6750   15.3500 O.3   229  BMP229     -0.2157
     13  C1'        3.3160    0.0560   13.9920 C.3   229  BMP229      0.2425
     14  N1         1.8680    0.1270   14.2430 N.am  229  BMP229     -0.1473
     15  C2         0.9640   -0.6270   13.5750 C.1   229  BMP229      0.2863
     16  O2         1.3150   -1.4370   12.7240 O.2   229  BMP229     -0.1918
     17  N3        -0.3510   -0.4980   13.8440 N.2   229  BMP229     -0.2489
     18  C4        -0.8330    0.3840   14.7550 C.1   229  BMP229      0.2018
     19  O4        -2.0550    0.4510   14.9340 O.2   229  BMP229     -0.2129
     20  C5         0.0810    1.1970   15.4510 C.3   229  BMP229      0.2213
     21  C6         1.4140    1.0600   15.1490 C.2   229  BMP229      0.2591
     22  O1         2.3250    1.8240   15.7370 O.2   229  BMP229     -0.2725
@<TRIPOS>BOND
     1     4     1    2
     2     3     1    1
     3     1     2    1
     4     1     5    1
     5     5     6    1
     6     6     7    1
     7     7     8    1
     8     7     9    1
     9     8    13    1
    10    16    15    2
    11     9    10    1
    12     9    11    1
    13    15    17    2
    14    15    14   am
    15    17    18    2
    16    13    11    1
    17    13    14    1
    18    11    12    1
    19    14    21   am
    20    18    19    2
    21    18    20    1
    22    21    20    1
    23    21    22    2
