@<TRIPOS>MOLECULE
3p60_BMP_A_1.pdb
 22 23 0 0 0
SMALL
GASTEIGER

@<TRIPOS>ATOM
      1  P         25.0790   -2.4000    8.4050 P.3   229  BMP229      0.5327
      2  OP1       24.3580   -3.1880    7.3750 O.2   229  BMP229     -0.2224
      3  OP2       25.8350   -3.3550    9.4330 O.3   229  BMP229     -0.1145
      4  OP3       26.0930   -1.3760    7.7340 O.3   229  BMP229     -0.1145
      5  O5'       24.0590   -1.5890    9.3490 O.3   229  BMP229     -0.2675
      6  C5'       22.8570   -1.0980    8.7460 C.3   229  BMP229      0.1859
      7  C4'       22.2300   -0.2660    9.8680 C.3   229  BMP229      0.1801
      8  O4'       21.1770    0.5850    9.3460 O.3   229  BMP229     -0.3319
      9  C3'       21.5710   -1.1580   10.9380 C.3   229  BMP229      0.2158
     10  O3'       21.5460   -0.4710   12.2020 O.3   229  BMP229     -0.2175
     11  C2'       20.1340   -1.3200   10.4010 C.3   229  BMP229      0.2320
     12  O2'       19.2490   -1.5500   11.5060 O.3   229  BMP229     -0.2157
     13  C1'       19.8910    0.0720    9.7650 C.3   229  BMP229      0.2425
     14  N1        18.9900    0.1090    8.6030 N.am  229  BMP229     -0.1473
     15  C2        19.1450   -0.6830    7.5170 C.1   229  BMP229      0.2863
     16  O2        20.0510   -1.4930    7.4510 O.2   229  BMP229     -0.1918
     17  N3        18.2980   -0.5870    6.4690 N.2   229  BMP229     -0.2489
     18  C4        17.2800    0.3000    6.4580 C.1   229  BMP229      0.2018
     19  O4        16.5330    0.3430    5.4870 O.2   229  BMP229     -0.2129
     20  C5        17.1000    1.1400    7.5690 C.3   229  BMP229      0.2213
     21  C6        17.9780    1.0390    8.6210 C.2   229  BMP229      0.2591
     22  O1        17.8700    1.8350    9.6960 O.2   229  BMP229     -0.2725
@<TRIPOS>BOND
     1    19    18    2
     2    18    17    2
     3    18    20    1
     4    17    15    2
     5     2     1    2
     6    16    15    2
     7    15    14   am
     8    20    21    1
     9     4     1    1
    10     1     5    1
    11     1     3    1
    12    14    21   am
    13    14    13    1
    14    21    22    2
    15     6     5    1
    16     6     7    1
    17     8    13    1
    18     8     7    1
    19    13    11    1
    20     7     9    1
    21    11     9    1
    22    11    12    1
    23     9    10    1
