@<TRIPOS>MOLECULE
3p61_BMP_A_1.pdb
 22 23 0 0 0
SMALL
GASTEIGER

@<TRIPOS>ATOM
      1  P         25.0280   -2.3560    8.4760 P.3   229  BMP229      0.5327
      2  OP1       24.3050   -3.1200    7.4290 O.2   229  BMP229     -0.2224
      3  OP2       25.7910   -3.3260    9.4840 O.3   229  BMP229     -0.1145
      4  OP3       26.0430   -1.3100    7.8240 O.3   229  BMP229     -0.1145
      5  O5'       24.0060   -1.5320    9.4220 O.3   229  BMP229     -0.2675
      6  C5'       22.8610   -0.9390    8.8020 C.3   229  BMP229      0.1859
      7  C4'       22.1760   -0.1880    9.9510 C.3   229  BMP229      0.1801
      8  O4'       21.1280    0.6560    9.4280 O.3   229  BMP229     -0.3319
      9  C3'       21.5100   -1.1350   10.9600 C.3   229  BMP229      0.2158
     10  O3'       21.4730   -0.4740   12.2330 O.3   229  BMP229     -0.2175
     11  C2'       20.0650   -1.2480   10.4440 C.3   229  BMP229      0.2320
     12  O2'       19.1980   -1.5250   11.5520 O.3   229  BMP229     -0.2157
     13  C1'       19.8460    0.1580    9.8510 C.3   229  BMP229      0.2425
     14  N1        18.9530    0.1680    8.6850 N.am  229  BMP229     -0.1473
     15  C2        19.1060   -0.6230    7.5950 C.1   229  BMP229      0.2863
     16  O2        20.0080   -1.4260    7.5020 O.2   229  BMP229     -0.1918
     17  N3        18.2480   -0.5360    6.5560 N.2   229  BMP229     -0.2489
     18  C4        17.2270    0.3380    6.5530 C.1   229  BMP229      0.2018
     19  O4        16.4820    0.3550    5.5740 O.2   229  BMP229     -0.2129
     20  C5        17.0500    1.1800    7.6640 C.3   229  BMP229      0.2213
     21  C6        17.9330    1.0840    8.7030 C.2   229  BMP229      0.2591
     22  O1        17.7960    1.8930    9.7610 O.2   229  BMP229     -0.2725
@<TRIPOS>BOND
     1    19    18    2
     2    18    17    2
     3    18    20    1
     4    17    15    2
     5     2     1    2
     6    16    15    2
     7    15    14   am
     8    20    21    1
     9     4     1    1
    10     1     5    1
    11     1     3    1
    12    14    21   am
    13    14    13    1
    14    21    22    2
    15     6     5    1
    16     6     7    1
    17     8    13    1
    18     8     7    1
    19    13    11    1
    20     7     9    1
    21    11     9    1
    22    11    12    1
    23     9    10    1
