@<TRIPOS>MOLECULE
3p62_FMN_A_1.pdb
 31 33 0 0 0
SMALL
GASTEIGER

@<TRIPOS>ATOM
      1  N1        22.3050   26.9950   20.0590 N.2   401  FMN401     -0.2887
      2  C2        21.5680   28.0730   20.3800 C.1   401  FMN401      0.3669
      3  O2        20.6410   28.4370   19.6470 O.2   401  FMN401     -0.1744
      4  N3        21.9000   28.8450   21.4610 N.2   401  FMN401     -0.2300
      5  C4        22.9020   28.4900   22.3260 C.1   401  FMN401      0.2513
      6  O4        23.1860   29.2520   23.2960 O.2   401  FMN401     -0.2057
      7  C4A       23.6520   27.3230   22.0170 C.2   401  FMN401      0.2706
      8  N5        24.6280   26.8870   22.8450 N.2   401  FMN401     -0.3841
      9  C5A       25.4500   25.8720   22.4650 C.2   401  FMN401      0.1452
     10  C6        26.5580   25.5310   23.2620 C.2   401  FMN401      0.0252
     11  C7        27.4770   24.5570   22.8600 C.2   401  FMN401     -0.0375
     12  C7M       28.6450   24.2260   23.7670 C.3   401  FMN401      0.0268
     13  C8        27.2520   23.9020   21.6540 C.3   401  FMN401      0.0417
     14  C8M       28.2150   22.8440   21.1600 C.3   401  FMN401      0.0091
     15  C9        26.1550   24.2520   20.8640 C.2   401  FMN401     -0.0049
     16  C9A       25.2120   25.2290   21.2410 C.2   401  FMN401      0.0795
     17  N10       24.1330   25.5660   20.4770 N.pl3 401  FMN401     -0.2545
     18  C10       23.3400   26.6020   20.8580 C.2   401  FMN401      0.2449
     19  C1'       24.0470   25.0950   19.0670 C.3   401  FMN401      0.1336
     20  C2'       25.0110   25.9010   18.1930 C.3   401  FMN401      0.2048
     21  O2'       24.5240   27.2300   17.9810 O.3   401  FMN401     -0.2185
     22  C3'       25.1700   25.3790   16.7710 C.3   401  FMN401      0.2165
     23  O3'       23.9030   25.3290   16.0830 O.3   401  FMN401     -0.2175
     24  C4'       25.8280   24.0350   16.6340 C.3   401  FMN401      0.2147
     25  O4'       26.9360   23.9740   17.5230 O.3   401  FMN401     -0.2176
     26  C5'       26.2570   23.8970   15.1610 C.3   401  FMN401      0.1892
     27  O5'       26.8960   22.6890   14.9740 O.3   401  FMN401     -0.2674
     28  P         28.4970   22.6130   14.9170 P.3   401  FMN401      0.5327
     29  O1P       29.0070   22.7840   16.3310 O.3   401  FMN401     -0.1145
     30  O2P       28.6840   21.2070   14.3980 O.3   401  FMN401     -0.1145
     31  O3P       28.9340   23.7410   13.9650 O.2   401  FMN401     -0.2224
@<TRIPOS>BOND
     1    31    28    2
     2    30    28    1
     3    28    27    1
     4    28    29    1
     5    27    26    1
     6    26    24    1
     7    23    22    1
     8    24    22    1
     9    24    25    1
    10    22    20    1
    11    21    20    1
    12    20    19    1
    13    19    17    1
    14     3     2    2
    15     1     2    2
    16     1    18    2
    17     2     4    2
    18    17    18    1
    19    17    16    1
    20    18     7    1
    21    15    16    2
    22    15    13    1
    23    14    13    1
    24    16     9    1
    25     4     5    2
    26    13    11    1
    27     7     5    1
    28     7     8    2
    29     5     6    2
    30     9     8    2
    31     9    10    1
    32    11    10    2
    33    11    12    1
