@<TRIPOS>MOLECULE
3p67_FMN_A_1.pdb
 31 33 0 0 0
SMALL
GASTEIGER

@<TRIPOS>ATOM
      1  N1        -6.7370   -7.7400   20.2340 N.2   401  FMN401     -0.2887
      2  C2        -7.4810   -6.6250   20.4560 C.1   401  FMN401      0.3669
      3  O2        -8.3940   -6.3190   19.6470 O.2   401  FMN401     -0.1744
      4  N3        -7.2480   -5.8370   21.5440 N.2   401  FMN401     -0.2300
      5  C4        -6.2870   -6.1380   22.4450 C.1   401  FMN401      0.2513
      6  O4        -6.0990   -5.3710   23.4220 O.2   401  FMN401     -0.2057
      7  C4A       -5.5200   -7.3100   22.2480 C.2   401  FMN401      0.2706
      8  N5        -4.5510   -7.6960   23.1340 N.2   401  FMN401     -0.3841
      9  C5A       -3.7250   -8.7290   22.8130 C.2   401  FMN401      0.1452
     10  C6        -2.6330   -8.9830   23.6410 C.2   401  FMN401      0.0252
     11  C7        -1.7170   -9.9850   23.3310 C.2   401  FMN401     -0.0375
     12  C7M       -0.5380  -10.2540   24.2460 C.3   401  FMN401      0.0268
     13  C8        -1.9110  -10.7290   22.1690 C.3   401  FMN401      0.0417
     14  C8M       -0.9340  -11.8200   21.8020 C.3   401  FMN401      0.0091
     15  C9        -2.9940  -10.4700   21.3230 C.2   401  FMN401     -0.0049
     16  C9A       -3.9210   -9.4600   21.6320 C.2   401  FMN401      0.0795
     17  N10       -4.9960   -9.1780   20.8290 N.pl3 401  FMN401     -0.2545
     18  C10       -5.7530   -8.0900   21.0970 C.2   401  FMN401      0.2449
     19  C1'       -5.0840   -9.7440   19.4680 C.3   401  FMN401      0.1336
     20  C2'       -4.0570   -9.1210   18.5130 C.3   401  FMN401      0.2048
     21  O2'       -4.4390   -7.7670   18.1940 O.3   401  FMN401     -0.2185
     22  C3'       -3.9210   -9.9280   17.2190 C.3   401  FMN401      0.2165
     23  O3'       -5.2090   -9.9460   16.5750 O.3   401  FMN401     -0.2175
     24  C4'       -3.4100  -11.3600   17.4510 C.3   401  FMN401      0.2147
     25  O4'       -2.2010  -11.3120   18.2060 O.3   401  FMN401     -0.2176
     26  C5'       -3.1610  -12.1450   16.1660 C.3   401  FMN401      0.1892
     27  O5'       -2.2500  -11.4580   15.3130 O.3   401  FMN401     -0.2674
     28  P         -0.6780  -11.8870   15.2280 P.3   401  FMN401      0.5327
     29  O1P       -0.1100  -11.7490   16.6240 O.3   401  FMN401     -0.1145
     30  O2P       -0.6350  -13.3020   14.7250 O.3   401  FMN401     -0.1145
     31  O3P       -0.1330  -10.8730   14.2450 O.2   401  FMN401     -0.2224
@<TRIPOS>BOND
     1    31    28    2
     2    30    28    1
     3    28    27    1
     4    28    29    1
     5    27    26    1
     6    26    24    1
     7    23    22    1
     8    22    24    1
     9    22    20    1
    10    24    25    1
    11    21    20    1
    12    20    19    1
    13    19    17    1
    14     3     2    2
    15     1     2    2
    16     1    18    2
    17     2     4    2
    18    17    18    1
    19    17    16    1
    20    18     7    1
    21    15    16    2
    22    15    13    1
    23     4     5    2
    24    16     9    1
    25    14    13    1
    26    13    11    1
    27     7     5    1
    28     7     8    2
    29     5     6    2
    30     9     8    2
    31     9    10    1
    32    11    10    2
    33    11    12    1
