@<TRIPOS>MOLECULE
3p6c_CIT_A_1.pdb
 13 12 0 0 0
SMALL
GASTEIGER

@<TRIPOS>ATOM
      1  C1         6.5540    5.8610   15.9060 C.2   133  CIT133      0.3680
      2  O1         6.5360    5.7330   14.6680 O.co2 133  CIT133     -0.2455
      3  O2         5.7530    5.1310   16.5030 O.co2 133  CIT133     -0.2455
      4  C2         7.4520    6.7360   16.7800 C.3   133  CIT133      0.1560
      5  C3         6.5900    7.1900   18.0120 C.3   133  CIT133      0.2402
      6  O7         5.4670    6.2750   18.0500 O.3   133  CIT133     -0.2129
      7  C4         6.9280    7.4180   19.5070 C.3   133  CIT133      0.1560
      8  C5         5.8570    8.3240   20.0500 C.2   133  CIT133      0.3680
      9  O3         4.6540    8.1650   19.7170 O.co2 133  CIT133     -0.2455
     10  O4         6.1280    9.2420   20.8720 O.co2 133  CIT133     -0.2455
     11  C6         6.0450    8.5010   17.5190 C.2   133  CIT133      0.3927
     12  O5         5.4780    8.5560   16.3980 O.co2 133  CIT133     -0.2429
     13  O6         6.1890    9.5160   18.2220 O.co2 133  CIT133     -0.2429
@<TRIPOS>BOND
     1     2     1   ar
     2     1     3   ar
     3     1     4    1
     4    12    11   ar
     5     4     5    1
     6    11     5    1
     7    11    13   ar
     8     5     6    1
     9     5     7    1
    10     7     8    1
    11     9     8   ar
    12     8    10   ar
