@<TRIPOS>MOLECULE
3p6d_ZGB_A_1.pdb
 14 14 0 0 0
SMALL
GASTEIGER

@<TRIPOS>ATOM
      1  C1         3.6050    6.4410   22.3540 C.3   133  ZGB133      0.0342
      2  O1         6.0460    7.3660   23.6320 O.3   133  ZGB133     -0.4717
      3  C2         4.7870    7.0210   21.5960 C.ar  133  ZGB133      0.0118
      4  O2         5.6540    7.1420   15.2260 O.co2 133  ZGB133     -0.2456
      5  C3         4.6740    7.0280   20.2420 C.ar  133  ZGB133     -0.0055
      6  O3         6.0030    4.9810   15.3490 O.co2 133  ZGB133     -0.2456
      7  C4         5.9560    7.4460   22.3040 C.ar  133  ZGB133      0.1347
      8  C5         7.3100    7.7620   24.1890 C.3   133  ZGB133      0.2525
      9  C6         6.9770    7.9530   21.4830 C.ar  133  ZGB133      0.0362
     10  C7         6.9070    7.9640   20.0950 C.ar  133  ZGB133     -0.0012
     11  C8         5.7510    7.5420   19.5010 C.ar  133  ZGB133     -0.0217
     12  C9         5.6560    7.5570   18.0180 C.3   133  ZGB133      0.0381
     13  C10        6.4050    6.3500   17.3340 C.3   133  ZGB133      0.1187
     14  C11        6.0530    6.1340   15.8290 C.2   133  ZGB133      0.3652
@<TRIPOS>BOND
     1     4    14   ar
     2     6    14   ar
     3    14    13    1
     4    13    12    1
     5    12    11    1
     6    11    10   ar
     7    11     5   ar
     8    10     9   ar
     9     5     3   ar
    10     9     7   ar
    11     3     7   ar
    12     3     1    1
    13     7     2    1
    14     2     8    1
