@<TRIPOS>MOLECULE
3p6e_ZGC_A_1.pdb
 13 13 0 0 0
SMALL
GASTEIGER

@<TRIPOS>ATOM
      1  C1         3.9840    6.3150   22.7660 C.3   133  ZGC133      0.2525
      2  O1         3.3190    6.8370   21.5900 O.3   133  ZGC133     -0.4714
      3  C2         4.2330    7.0540   20.6100 C.ar  133  ZGC133      0.1387
      4  O2         5.8440    4.9730   15.2850 O.co2 133  ZGC133     -0.2456
      5  C3         3.9650    6.6490   19.2980 C.ar  133  ZGC133      0.0366
      6  O3         5.5470    7.1750   15.2520 O.co2 133  ZGC133     -0.2456
      7  C4         4.9190    6.8240   18.2960 C.ar  133  ZGC133     -0.0011
      8  C5         5.4540    7.6440   20.9010 C.ar  133  ZGC133      0.0366
      9  C6         6.4250    7.7860   19.8920 C.ar  133  ZGC133     -0.0011
     10  C7         6.1610    7.3980   18.5710 C.ar  133  ZGC133     -0.0214
     11  C8         7.2370    7.5950   17.4410 C.3   133  ZGC133      0.0382
     12  C9         7.3880    6.3450   16.5290 C.3   133  ZGC133      0.1187
     13  C10        6.1770    6.1460   15.5930 C.2   133  ZGC133      0.3652
@<TRIPOS>BOND
     1     6    13   ar
     2     4    13   ar
     3    13    12    1
     4    12    11    1
     5    11    10    1
     6     7    10   ar
     7     7     5   ar
     8    10     9   ar
     9     5     3   ar
    10     9     8   ar
    11     3     8   ar
    12     3     2    1
    13     2     1    1
