@<TRIPOS>MOLECULE
3p6f_FBZ_A_1.pdb
 12 12 0 0 0
SMALL
GASTEIGER

@<TRIPOS>ATOM
      1  CAA        7.3190    8.7070   17.3580 C.3   133  FBZ133      0.0053
      2  OAB        5.6350    7.1090   15.1770 O.co2 133  FBZ133     -0.2456
      3  OAC        5.9260    4.9390   15.4900 O.co2 133  FBZ133     -0.2456
      4  CAD        6.0040    7.7920   22.2730 C.ar  133  FBZ133     -0.0000
      5  CAE        5.1310    8.5230   21.4680 C.ar  133  FBZ133     -0.0003
      6  CAF        6.9790    7.0280   21.6420 C.ar  133  FBZ133     -0.0003
      7  CAG        5.2060    8.5210   20.0790 C.ar  133  FBZ133     -0.0043
      8  CAH        7.0510    7.0210   20.2430 C.ar  133  FBZ133     -0.0043
      9  CAI        6.5230    6.3570   17.3120 C.3   133  FBZ133      0.1184
     10  CAJ        5.9880    6.1290   15.8740 C.2   133  FBZ133      0.3652
     11  CAK        6.1840    7.7700   19.4380 C.ar  133  FBZ133     -0.0220
     12  CAL        6.2410    7.7660   17.8850 C.3   133  FBZ133      0.0336
@<TRIPOS>BOND
     1     2    10   ar
     2     3    10   ar
     3    10     9    1
     4     9    12    1
     5     1    12    1
     6    12    11    1
     7    11     7   ar
     8    11     8   ar
     9     7     5   ar
    10     8     6   ar
    11     5     4   ar
    12     6     4   ar
