@<TRIPOS>MOLECULE
3p6g_IZP_A_1.pdb
 15 15 0 0 0
SMALL
GASTEIGER

@<TRIPOS>ATOM
      1  C1         5.4520    5.8630   15.7920 C.2   133  IZP133      0.3683
      2  O1         4.3860    5.4530   16.3250 O.co2 133  IZP133     -0.2453
      3  C2         6.3350    8.6880   21.6000 C.3   133  IZP133      0.0263
      4  O2         6.2600    5.1780   15.1000 O.co2 133  IZP133     -0.2453
      5  C3         6.2780    7.4720   22.5050 C.3   133  IZP133      0.0044
      6  C4         4.8160    7.0560   22.6690 C.3   133  IZP133      0.0003
      7  C5         6.9910    7.7590   23.8340 C.3   133  IZP133      0.0003
      8  C6         5.7310    7.3840   15.9290 C.3   133  IZP133      0.1256
      9  C7         7.0010    7.7250   15.1280 C.3   133  IZP133      0.0166
     10  C8         5.9500    7.7200   17.4220 C.ar  133  IZP133     -0.0118
     11  C9         4.9870    8.3730   18.1140 C.ar  133  IZP133     -0.0041
     12  C10        5.1320    8.6780   19.4440 C.ar  133  IZP133     -0.0046
     13  C11        6.2620    8.3130   20.1240 C.ar  133  IZP133     -0.0222
     14  C12        7.2820    7.6270   19.4410 C.ar  133  IZP133     -0.0046
     15  C13        7.1120    7.3110   18.0820 C.ar  133  IZP133     -0.0041
@<TRIPOS>BOND
     1     4     1   ar
     2     9     8    1
     3     1     8    1
     4     1     2   ar
     5     8    10    1
     6    10    15   ar
     7    10    11   ar
     8    15    14   ar
     9    11    12   ar
    10    14    13   ar
    11    12    13   ar
    12    13     3    1
    13     3     5    1
    14     5     6    1
    15     5     7    1
