@<TRIPOS>MOLECULE
3p6h_IBP_A_1.pdb
 15 15 0 0 0
SMALL
GASTEIGER

@<TRIPOS>ATOM
      1  C1         5.9120    6.1000   15.5330 C.2   133  IBP133      0.3683
      2  C2         4.9980    8.5800   21.6750 C.3   133  IBP133      0.0263
      3  C3         4.9160    7.5190   22.7690 C.3   133  IBP133      0.0044
      4  C4         6.3540    7.2600   23.2290 C.3   133  IBP133      0.0003
      5  C5         4.0460    6.3320   22.2710 C.3   133  IBP133      0.0003
      6  C6         6.9590    6.5410   16.5560 C.3   133  IBP133      0.1256
      7  C7         7.5640    7.8490   16.0440 C.3   133  IBP133      0.0166
      8  C8         6.3830    6.9910   17.8910 C.ar  133  IBP133     -0.0118
      9  C9         7.2950    7.4870   18.8060 C.ar  133  IBP133     -0.0041
     10  C10        6.8180    7.9930   20.0070 C.ar  133  IBP133     -0.0046
     11  C11        5.4660    7.9950   20.3240 C.ar  133  IBP133     -0.0222
     12  C12        4.5580    7.4930   19.3810 C.ar  133  IBP133     -0.0046
     13  C13        5.0110    7.0060   18.1570 C.ar  133  IBP133     -0.0041
     14  O1         5.8280    4.8910   15.3010 O.co2 133  IBP133     -0.2453
     15  O2         5.1190    6.9490   15.0230 O.co2 133  IBP133     -0.2453
@<TRIPOS>BOND
     1    15     1   ar
     2    14     1   ar
     3     1     6    1
     4     7     6    1
     5     6     8    1
     6     8    13   ar
     7     8     9   ar
     8    13    12   ar
     9     9    10   ar
    10    12    11   ar
    11    10    11   ar
    12    11     2    1
    13     2     3    1
    14     5     3    1
    15     3     4    1
