@<TRIPOS>MOLECULE
3p6m_DSO_A_1.pdb
 38 42 0 0 0
SMALL
GASTEIGER

@<TRIPOS>ATOM
      1  C1        -0.9640  -13.4090  -21.7470 C.3   440  DSO440      0.0000
      2  C2        -1.8680  -13.3330  -22.9880 C.3   440  DSO440      0.0005
      3  C3        -3.2840  -12.8710  -22.5920 C.3   440  DSO440      0.0000
      4  C4        -1.2540  -12.3150  -23.9660 C.3   440  DSO440      0.0087
      5  C5        -0.8710  -12.0170  -21.0890 C.3   440  DSO440      0.0005
      6  C6        -2.2920  -11.5680  -20.7150 C.3   440  DSO440      0.0000
      7  C7        -0.2920  -10.9860  -22.0840 C.3   440  DSO440      0.0087
      8  C8        -3.2060  -11.4780  -21.9550 C.3   440  DSO440      0.0005
      9  C9        -1.2000  -10.9070  -23.3450 C.3   440  DSO440      0.0705
     10  C10       -2.6290  -10.4910  -22.9760 C.3   440  DSO440      0.0087
     11  C11      -13.6030   -1.0400  -30.0660 C.ar  440  DSO440      0.0145
     12  C12      -13.1690   -1.1470  -28.7400 C.ar  440  DSO440      0.0013
     13  C13      -11.8070   -1.1170  -28.4460 C.ar  440  DSO440      0.0014
     14  C14      -12.6840   -0.9000  -31.1180 C.ar  440  DSO440      0.0479
     15  C15      -11.3030   -0.8680  -30.8190 C.ar  440  DSO440      0.0146
     16  C16      -10.8640   -0.9790  -29.4700 C.ar  440  DSO440      0.0199
     17  C17       -9.4850   -0.9630  -29.1660 C.ar  440  DSO440      0.1236
     18  C18       -8.5680   -0.8150  -30.2260 C.ar  440  DSO440      0.0200
     19  C19       -8.9930   -0.7010  -31.5530 C.ar  440  DSO440      0.0014
     20  C20      -10.3560   -0.7260  -31.8480 C.ar  440  DSO440      0.0013
     21  N21      -13.1940   -0.7830  -32.4340 N.pl3 440  DSO440     -0.3041
     22  C22      -13.3940   -1.9520  -33.2800 C.3   440  DSO440      0.1122
     23  C23      -13.5550    0.5280  -32.9620 C.3   440  DSO440      0.1122
     24  C24       -0.6160   -9.9950  -24.4430 C.2   440  DSO440      0.2404
     25  N25       -0.7260   -8.6910  -24.6230 N.am  440  DSO440     -0.2054
     26  C26       -1.3100   -7.4900  -24.1290 C.3   440  DSO440      0.1151
     27  C27       -1.3320   -6.7280  -25.4550 C.3   440  DSO440      0.0234
     28  C28       -2.7400   -6.7040  -26.0360 C.3   440  DSO440      0.0018
     29  C29       -3.4990   -5.4330  -25.6630 C.3   440  DSO440      0.0001
     30  C30       -4.4250   -5.0610  -26.8090 C.3   440  DSO440      0.0000
     31  C31       -5.6980   -4.3470  -26.3780 C.3   440  DSO440      0.0015
     32  C32       -6.6450   -4.3620  -27.5770 C.3   440  DSO440      0.0208
     33  C33       -7.9240   -3.5650  -27.3610 C.3   440  DSO440      0.1155
     34  N34       -7.6940   -2.1720  -27.6730 N.3   440  DSO440     -0.0778
     35  O35       -9.8360   -1.3610  -26.6270 O.2   440  DSO440     -0.1516
     36  S36       -8.8720   -1.0710  -27.6570 S.O2  440  DSO440      0.0768
     37  O37       -8.3160    0.2290  -27.3870 O.2   440  DSO440     -0.1516
     38  O38        0.0530  -10.4580  -25.3410 O.2   440  DSO440     -0.2734
@<TRIPOS>BOND
     1    22    21    1
     2    23    21    1
     3    21    14    1
     4    20    19   ar
     5    20    15   ar
     6    19    18   ar
     7    14    15   ar
     8    14    11   ar
     9    15    16   ar
    10    18    17   ar
    11    11    12   ar
    12    16    17   ar
    13    16    13   ar
    14    17    36    1
    15    12    13   ar
    16    34    36    1
    17    34    33    1
    18    36    37    2
    19    36    35    2
    20    32    33    1
    21    32    31    1
    22    30    31    1
    23    30    29    1
    24    28    29    1
    25    28    27    1
    26    27    26    1
    27    38    24    2
    28    25    24   am
    29    25    26    1
    30    24     9    1
    31     4     9    1
    32     4     2    1
    33     9    10    1
    34     9     7    1
    35     2     3    1
    36     2     1    1
    37    10     8    1
    38     3     8    1
    39     7     5    1
    40     8     6    1
    41     1     5    1
    42     5     6    1
