@<TRIPOS>MOLECULE
3p6m_HEM_A_1.pdb
 43 50 0 0 0
SMALL
GASTEIGER

@<TRIPOS>ATOM
      1  CHA        0.0770  -17.2130  -21.1020 C.2   420  HEM420      0.0000
      2  CHB       -2.2840  -15.1650  -17.4100 C.2   420  HEM420      0.0000
      3  CHC        1.9870  -13.8190  -15.4950 C.2   420  HEM420      0.0000
      4  CHD        4.2710  -15.1850  -19.5190 C.2   420  HEM420      0.0000
      5  C1A       -0.9510  -16.7760  -20.3030 C.2   420  HEM420      0.0000
      6  C2A       -2.3720  -17.0210  -20.4750 C.2   420  HEM420      0.0000
      7  C3A       -3.0030  -16.4520  -19.4470 C.2   420  HEM420      0.0000
      8  C4A       -2.0210  -15.8350  -18.5900 C.2   420  HEM420      0.0000
      9  CMA       -4.5250  -16.4410  -19.2190 C.3   420  HEM420      0.0000
     10  CAA       -3.0950  -17.8130  -21.6010 C.3   420  HEM420      0.0000
     11  CBA       -3.4230  -16.9120  -22.7720 C.3   420  HEM420      0.0000
     12  CGA       -4.1000  -17.7100  -23.8520 C.2   420  HEM420      0.0000
     13  O1A       -4.3640  -17.0890  -24.9110 O.co2 420  HEM420      0.0000
     14  O2A       -4.3790  -18.9320  -23.6800 O.co2 420  HEM420      0.0000
     15  C1B       -1.3230  -14.6710  -16.5360 C.ar  420  HEM420      0.0000
     16  C2B       -1.5850  -14.0730  -15.2330 C.ar  420  HEM420      0.0000
     17  C3B       -0.4070  -13.7090  -14.7000 C.ar  420  HEM420      0.0000
     18  C4B        0.6370  -14.0440  -15.6630 C.ar  420  HEM420      0.0000
     19  CMB       -2.9840  -13.9530  -14.6060 C.3   420  HEM420      0.0000
     20  CAB       -0.1390  -13.0210  -13.3450 C.2   420  HEM420      0.0000
     21  CBB       -1.0590  -12.9170  -12.3630 C.2   420  HEM420      0.0000
     22  C1C        3.0030  -14.0830  -16.4000 C.2   420  HEM420      0.0000
     23  C2C        4.4120  -13.7710  -16.2340 C.2   420  HEM420      0.0000
     24  C3C        5.0460  -14.1310  -17.3550 C.2   420  HEM420      0.0000
     25  C4C        4.0560  -14.6650  -18.2640 C.2   420  HEM420      0.0000
     26  CMC        5.0580  -13.1630  -14.9560 C.3   420  HEM420      0.0000
     27  CAC        6.5580  -14.0100  -17.6020 C.2   420  HEM420      0.0000
     28  CBC        6.9920  -13.4070  -18.7090 C.2   420  HEM420      0.0000
     29  C1D        3.3560  -15.8770  -20.2860 C.ar  420  HEM420      0.0000
     30  C2D        3.6920  -16.5350  -21.5200 C.ar  420  HEM420      0.0000
     31  C3D        2.4050  -17.1730  -22.0200 C.ar  420  HEM420      0.0000
     32  C4D        1.3950  -16.8350  -21.0290 C.ar  420  HEM420      0.0000
     33  CMD        5.0770  -16.5750  -22.2050 C.3   420  HEM420      0.0000
     34  CAD        2.2500  -17.9590  -23.3460 C.3   420  HEM420      0.0000
     35  CBD        2.2020  -19.4680  -23.2060 C.3   420  HEM420      0.0000
     36  CGD        1.9520  -20.0800  -24.5670 C.2   420  HEM420      0.0000
     37  O1D        2.3920  -21.2430  -24.7790 O.co2 420  HEM420      0.0000
     38  O2D        1.3130  -19.4220  -25.4340 O.co2 420  HEM420      0.0000
     39  NA        -0.7710  -16.0550  -19.1300 N.2   420  HEM420      0.0000
     40  NB         0.0330  -14.6290  -16.7540 N.ar  420  HEM420      0.0000
     41  NC         2.8240  -14.6360  -17.6410 N.2   420  HEM420      0.0000
     42  ND         2.0090  -16.0880  -20.0200 N.ar  420  HEM420      0.0000
     43 FE          1.0510  -15.4070  -18.3590 Fe    420  HEM420      0.0000
@<TRIPOS>BOND
     1    38    36   ar
     2    13    12   ar
     3    37    36   ar
     4    36    35    1
     5    12    14   ar
     6    12    11    1
     7    34    35    1
     8    34    31    1
     9    11    10    1
    10    33    30    1
    11    31    30   ar
    12    31    32   ar
    13    10     6    1
    14    30    29   ar
    15     1    32    2
    16     1     5    1
    17    32    42   ar
    18     6     5    1
    19     6     7    2
    20     5    39    2
    21    29    42   ar
    22    29     4    2
    23    42    43    1
    24     4    25    1
    25     7     9    1
    26     7     8    1
    27    39     8    1
    28    39    43    1
    29    28    27    2
    30     8     2    2
    31    43    41    1
    32    43    40    1
    33    25    41    2
    34    25    24    1
    35    41    22    1
    36    27    24    1
    37     2    15    1
    38    24    23    2
    39    40    15   ar
    40    40    18   ar
    41    15    16   ar
    42    22    23    1
    43    22     3    2
    44    23    26    1
    45    18     3    1
    46    18    17   ar
    47    16    17   ar
    48    16    19    1
    49    17    20    1
    50    20    21    2
