@<TRIPOS>MOLECULE
3p6n_HEM_A_1.pdb
 43 50 0 0 0
SMALL
GASTEIGER

@<TRIPOS>ATOM
      1  CHA       -0.0160  -20.2340  -21.2470 C.2   420  HEM420      0.0000
      2  CHB        2.2780  -22.1540  -17.4500 C.2   420  HEM420      0.0000
      3  CHC       -1.9440  -23.6150  -15.5810 C.2   420  HEM420      0.0000
      4  CHD       -4.2470  -22.0930  -19.5920 C.2   420  HEM420      0.0000
      5  C1A        0.9740  -20.6100  -20.3800 C.2   420  HEM420      0.0000
      6  C2A        2.4000  -20.3340  -20.5400 C.2   420  HEM420      0.0000
      7  C3A        3.0170  -20.8650  -19.4810 C.2   420  HEM420      0.0000
      8  C4A        2.0200  -21.4930  -18.6350 C.2   420  HEM420      0.0000
      9  CMA        4.5250  -20.8400  -19.1910 C.3   420  HEM420      0.0000
     10  CAA        3.0320  -19.5250  -21.7150 C.3   420  HEM420      0.0000
     11  CBA        3.5720  -20.4270  -22.8310 C.3   420  HEM420      0.0000
     12  CGA        4.1620  -19.6230  -23.9590 C.2   420  HEM420      0.0000
     13  O1A        4.3580  -20.2450  -25.0390 O.co2 420  HEM420      0.0000
     14  O2A        4.4430  -18.4090  -23.7980 O.co2 420  HEM420      0.0000
     15  C1B        1.3440  -22.6860  -16.6070 C.ar  420  HEM420      0.0000
     16  C2B        1.6380  -23.2760  -15.3230 C.ar  420  HEM420      0.0000
     17  C3B        0.4670  -23.6790  -14.7980 C.ar  420  HEM420      0.0000
     18  C4B       -0.5880  -23.3710  -15.7470 C.ar  420  HEM420      0.0000
     19  CMB        3.0680  -23.3540  -14.7470 C.3   420  HEM420      0.0000
     20  CAB        0.1780  -24.3940  -13.4610 C.2   420  HEM420      0.0000
     21  CBB        1.0160  -24.3780  -12.4140 C.2   420  HEM420      0.0000
     22  C1C       -2.9320  -23.3260  -16.5110 C.2   420  HEM420      0.0000
     23  C2C       -4.3480  -23.6230  -16.3620 C.2   420  HEM420      0.0000
     24  C3C       -4.9840  -23.2260  -17.4720 C.2   420  HEM420      0.0000
     25  C4C       -3.9880  -22.6550  -18.3670 C.2   420  HEM420      0.0000
     26  CMC       -4.9930  -24.2650  -15.1030 C.3   420  HEM420      0.0000
     27  CAC       -6.5010  -23.3410  -17.7290 C.2   420  HEM420      0.0000
     28  CBC       -6.9340  -23.9340  -18.8430 C.2   420  HEM420      0.0000
     29  C1D       -3.3390  -21.4180  -20.3810 C.ar  420  HEM420      0.0000
     30  C2D       -3.6680  -20.7710  -21.6280 C.ar  420  HEM420      0.0000
     31  C3D       -2.3500  -20.2010  -22.1240 C.ar  420  HEM420      0.0000
     32  C4D       -1.3510  -20.5570  -21.1520 C.ar  420  HEM420      0.0000
     33  CMD       -5.0620  -20.6810  -22.2970 C.3   420  HEM420      0.0000
     34  CAD       -2.1440  -19.4340  -23.4360 C.3   420  HEM420      0.0000
     35  CBD       -2.1390  -17.9350  -23.2680 C.3   420  HEM420      0.0000
     36  CGD       -1.9320  -17.3450  -24.6440 C.2   420  HEM420      0.0000
     37  O1D       -2.3230  -16.1680  -24.8400 O.co2 420  HEM420      0.0000
     38  O2D       -1.3890  -18.0420  -25.5420 O.co2 420  HEM420      0.0000
     39  NA         0.7810  -21.3070  -19.1950 N.2   420  HEM420      0.0000
     40  NB        -0.0260  -22.7470  -16.8260 N.ar  420  HEM420      0.0000
     41  NC        -2.7650  -22.7020  -17.7390 N.2   420  HEM420      0.0000
     42  ND        -1.9750  -21.2660  -20.1190 N.ar  420  HEM420      0.0000
     43 FE         -1.0070  -21.9230  -18.4270 Fe    420  HEM420      0.0000
@<TRIPOS>BOND
     1    38    36   ar
     2    13    12   ar
     3    37    36   ar
     4    36    35    1
     5    12    14   ar
     6    12    11    1
     7    34    35    1
     8    34    31    1
     9    11    10    1
    10    33    30    1
    11    31    30   ar
    12    31    32   ar
    13    10     6    1
    14    30    29   ar
    15     1    32    2
    16     1     5    1
    17    32    42   ar
    18     6     5    1
    19     6     7    2
    20    29    42   ar
    21    29     4    2
    22     5    39    2
    23    42    43    1
    24     4    25    1
    25     7     9    1
    26     7     8    1
    27    39     8    1
    28    39    43    1
    29    28    27    2
    30     8     2    2
    31    43    41    1
    32    43    40    1
    33    25    41    2
    34    25    24    1
    35    41    22    1
    36    27    24    1
    37    24    23    2
    38     2    15    1
    39    40    15   ar
    40    40    18   ar
    41    15    16   ar
    42    22    23    1
    43    22     3    2
    44    23    26    1
    45    18     3    1
    46    18    17   ar
    47    16    17   ar
    48    16    19    1
    49    17    20    1
    50    20    21    2
