@<TRIPOS>MOLECULE
3p6n_DSO_A_1.pdb
 38 42 0 0 0
SMALL
GASTEIGER

@<TRIPOS>ATOM
      1  C1         3.1770  -24.2910  -22.5910 C.3   440  DSO440      0.0000
      2  C2         3.2180  -25.7110  -21.9960 C.3   440  DSO440      0.0005
      3  C3         2.2400  -25.7170  -20.8160 C.3   440  DSO440      0.0000
      4  C4         2.7560  -26.7410  -23.0380 C.3   440  DSO440      0.0087
      5  C5         1.7480  -23.9610  -23.0560 C.3   440  DSO440      0.0005
      6  C6         0.7540  -24.0140  -21.8840 C.3   440  DSO440      0.0000
      7  C7         1.3420  -24.9820  -24.1280 C.3   440  DSO440      0.0087
      8  C8         0.8000  -25.4000  -21.2400 C.3   440  DSO440      0.0005
      9  C9         1.3330  -26.3780  -23.4940 C.3   440  DSO440      0.0705
     10  C10        0.3720  -26.4160  -22.2990 C.3   440  DSO440      0.0087
     11  C11       10.7640  -36.9040  -32.3360 C.ar  440  DSO440      0.0145
     12  C12        9.5250  -37.0320  -31.7180 C.ar  440  DSO440      0.0013
     13  C13        9.4060  -36.7660  -30.3550 C.ar  440  DSO440      0.0014
     14  C14       11.8910  -36.5090  -31.6060 C.ar  440  DSO440      0.0479
     15  C15       11.7650  -36.2440  -30.2260 C.ar  440  DSO440      0.0146
     16  C16       10.5170  -36.3740  -29.5930 C.ar  440  DSO440      0.0199
     17  C17       10.3870  -36.0930  -28.2170 C.ar  440  DSO440      0.1236
     18  C18       11.5080  -35.7060  -27.4860 C.ar  440  DSO440      0.0200
     19  C19       12.7500  -35.5810  -28.1060 C.ar  440  DSO440      0.0014
     20  C20       12.8740  -35.8440  -29.4710 C.ar  440  DSO440      0.0013
     21  N21       13.1200  -36.4130  -32.2900 N.pl3 440  DSO440     -0.3041
     22  C22       14.1680  -37.4040  -32.0550 C.3   440  DSO440      0.1122
     23  C23       13.3540  -35.3610  -33.2710 C.3   440  DSO440      0.1122
     24  C24        0.8280  -27.3960  -24.4910 C.2   440  DSO440      0.2404
     25  N25        0.9860  -28.6910  -24.1650 N.am  440  DSO440     -0.2054
     26  C26        0.5870  -29.8820  -24.9180 C.3   440  DSO440      0.1151
     27  C27        1.6570  -30.1790  -25.9710 C.3   440  DSO440      0.0234
     28  C28        2.9010  -30.8570  -25.3980 C.3   440  DSO440      0.0018
     29  C29        3.3720  -32.0400  -26.2480 C.3   440  DSO440      0.0001
     30  C30        4.7530  -31.8060  -26.8560 C.3   440  DSO440      0.0000
     31  C31        5.6880  -33.0040  -26.7030 C.3   440  DSO440      0.0015
     32  C32        6.6470  -33.0840  -27.8890 C.3   440  DSO440      0.0208
     33  C33        7.9540  -33.7890  -27.5410 C.3   440  DSO440      0.1155
     34  N34        7.9280  -35.1620  -28.0010 N.3   440  DSO440     -0.0778
     35  O35        9.1720  -36.0900  -26.0210 O.2   440  DSO440     -0.1516
     36  S36        8.9770  -36.2420  -27.4430 S.O2  440  DSO440      0.0768
     37  O37        8.5050  -37.5810  -27.7170 O.2   440  DSO440     -0.1516
     38  O38        0.2980  -27.0340  -25.5360 O.2   440  DSO440     -0.2734
@<TRIPOS>BOND
     1    23    21    1
     2    11    12   ar
     3    11    14   ar
     4    21    22    1
     5    21    14    1
     6    12    13   ar
     7    14    15   ar
     8    13    16   ar
     9    15    16   ar
    10    15    20   ar
    11    16    17   ar
    12    20    19   ar
    13    17    18   ar
    14    17    36    1
    15    19    18   ar
    16    34    33    1
    17    34    36    1
    18    32    33    1
    19    32    31    1
    20    37    36    2
    21    36    35    2
    22    30    31    1
    23    30    29    1
    24    29    28    1
    25    27    28    1
    26    27    26    1
    27    38    24    2
    28    26    25    1
    29    24    25   am
    30    24     9    1
    31     7     9    1
    32     7     5    1
    33     9     4    1
    34     9    10    1
    35     5     1    1
    36     5     6    1
    37     4     2    1
    38     1     2    1
    39    10     8    1
    40     2     3    1
    41     6     8    1
    42     8     3    1
