@<TRIPOS>MOLECULE
3p6o_ETG_A_1.pdb
 38 42 0 0 0
SMALL
GASTEIGER

@<TRIPOS>ATOM
      1  C1         3.2850  -24.4080  -22.7590 C.3   440  ETG440      0.0000
      2  C2         3.3570  -25.8170  -22.1570 C.3   440  ETG440      0.0005
      3  C3         2.4740  -25.8070  -20.8980 C.3   440  ETG440      0.0000
      4  C4         2.8170  -26.8380  -23.1770 C.3   440  ETG440      0.0087
      5  C5         1.8410  -24.0530  -23.1190 C.3   440  ETG440      0.0005
      6  C6         0.9510  -24.0980  -21.8710 C.3   440  ETG440      0.0000
      7  C7         1.3150  -25.0790  -24.1350 C.3   440  ETG440      0.0087
      8  C8         1.0100  -25.5010  -21.2450 C.3   440  ETG440      0.0005
      9  C9         1.3580  -26.4990  -23.5370 C.3   440  ETG440      0.0705
     10  C10        0.4940  -26.5360  -22.2630 C.3   440  ETG440      0.0087
     11  C11       13.1360  -36.3810  -29.8100 C.ar  440  ETG440      0.0145
     12  C12       12.4520  -36.1530  -28.6170 C.ar  440  ETG440      0.0013
     13  C13       11.0750  -35.9460  -28.6370 C.ar  440  ETG440      0.0014
     14  C14       12.4510  -36.4120  -31.0300 C.ar  440  ETG440      0.0479
     15  C15       11.0520  -36.2050  -31.0450 C.ar  440  ETG440      0.0146
     16  C16       10.3570  -35.9670  -29.8400 C.ar  440  ETG440      0.0199
     17  C17        8.9580  -35.7520  -29.8600 C.ar  440  ETG440      0.1236
     18  C18        8.2730  -35.7860  -31.0820 C.ar  440  ETG440      0.0200
     19  C19        8.9570  -36.0200  -32.2730 C.ar  440  ETG440      0.0014
     20  C20       10.3370  -36.2280  -32.2510 C.ar  440  ETG440      0.0013
     21  N21       13.2010  -36.6450  -32.2070 N.pl3 440  ETG440     -0.3041
     22  C22       13.5010  -38.0040  -32.6480 C.3   440  ETG440      0.1122
     23  C23       13.7050  -35.5240  -32.9950 C.3   440  ETG440      0.1122
     24  C24        0.8010  -27.4680  -24.5660 C.2   440  ETG440      0.2405
     25  N25        0.9570  -28.7800  -24.3870 N.am  440  ETG440     -0.2028
     26  C26        0.4290  -29.7590  -25.3250 C.3   440  ETG440      0.1471
     27  C27        1.3430  -30.9540  -25.2530 C.3   440  ETG440      0.1656
     28  O28        2.4300  -30.7510  -26.1390 O.3   440  ETG440     -0.3492
     29  C29        3.6410  -31.1580  -25.4980 C.3   440  ETG440      0.1742
     30  C30        4.0720  -32.5380  -25.9810 C.3   440  ETG440      0.1742
     31  O31        5.3220  -32.4090  -26.6510 O.3   440  ETG440     -0.3495
     32  C32        5.9940  -33.6580  -26.7830 C.3   440  ETG440      0.1630
     33  C33        5.9730  -34.0380  -28.2570 C.3   440  ETG440      0.1474
     34  N34        7.3700  -34.1410  -28.6420 N.3   440  ETG440     -0.0751
     35  O35        8.8650  -35.5150  -27.2890 O.2   440  ETG440     -0.1516
     36  S36        8.0710  -35.4840  -28.5420 S.O2  440  ETG440      0.0769
     37  O37        7.0400  -36.5480  -28.4930 O.2   440  ETG440     -0.1516
     38  O38        0.2010  -27.0560  -25.5500 O.2   440  ETG440     -0.2734
@<TRIPOS>BOND
     1    23    21    1
     2    22    21    1
     3    19    20   ar
     4    19    18   ar
     5    20    15   ar
     6    21    14    1
     7    18    17   ar
     8    15    14   ar
     9    15    16   ar
    10    14    11   ar
    11    17    16   ar
    12    17    36    1
    13    16    13   ar
    14    11    12   ar
    15    34    36    1
    16    34    33    1
    17    13    12   ar
    18    36    37    2
    19    36    35    2
    20    33    32    1
    21    32    31    1
    22    31    30    1
    23    28    29    1
    24    28    27    1
    25    30    29    1
    26    38    24    2
    27    26    27    1
    28    26    25    1
    29    24    25   am
    30    24     9    1
    31     7     9    1
    32     7     5    1
    33     9     4    1
    34     9    10    1
    35     4     2    1
    36     5     1    1
    37     5     6    1
    38     1     2    1
    39    10     8    1
    40     2     3    1
    41     6     8    1
    42     8     3    1
