@<TRIPOS>MOLECULE
3p6o_HEM_A_1.pdb
 43 50 0 0 0
SMALL
GASTEIGER

@<TRIPOS>ATOM
      1  CHA       -0.0130  -20.2660  -21.1860 C.2   420  HEM420      0.0000
      2  CHB        2.3020  -22.3580  -17.4820 C.2   420  HEM420      0.0000
      3  CHC       -1.9460  -23.7950  -15.6780 C.2   420  HEM420      0.0000
      4  CHD       -4.2550  -22.1830  -19.6580 C.2   420  HEM420      0.0000
      5  C1A        0.9880  -20.6990  -20.3540 C.2   420  HEM420      0.0000
      6  C2A        2.4100  -20.4390  -20.5350 C.2   420  HEM420      0.0000
      7  C3A        3.0460  -21.0230  -19.5040 C.2   420  HEM420      0.0000
      8  C4A        2.0550  -21.6670  -18.6530 C.2   420  HEM420      0.0000
      9  CMA        4.5700  -21.0130  -19.2510 C.3   420  HEM420      0.0000
     10  CAA        3.0670  -19.6090  -21.6840 C.3   420  HEM420      0.0000
     11  CBA        3.3810  -20.4410  -22.9170 C.3   420  HEM420      0.0000
     12  CGA        4.0430  -19.6390  -24.0160 C.2   420  HEM420      0.0000
     13  O1A        4.2240  -20.2220  -25.1140 O.co2 420  HEM420      0.0000
     14  O2A        4.4090  -18.4520  -23.8370 O.co2 420  HEM420      0.0000
     15  C1B        1.3570  -22.8920  -16.6350 C.ar  420  HEM420      0.0000
     16  C2B        1.6080  -23.4700  -15.3310 C.ar  420  HEM420      0.0000
     17  C3B        0.4290  -23.8760  -14.8290 C.ar  420  HEM420      0.0000
     18  C4B       -0.6000  -23.5480  -15.7970 C.ar  420  HEM420      0.0000
     19  CMB        3.0160  -23.5690  -14.7130 C.3   420  HEM420      0.0000
     20  CAB        0.1370  -24.5760  -13.4740 C.2   420  HEM420      0.0000
     21  CBB        1.0570  -24.7120  -12.5090 C.2   420  HEM420      0.0000
     22  C1C       -2.9350  -23.4590  -16.5770 C.2   420  HEM420      0.0000
     23  C2C       -4.3640  -23.7020  -16.4140 C.2   420  HEM420      0.0000
     24  C3C       -4.9850  -23.2640  -17.5120 C.2   420  HEM420      0.0000
     25  C4C       -3.9920  -22.7430  -18.4160 C.2   420  HEM420      0.0000
     26  CMC       -5.0670  -24.3400  -15.1860 C.3   420  HEM420      0.0000
     27  CAC       -6.5040  -23.2990  -17.7790 C.2   420  HEM420      0.0000
     28  CBC       -7.0200  -24.3510  -18.3970 C.2   420  HEM420      0.0000
     29  C1D       -3.3330  -21.5290  -20.4530 C.ar  420  HEM420      0.0000
     30  C2D       -3.6180  -20.9400  -21.7450 C.ar  420  HEM420      0.0000
     31  C3D       -2.2920  -20.3380  -22.2160 C.ar  420  HEM420      0.0000
     32  C4D       -1.3400  -20.6270  -21.1570 C.ar  420  HEM420      0.0000
     33  CMD       -4.9840  -20.9260  -22.4820 C.3   420  HEM420      0.0000
     34  CAD       -2.0340  -19.5910  -23.5510 C.3   420  HEM420      0.0000
     35  CBD       -2.0950  -18.0730  -23.3820 C.3   420  HEM420      0.0000
     36  CGD       -1.9020  -17.4030  -24.7240 C.2   420  HEM420      0.0000
     37  O1D       -2.2990  -16.2150  -24.8680 O.co2 420  HEM420      0.0000
     38  O2D       -1.3840  -18.0700  -25.6570 O.co2 420  HEM420      0.0000
     39  NA         0.8070  -21.4380  -19.1820 N.2   420  HEM420      0.0000
     40  NB        -0.0010  -22.9490  -16.8700 N.ar  420  HEM420      0.0000
     41  NC        -2.7530  -22.8590  -17.8020 N.2   420  HEM420      0.0000
     42  ND        -1.9960  -21.3140  -20.1370 N.ar  420  HEM420      0.0000
     43 FE         -0.9990  -22.0950  -18.4560 Fe    420  HEM420      0.0000
@<TRIPOS>BOND
     1    38    36   ar
     2    13    12   ar
     3    37    36   ar
     4    36    35    1
     5    12    14   ar
     6    12    11    1
     7    34    35    1
     8    34    31    1
     9    11    10    1
    10    33    30    1
    11    31    30   ar
    12    31    32   ar
    13    30    29   ar
    14    10     6    1
    15     1    32    2
    16     1     5    1
    17    32    42   ar
    18     6     5    1
    19     6     7    2
    20    29    42   ar
    21    29     4    2
    22     5    39    2
    23    42    43    1
    24     4    25    1
    25     7     9    1
    26     7     8    1
    27    39     8    1
    28    39    43    1
    29     8     2    2
    30    43    41    1
    31    43    40    1
    32    25    41    2
    33    25    24    1
    34    28    27    2
    35    41    22    1
    36    27    24    1
    37    24    23    2
    38     2    15    1
    39    40    15   ar
    40    40    18   ar
    41    15    16   ar
    42    22    23    1
    43    22     3    2
    44    23    26    1
    45    18     3    1
    46    18    17   ar
    47    16    17   ar
    48    16    19    1
    49    17    20    1
    50    20    21    2
