@<TRIPOS>MOLECULE
3p6p_A6B_A_1.pdb
 35 39 0 0 0
SMALL
GASTEIGER

@<TRIPOS>ATOM
      1  C1        -1.3370  -26.4070   23.4970 C.3   440  A6B440      0.0705
      2  C2        -1.3790  -25.0170   24.1660 C.3   440  A6B440      0.0087
      3  C3        -1.9200  -23.9710   23.1740 C.3   440  A6B440      0.0005
      4  C4        -3.3330  -24.3670   22.7360 C.3   440  A6B440      0.0000
      5  C5        -3.3160  -25.7590   22.0680 C.3   440  A6B440      0.0005
      6  C6        -2.7560  -26.8080   23.0540 C.3   440  A6B440      0.0087
      7  C7        -0.4210  -26.3310   22.2730 C.3   440  A6B440      0.0087
      8  C8        -0.9960  -23.9120   21.9570 C.3   440  A6B440      0.0000
      9  C9        -2.3860  -25.6440   20.8480 C.3   440  A6B440      0.0000
     10  C10       -0.9500  -25.2790   21.2710 C.3   440  A6B440      0.0005
     11  C11       -0.7970  -27.4180   24.4870 C.2   440  A6B440      0.2404
     12  N12       -0.8410  -28.7140   24.1340 N.am  440  A6B440     -0.2054
     13  O13       -0.3350  -27.0330   25.5510 O.2   440  A6B440     -0.2734
     14  C14       -0.4520  -29.7930   25.0470 C.3   440  A6B440      0.1151
     15  C15       -1.6150  -30.3720   25.8430 C.3   440  A6B440      0.0234
     16  C16       -2.5140  -31.1660   24.9010 C.3   440  A6B440      0.0019
     17  C17       -3.5970  -31.9350   25.6420 C.3   440  A6B440      0.0019
     18  C18       -4.2110  -32.9580   24.6920 C.3   440  A6B440      0.0234
     19  C19       -5.6130  -33.3610   25.1380 C.3   440  A6B440      0.1151
     20  C21      -12.4580  -39.8420   26.5750 C.1   440  A6B440      0.2386
     21  N22      -11.6300  -38.8200   26.3360 N.2   440  A6B440     -0.1860
     22  C23      -12.2390  -37.5400   26.6700 C.3   440  A6B440      0.1500
     23  C24      -13.5290  -37.9360   27.3990 C.3   440  A6B440      0.1509
     24  N25      -13.5990  -39.4010   27.1710 N.2   440  A6B440     -0.1859
     25  C26      -13.4930  -37.6090   28.9240 C.3   440  A6B440      0.0848
     26  S27      -11.9730  -36.6790   29.1430 S.3   440  A6B440     -0.1369
     27  C28      -11.3370  -36.6190   27.5000 C.3   440  A6B440      0.0729
     28  O29      -12.2100  -41.0310   26.2850 O.2   440  A6B440     -0.2023
     29  C30       -9.8550  -36.9940   27.4470 C.3   440  A6B440      0.0129
     30  C31       -9.0280  -35.8540   26.8610 C.3   440  A6B440      0.0014
     31  C32       -8.3470  -35.0530   27.9670 C.3   440  A6B440      0.0096
     32  C33       -7.7570  -33.7550   27.4320 C.3   440  A6B440      0.0868
     33  C34       -6.2400  -33.8070   27.4570 C.2   440  A6B440      0.2414
     34  O35       -5.6260  -33.5160   28.4740 O.2   440  A6B440     -0.2733
     35  N36       -5.6170  -34.1800   26.3370 N.am  440  A6B440     -0.2054
@<TRIPOS>BOND
     1     9    10    1
     2     9     5    1
     3    10     8    1
     4    10     7    1
     5     8     3    1
     6     5     4    1
     7     5     6    1
     8     7     1    1
     9     4     3    1
    10     6     1    1
    11     3     2    1
    12     1     2    1
    13     1    11    1
    14    12    11   am
    15    12    14    1
    16    11    13    2
    17    18    19    1
    18    18    17    1
    19    16    17    1
    20    16    15    1
    21    14    15    1
    22    19    35    1
    23    28    20    2
    24    21    20    2
    25    21    22    1
    26    35    33   am
    27    20    24    2
    28    22    23    1
    29    22    27    1
    30    30    29    1
    31    30    31    1
    32    24    23    1
    33    23    25    1
    34    32    33    1
    35    32    31    1
    36    29    27    1
    37    33    34    2
    38    27    26    1
    39    25    26    1
