@<TRIPOS>MOLECULE
3p6p_HEM_A_1.pdb
 43 50 0 0 0
SMALL
GASTEIGER

@<TRIPOS>ATOM
      1  CHA        0.1120  -20.2680   21.2660 C.2   420  HEM420      0.0000
      2  CHB       -2.2400  -22.2140   17.5350 C.2   420  HEM420      0.0000
      3  CHC        1.9490  -23.6950   15.6240 C.2   420  HEM420      0.0000
      4  CHD        4.2870  -22.0950   19.5510 C.2   420  HEM420      0.0000
      5  C1A       -0.8820  -20.6310   20.4290 C.ar  420  HEM420      0.0000
      6  C2A       -2.2960  -20.3610   20.6160 C.ar  420  HEM420      0.0000
      7  C3A       -2.9190  -20.9160   19.5670 C.ar  420  HEM420      0.0000
      8  C4A       -1.9470  -21.5280   18.7010 C.ar  420  HEM420      0.0000
      9  CMA       -4.4250  -20.9120   19.2660 C.3   420  HEM420      0.0000
     10  CAA       -2.9780  -19.5570   21.7630 C.3   420  HEM420      0.0000
     11  CBA       -3.5130  -20.4290   22.8810 C.3   420  HEM420      0.0000
     12  CGA       -4.1340  -19.5890   23.9770 C.2   420  HEM420      0.0000
     13  O1A       -4.3220  -20.1900   25.0550 O.co2 420  HEM420      0.0000
     14  O2A       -4.4530  -18.3780   23.7980 O.co2 420  HEM420      0.0000
     15  C1B       -1.3100  -22.7480   16.6840 C.2   420  HEM420      0.0000
     16  C2B       -1.6060  -23.3660   15.4030 C.2   420  HEM420      0.0000
     17  C3B       -0.4390  -23.7600   14.8790 C.2   420  HEM420      0.0000
     18  C4B        0.6150  -23.4340   15.8250 C.2   420  HEM420      0.0000
     19  CMB       -3.0180  -23.4600   14.7860 C.3   420  HEM420      0.0000
     20  CAB       -0.1410  -24.4780   13.5390 C.2   420  HEM420      0.0000
     21  CBB       -1.0510  -24.7020   12.5870 C.2   420  HEM420      0.0000
     22  C1C        2.9570  -23.4020   16.5130 C.ar  420  HEM420      0.0000
     23  C2C        4.3570  -23.6840   16.3230 C.ar  420  HEM420      0.0000
     24  C3C        5.0140  -23.2700   17.4210 C.ar  420  HEM420      0.0000
     25  C4C        4.0290  -22.6900   18.3350 C.ar  420  HEM420      0.0000
     26  CMC        4.9540  -24.3700   15.0640 C.3   420  HEM420      0.0000
     27  CAC        6.5300  -23.3830   17.6700 C.2   420  HEM420      0.0000
     28  CBC        6.9350  -23.9450   18.8120 C.2   420  HEM420      0.0000
     29  C1D        3.4060  -21.4460   20.3700 C.2   420  HEM420      0.0000
     30  C2D        3.7530  -20.8150   21.6300 C.2   420  HEM420      0.0000
     31  C3D        2.4330  -20.2600   22.1660 C.2   420  HEM420      0.0000
     32  C4D        1.4450  -20.6020   21.1730 C.2   420  HEM420      0.0000
     33  CMD        5.1430  -20.7370   22.3190 C.3   420  HEM420      0.0000
     34  CAD        2.1950  -19.4920   23.4890 C.3   420  HEM420      0.0000
     35  CBD        2.2540  -17.9800   23.3280 C.3   420  HEM420      0.0000
     36  CGD        1.9570  -17.3380   24.6570 C.2   420  HEM420      0.0000
     37  O1D        2.3010  -16.1430   24.8280 O.co2 420  HEM420      0.0000
     38  O2D        1.3880  -18.0050   25.5560 O.co2 420  HEM420      0.0000
     39  NA        -0.7030  -21.3540   19.2430 N.ar  420  HEM420      0.0000
     40  NB         0.0500  -22.8060   16.9020 N.2   420  HEM420      0.0000
     41  NC         2.8030  -22.7390   17.7120 N.ar  420  HEM420      0.0000
     42  ND         2.0500  -21.2620   20.1100 N.2   420  HEM420      0.0000
     43 FE          1.0520  -21.9550   18.4610 Fe    420  HEM420      0.0000
@<TRIPOS>BOND
     1    21    20    2
     2    20    17    1
     3    19    16    1
     4    17    16    2
     5    17    18    1
     6    26    23    1
     7    16    15    1
     8     3    18    2
     9     3    22    1
    10    18    40    1
    11    23    22   ar
    12    23    24   ar
    13    22    41   ar
    14    15    40    2
    15    15     2    1
    16    40    43    1
    17    24    27    1
    18    24    25   ar
    19     2     8    2
    20    27    28    2
    21    41    25   ar
    22    41    43    1
    23    25     4    1
    24    43    39    1
    25    43    42    1
    26     8    39   ar
    27     8     7   ar
    28    39     5   ar
    29     9     7    1
    30     4    29    2
    31     7     6   ar
    32    42    29    1
    33    42    32    2
    34    29    30    1
    35     5     6   ar
    36     5     1    2
    37     6    10    1
    38    32     1    1
    39    32    31    1
    40    30    31    2
    41    30    33    1
    42    10    11    1
    43    31    34    1
    44    11    12    1
    45    35    34    1
    46    35    36    1
    47    14    12   ar
    48    12    13   ar
    49    36    37   ar
    50    36    38   ar
