@<TRIPOS>MOLECULE
3p6q_HEM_A_1.pdb
 43 50 0 0 0
SMALL
GASTEIGER

@<TRIPOS>ATOM
      1  CHA        0.1030  -20.1450  -21.1870 C.2   420  HEM420      0.0000
      2  CHB        2.4680  -21.8900  -17.3130 C.2   420  HEM420      0.0000
      3  CHC       -1.8310  -23.2040  -15.4900 C.2   420  HEM420      0.0000
      4  CHD       -4.1370  -21.8390  -19.5080 C.2   420  HEM420      0.0000
      5  C1A        1.1000  -20.4690  -20.2880 C.2   420  HEM420      0.0000
      6  C2A        2.5020  -20.1530  -20.4480 C.2   420  HEM420      0.0000
      7  C3A        3.1440  -20.6320  -19.3800 C.2   420  HEM420      0.0000
      8  C4A        2.1750  -21.2790  -18.5170 C.2   420  HEM420      0.0000
      9  CMA        4.6590  -20.5310  -19.0960 C.3   420  HEM420      0.0000
     10  CAA        3.1720  -19.3690  -21.6180 C.3   420  HEM420      0.0000
     11  CBA        3.8710  -20.3080  -22.5950 C.3   420  HEM420      0.0000
     12  CGA        4.6690  -19.5300  -23.6350 C.2   420  HEM420      0.0000
     13  O1A        5.2060  -20.1410  -24.5920 O.co2 420  HEM420      0.0000
     14  O2A        4.8100  -18.2970  -23.5330 O.co2 420  HEM420      0.0000
     15  C1B        1.5070  -22.3910  -16.4580 C.ar  420  HEM420      0.0000
     16  C2B        1.7280  -22.9600  -15.1490 C.ar  420  HEM420      0.0000
     17  C3B        0.5300  -23.3260  -14.6620 C.ar  420  HEM420      0.0000
     18  C4B       -0.4770  -22.9950  -15.6470 C.ar  420  HEM420      0.0000
     19  CMB        3.1280  -23.0950  -14.5000 C.3   420  HEM420      0.0000
     20  CAB        0.1320  -23.9970  -13.3250 C.2   420  HEM420      0.0000
     21  CBB        0.9610  -24.2760  -12.3280 C.2   420  HEM420      0.0000
     22  C1C       -2.8350  -22.9540  -16.3980 C.2   420  HEM420      0.0000
     23  C2C       -4.2420  -23.2330  -16.2100 C.2   420  HEM420      0.0000
     24  C3C       -4.8910  -22.8700  -17.3220 C.2   420  HEM420      0.0000
     25  C4C       -3.9050  -22.3450  -18.2520 C.2   420  HEM420      0.0000
     26  CMC       -4.9010  -23.8250  -14.9460 C.3   420  HEM420      0.0000
     27  CAC       -6.4170  -22.9980  -17.5290 C.2   420  HEM420      0.0000
     28  CBC       -6.8750  -23.5270  -18.6720 C.2   420  HEM420      0.0000
     29  C1D       -3.2360  -21.2300  -20.3430 C.ar  420  HEM420      0.0000
     30  C2D       -3.5380  -20.6690  -21.6470 C.ar  420  HEM420      0.0000
     31  C3D       -2.2080  -20.1530  -22.1780 C.ar  420  HEM420      0.0000
     32  C4D       -1.2350  -20.4480  -21.1360 C.ar  420  HEM420      0.0000
     33  CMD       -4.9150  -20.6050  -22.3580 C.3   420  HEM420      0.0000
     34  CAD       -1.9540  -19.4560  -23.5460 C.3   420  HEM420      0.0000
     35  CBD       -1.7450  -17.9570  -23.3940 C.3   420  HEM420      0.0000
     36  CGD       -1.4020  -17.3640  -24.7470 C.2   420  HEM420      0.0000
     37  O1D       -1.7580  -16.1840  -24.9660 O.co2 420  HEM420      0.0000
     38  O2D       -0.7760  -18.0580  -25.6070 O.co2 420  HEM420      0.0000
     39  NA         0.9220  -21.1440  -19.0950 N.2   420  HEM420      0.0000
     40  NB         0.1540  -22.4310  -16.7210 N.ar  420  HEM420      0.0000
     41  NC        -2.6690  -22.4000  -17.6470 N.2   420  HEM420      0.0000
     42  ND        -1.8860  -21.0660  -20.0900 N.ar  420  HEM420      0.0000
     43 FE         -0.8780  -21.7240  -18.3600 Fe    420  HEM420      0.0000
@<TRIPOS>BOND
     1    38    36   ar
     2    37    36   ar
     3    36    35    1
     4    13    12   ar
     5    12    14   ar
     6    12    11    1
     7    34    35    1
     8    34    31    1
     9    11    10    1
    10    33    30    1
    11    31    30   ar
    12    31    32   ar
    13    30    29   ar
    14    10     6    1
    15     1    32    2
    16     1     5    1
    17    32    42   ar
    18     6     5    1
    19     6     7    2
    20    29    42   ar
    21    29     4    2
    22     5    39    2
    23    42    43    1
    24     4    25    1
    25     7     9    1
    26     7     8    1
    27    39     8    1
    28    39    43    1
    29    28    27    2
    30     8     2    2
    31    43    41    1
    32    43    40    1
    33    25    41    2
    34    25    24    1
    35    41    22    1
    36    27    24    1
    37    24    23    2
    38     2    15    1
    39    40    15   ar
    40    40    18   ar
    41    15    16   ar
    42    22    23    1
    43    22     3    2
    44    23    26    1
    45    18     3    1
    46    18    17   ar
    47    16    17   ar
    48    16    19    1
    49    17    20    1
    50    20    21    2
