@<TRIPOS>MOLECULE
3p6r_HEM_A_1.pdb
 43 50 0 0 0
SMALL
GASTEIGER

@<TRIPOS>ATOM
      1  CHA        0.1470  -20.5320  -21.4040 C.2   420  HEM420      0.0000
      2  CHB        2.4630  -22.2470  -17.5130 C.2   420  HEM420      0.0000
      3  CHC       -1.8690  -23.5440  -15.6900 C.2   420  HEM420      0.0000
      4  CHD       -4.1330  -22.2660  -19.7520 C.2   420  HEM420      0.0000
      5  C1A        1.1570  -20.8540  -20.5240 C.2   420  HEM420      0.0000
      6  C2A        2.5630  -20.5150  -20.6770 C.2   420  HEM420      0.0000
      7  C3A        3.2180  -20.9850  -19.6000 C.2   420  HEM420      0.0000
      8  C4A        2.2310  -21.6310  -18.7290 C.2   420  HEM420      0.0000
      9  CMA        4.7420  -20.8860  -19.3250 C.3   420  HEM420      0.0000
     10  CAA        3.1710  -19.7380  -21.8860 C.3   420  HEM420      0.0000
     11  CBA        3.9240  -20.6800  -22.8200 C.3   420  HEM420      0.0000
     12  CGA        4.6550  -19.9690  -23.9470 C.2   420  HEM420      0.0000
     13  O1A        5.0180  -20.6650  -24.9280 O.co2 420  HEM420      0.0000
     14  O2A        4.9060  -18.7420  -23.9080 O.co2 420  HEM420      0.0000
     15  C1B        1.4780  -22.7520  -16.6720 C.ar  420  HEM420      0.0000
     16  C2B        1.6850  -23.3640  -15.3720 C.ar  420  HEM420      0.0000
     17  C3B        0.4830  -23.7130  -14.8770 C.ar  420  HEM420      0.0000
     18  C4B       -0.5150  -23.3390  -15.8540 C.ar  420  HEM420      0.0000
     19  CMB        3.0580  -23.5240  -14.6890 C.3   420  HEM420      0.0000
     20  CAB        0.1230  -24.4060  -13.5370 C.2   420  HEM420      0.0000
     21  CBB        1.0070  -24.5600  -12.5410 C.2   420  HEM420      0.0000
     22  C1C       -2.8640  -23.3140  -16.5960 C.2   420  HEM420      0.0000
     23  C2C       -4.2760  -23.5780  -16.4020 C.2   420  HEM420      0.0000
     24  C3C       -4.9090  -23.2490  -17.5340 C.2   420  HEM420      0.0000
     25  C4C       -3.9150  -22.7460  -18.4760 C.2   420  HEM420      0.0000
     26  CMC       -4.9260  -24.1470  -15.1110 C.3   420  HEM420      0.0000
     27  CAC       -6.4420  -23.3610  -17.7480 C.2   420  HEM420      0.0000
     28  CBC       -6.9490  -24.1400  -18.7080 C.2   420  HEM420      0.0000
     29  C1D       -3.2180  -21.6670  -20.5870 C.ar  420  HEM420      0.0000
     30  C2D       -3.5020  -21.1490  -21.9110 C.ar  420  HEM420      0.0000
     31  C3D       -2.1630  -20.6050  -22.4220 C.ar  420  HEM420      0.0000
     32  C4D       -1.1990  -20.8590  -21.3650 C.ar  420  HEM420      0.0000
     33  CMD       -4.8720  -21.1530  -22.6400 C.3   420  HEM420      0.0000
     34  CAD       -1.8770  -19.9440  -23.7930 C.3   420  HEM420      0.0000
     35  CBD       -1.7740  -18.4160  -23.6860 C.3   420  HEM420      0.0000
     36  CGD       -1.5430  -17.8330  -25.0730 C.2   420  HEM420      0.0000
     37  O1D       -1.8710  -16.6500  -25.3080 O.co2 420  HEM420      0.0000
     38  O2D       -1.0060  -18.5360  -25.9680 O.co2 420  HEM420      0.0000
     39  NA         1.0000  -21.5120  -19.3220 N.2   420  HEM420      0.0000
     40  NB         0.1230  -22.7590  -16.9250 N.ar  420  HEM420      0.0000
     41  NC        -2.6820  -22.7820  -17.8490 N.2   420  HEM420      0.0000
     42  ND        -1.8680  -21.4690  -20.3200 N.ar  420  HEM420      0.0000
     43 FE         -0.8570  -22.0970  -18.5650 Fe    420  HEM420      0.0000
@<TRIPOS>BOND
     1    38    36   ar
     2    37    36   ar
     3    36    35    1
     4    13    12   ar
     5    12    14   ar
     6    12    11    1
     7    34    35    1
     8    34    31    1
     9    11    10    1
    10    33    30    1
    11    31    30   ar
    12    31    32   ar
    13    30    29   ar
    14    10     6    1
    15     1    32    2
    16     1     5    1
    17    32    42   ar
    18     6     5    1
    19     6     7    2
    20    29    42   ar
    21    29     4    2
    22     5    39    2
    23    42    43    1
    24     4    25    1
    25     7     9    1
    26     7     8    1
    27    39     8    1
    28    39    43    1
    29     8     2    2
    30    28    27    2
    31    43    41    1
    32    43    40    1
    33    25    41    2
    34    25    24    1
    35    41    22    1
    36    27    24    1
    37    24    23    2
    38     2    15    1
    39    40    15   ar
    40    40    18   ar
    41    15    16   ar
    42    22    23    1
    43    22     3    2
    44    23    26    1
    45    18     3    1
    46    18    17   ar
    47    16    17   ar
    48    16    19    1
    49    17    20    1
    50    20    21    2
