@<TRIPOS>MOLECULE
3p6s_HEM_A_1.pdb
 43 50 0 0 0
SMALL
GASTEIGER

@<TRIPOS>ATOM
      1  CHA       -0.2280   16.6900   21.2640 C.2   420  HEM420      0.0000
      2  CHB       -2.5600   14.8680   17.4140 C.2   420  HEM420      0.0000
      3  CHC        1.7270   13.6150   15.6290 C.2   420  HEM420      0.0000
      4  CHD        4.0510   15.0620   19.6250 C.2   420  HEM420      0.0000
      5  C1A       -1.2040   16.3250   20.3610 C.ar  420  HEM420      0.0000
      6  C2A       -2.6020   16.6360   20.5290 C.ar  420  HEM420      0.0000
      7  C3A       -3.2620   16.1350   19.4710 C.ar  420  HEM420      0.0000
      8  C4A       -2.2840   15.4970   18.6120 C.ar  420  HEM420      0.0000
      9  CMA       -4.7800   16.2250   19.2080 C.3   420  HEM420      0.0000
     10  CAA       -3.2210   17.4280   21.7170 C.3   420  HEM420      0.0000
     11  CBA       -3.8860   16.5050   22.7390 C.3   420  HEM420      0.0000
     12  CGA       -4.5800   17.3010   23.8440 C.2   420  HEM420      0.0000
     13  O1A       -4.8420   16.7000   24.9080 O.co2 420  HEM420      0.0000
     14  O2A       -4.9030   18.5150   23.7030 O.co2 420  HEM420      0.0000
     15  C1B       -1.5890   14.3840   16.5790 C.2   420  HEM420      0.0000
     16  C2B       -1.8110   13.8290   15.2740 C.2   420  HEM420      0.0000
     17  C3B       -0.6280   13.4740   14.7600 C.2   420  HEM420      0.0000
     18  C4B        0.3850   13.8060   15.7550 C.2   420  HEM420      0.0000
     19  CMB       -3.2280   13.6860   14.6870 C.3   420  HEM420      0.0000
     20  CAB       -0.3220   12.7870   13.4100 C.2   420  HEM420      0.0000
     21  CBB       -1.2600   12.5500   12.4470 C.2   420  HEM420      0.0000
     22  C1C        2.7130   13.9050   16.5440 C.ar  420  HEM420      0.0000
     23  C2C        4.1160   13.6360   16.3280 C.ar  420  HEM420      0.0000
     24  C3C        4.7750   13.9980   17.4280 C.ar  420  HEM420      0.0000
     25  C4C        3.7940   14.5260   18.3730 C.ar  420  HEM420      0.0000
     26  CMC        4.7100   13.0430   15.0190 C.3   420  HEM420      0.0000
     27  CAC        6.3020   13.9370   17.6090 C.2   420  HEM420      0.0000
     28  CBC        6.8320   13.0390   18.4370 C.2   420  HEM420      0.0000
     29  C1D        3.1300   15.6690   20.4400 C.2   420  HEM420      0.0000
     30  C2D        3.4130   16.2160   21.7460 C.2   420  HEM420      0.0000
     31  C3D        2.0830   16.7250   22.2730 C.2   420  HEM420      0.0000
     32  C4D        1.1070   16.4120   21.2360 C.2   420  HEM420      0.0000
     33  CMD        4.7630   16.2820   22.4870 C.3   420  HEM420      0.0000
     34  CAD        1.9090   17.4250   23.6460 C.3   420  HEM420      0.0000
     35  CBD        1.6770   18.9270   23.4580 C.3   420  HEM420      0.0000
     36  CGD        1.4500   19.5470   24.8310 C.2   420  HEM420      0.0000
     37  O1D        1.8720   20.6880   25.0390 O.co2 420  HEM420      0.0000
     38  O2D        0.8690   18.9100   25.7400 O.co2 420  HEM420      0.0000
     39  NA        -1.0330   15.6520   19.1620 N.ar  420  HEM420      0.0000
     40  NB        -0.2250   14.3650   16.8350 N.2   420  HEM420      0.0000
     41  NC         2.5410   14.4590   17.7970 N.ar  420  HEM420      0.0000
     42  ND         1.7580   15.8110   20.1760 N.2   420  HEM420      0.0000
     43 FE          0.7700   15.1220   18.4480 Fe    420  HEM420      0.0000
@<TRIPOS>BOND
     1    21    20    2
     2    20    17    1
     3    19    16    1
     4    17    16    2
     5    17    18    1
     6    26    23    1
     7    16    15    1
     8     3    18    2
     9     3    22    1
    10    18    40    1
    11    23    22   ar
    12    23    24   ar
    13    22    41   ar
    14    15    40    2
    15    15     2    1
    16    40    43    1
    17     2     8    2
    18    24    27    1
    19    24    25   ar
    20    27    28    2
    21    41    25   ar
    22    41    43    1
    23    25     4    1
    24    43    39    1
    25    43    42    1
    26     8    39   ar
    27     8     7   ar
    28    39     5   ar
    29     9     7    1
    30     7     6   ar
    31     4    29    2
    32    42    29    1
    33    42    32    2
    34     5     6   ar
    35     5     1    2
    36    29    30    1
    37     6    10    1
    38    32     1    1
    39    32    31    1
    40    10    11    1
    41    30    31    2
    42    30    33    1
    43    31    34    1
    44    11    12    1
    45    35    34    1
    46    35    36    1
    47    14    12   ar
    48    12    13   ar
    49    36    37   ar
    50    36    38   ar
