@<TRIPOS>MOLECULE
3p6t_SBF_A_1.pdb
 39 43 0 0 0
SMALL
GASTEIGER

@<TRIPOS>ATOM
      1  C1         2.7520  -25.1890  -20.5670 C.3   440  SBF440      0.0000
      2  C2         1.4330  -24.4590  -20.8600 C.3   440  SBF440      0.0000
      3  C3         1.7180  -23.3750  -21.8850 C.3   440  SBF440      0.0000
      4  C4         0.4230  -25.4700  -21.4280 C.3   440  SBF440      0.0005
      5  C5         3.3120  -25.8350  -21.8480 C.3   440  SBF440      0.0000
      6  C6         3.5740  -24.7440  -22.8990 C.3   440  SBF440      0.0000
      7  C7         2.2800  -26.8260  -22.4080 C.3   440  SBF440      0.0005
      8  C8         2.2590  -23.9840  -23.1790 C.3   440  SBF440      0.0000
      9  C9         0.9630  -26.0970  -22.7140 C.3   440  SBF440      0.0087
     10  C10        1.1970  -24.9560  -23.7220 C.3   440  SBF440      0.0005
     11  C11       10.0790  -36.9940  -32.3760 C.ar  440  SBF440      0.0145
     12  C12        8.9490  -36.8910  -31.5650 C.ar  440  SBF440      0.0013
     13  C13        9.0990  -36.6120  -30.2080 C.ar  440  SBF440      0.0014
     14  C14       11.3640  -36.8150  -31.8440 C.ar  440  SBF440      0.0479
     15  C15       11.5110  -36.5310  -30.4640 C.ar  440  SBF440      0.0146
     16  C16       10.3710  -36.4310  -29.6380 C.ar  440  SBF440      0.0199
     17  C17       10.5230  -36.1520  -28.2610 C.ar  440  SBF440      0.1236
     18  C18       11.8040  -35.9730  -27.7260 C.ar  440  SBF440      0.0200
     19  C19       12.9300  -36.0700  -28.5360 C.ar  440  SBF440      0.0014
     20  C20       12.7810  -36.3460  -29.8950 C.ar  440  SBF440      0.0013
     21  N21       12.4740  -36.9280  -32.7160 N.pl3 440  SBF440     -0.3041
     22  C22       13.1700  -38.2050  -32.8640 C.3   440  SBF440      0.1122
     23  C23       12.9320  -35.7790  -33.4930 C.3   440  SBF440      0.1122
     24  C24        0.1070  -27.6160  -24.6160 C.2   440  SBF440      0.2414
     25  N25        0.6160  -28.8030  -24.8970 N.am  440  SBF440     -0.2054
     26  C26        1.1510  -29.9110  -24.1570 C.3   440  SBF440      0.1151
     27  C27        1.6310  -30.7560  -25.3320 C.3   440  SBF440      0.0234
     28  C28        3.0540  -30.4030  -25.7560 C.3   440  SBF440      0.0018
     29  C29        3.5550  -31.3970  -26.7990 C.3   440  SBF440      0.0001
     30  C30        4.6980  -32.2460  -26.2550 C.3   440  SBF440      0.0000
     31  C31        5.7280  -32.4980  -27.3470 C.3   440  SBF440      0.0015
     32  C32        6.1580  -33.9570  -27.3570 C.3   440  SBF440      0.0208
     33  C33        7.5100  -34.1010  -26.6740 C.3   440  SBF440      0.1155
     34  N34        8.5020  -34.6380  -27.5830 N.3   440  SBF440     -0.0778
     35  O35        9.7010  -36.0330  -25.8970 O.2   440  SBF440     -0.1516
     36  S36        9.2620  -36.0210  -27.2700 S.O2  440  SBF440      0.0768
     37  O37        8.3690  -37.1320  -27.4720 O.2   440  SBF440     -0.1516
     38  O38       -0.2470  -26.9460  -25.5550 O.2   440  SBF440     -0.2733
     39  C39       -0.0820  -27.1140  -23.1950 C.3   440  SBF440      0.0868
@<TRIPOS>BOND
     1    23    21    1
     2    22    21    1
     3    21    14    1
     4    11    14   ar
     5    11    12   ar
     6    14    15   ar
     7    12    13   ar
     8    15    20   ar
     9    15    16   ar
    10    13    16   ar
    11    20    19   ar
    12    16    17   ar
    13    19    18   ar
    14    17    18   ar
    15    17    36    1
    16    34    36    1
    17    34    33    1
    18    37    36    2
    19    32    31    1
    20    32    33    1
    21    31    30    1
    22    36    35    2
    23    29    30    1
    24    29    28    1
    25    28    27    1
    26    38    24    2
    27    27    26    1
    28    25    24   am
    29    25    26    1
    30    24    39    1
    31    10     8    1
    32    10     9    1
    33    39     9    1
    34     8     6    1
    35     8     3    1
    36     6     5    1
    37     9     7    1
    38     9     4    1
    39     7     5    1
    40     3     2    1
    41     5     1    1
    42     4     2    1
    43     2     1    1
