@<TRIPOS>MOLECULE
3p6t_HEM_A_1.pdb
 43 50 0 0 0
SMALL
GASTEIGER

@<TRIPOS>ATOM
      1  CHA        0.0240  -20.1140  -21.2980 C.2   420  HEM420      0.0000
      2  CHB        2.3410  -22.0540  -17.4830 C.2   420  HEM420      0.0000
      3  CHC       -1.8710  -23.4930  -15.5920 C.2   420  HEM420      0.0000
      4  CHD       -4.1680  -22.0350  -19.6130 C.2   420  HEM420      0.0000
      5  C1A        1.0430  -20.4760  -20.4350 C.2   420  HEM420      0.0000
      6  C2A        2.4570  -20.1370  -20.5360 C.2   420  HEM420      0.0000
      7  C3A        3.0840  -20.6980  -19.4800 C.2   420  HEM420      0.0000
      8  C4A        2.0950  -21.3650  -18.6650 C.2   420  HEM420      0.0000
      9  CMA        4.5860  -20.6220  -19.1860 C.3   420  HEM420      0.0000
     10  CAA        3.1630  -19.3160  -21.6450 C.3   420  HEM420      0.0000
     11  CBA        3.6210  -20.2390  -22.7530 C.3   420  HEM420      0.0000
     12  CGA        4.3530  -19.4660  -23.8440 C.2   420  HEM420      0.0000
     13  O1A        4.6370  -20.0910  -24.8920 O.co2 420  HEM420      0.0000
     14  O2A        4.6620  -18.2640  -23.6790 O.co2 420  HEM420      0.0000
     15  C1B        1.4070  -22.5900  -16.6270 C.ar  420  HEM420      0.0000
     16  C2B        1.6880  -23.1720  -15.3250 C.ar  420  HEM420      0.0000
     17  C3B        0.5180  -23.5670  -14.8060 C.ar  420  HEM420      0.0000
     18  C4B       -0.5230  -23.2450  -15.7680 C.ar  420  HEM420      0.0000
     19  CMB        3.1040  -23.2650  -14.7010 C.3   420  HEM420      0.0000
     20  CAB        0.2180  -24.2840  -13.4680 C.2   420  HEM420      0.0000
     21  CBB        1.1210  -24.5170  -12.4750 C.2   420  HEM420      0.0000
     22  C1C       -2.8650  -23.2310  -16.5010 C.2   420  HEM420      0.0000
     23  C2C       -4.2800  -23.4800  -16.2950 C.2   420  HEM420      0.0000
     24  C3C       -4.9250  -23.1240  -17.4220 C.2   420  HEM420      0.0000
     25  C4C       -3.9320  -22.5790  -18.3520 C.2   420  HEM420      0.0000
     26  CMC       -4.8240  -24.1000  -14.9860 C.3   420  HEM420      0.0000
     27  CAC       -6.4450  -23.2160  -17.6860 C.2   420  HEM420      0.0000
     28  CBC       -6.8320  -23.8050  -18.8080 C.2   420  HEM420      0.0000
     29  C1D       -3.2730  -21.3540  -20.4350 C.ar  420  HEM420      0.0000
     30  C2D       -3.6000  -20.7620  -21.7340 C.ar  420  HEM420      0.0000
     31  C3D       -2.2770  -20.1810  -22.2440 C.ar  420  HEM420      0.0000
     32  C4D       -1.3040  -20.4850  -21.2170 C.ar  420  HEM420      0.0000
     33  CMD       -4.9960  -20.7570  -22.4190 C.3   420  HEM420      0.0000
     34  CAD       -1.9100  -19.4410  -23.5520 C.3   420  HEM420      0.0000
     35  CBD       -1.9820  -17.9280  -23.4260 C.3   420  HEM420      0.0000
     36  CGD       -1.7180  -17.3300  -24.7920 C.2   420  HEM420      0.0000
     37  O1D       -2.1360  -16.1940  -25.0430 O.co2 420  HEM420      0.0000
     38  O2D       -1.0520  -17.9540  -25.6260 O.co2 420  HEM420      0.0000
     39  NA         0.8780  -21.2100  -19.2840 N.2   420  HEM420      0.0000
     40  NB         0.0460  -22.6540  -16.8550 N.ar  420  HEM420      0.0000
     41  NC        -2.7020  -22.6340  -17.7230 N.2   420  HEM420      0.0000
     42  ND        -1.9230  -21.1570  -20.1690 N.ar  420  HEM420      0.0000
     43 FE         -0.9120  -21.8620  -18.4510 Fe    420  HEM420      0.0000
@<TRIPOS>BOND
     1    38    36   ar
     2    37    36   ar
     3    13    12   ar
     4    36    35    1
     5    12    14   ar
     6    12    11    1
     7    34    35    1
     8    34    31    1
     9    11    10    1
    10    33    30    1
    11    31    30   ar
    12    31    32   ar
    13    30    29   ar
    14    10     6    1
    15     1    32    2
    16     1     5    1
    17    32    42   ar
    18     6     5    1
    19     6     7    2
    20     5    39    2
    21    29    42   ar
    22    29     4    2
    23    42    43    1
    24     4    25    1
    25     7     9    1
    26     7     8    1
    27    39     8    1
    28    39    43    1
    29    28    27    2
    30     8     2    2
    31    43    41    1
    32    43    40    1
    33    25    41    2
    34    25    24    1
    35    41    22    1
    36    27    24    1
    37     2    15    1
    38    24    23    2
    39    40    15   ar
    40    40    18   ar
    41    15    16   ar
    42    22    23    1
    43    22     3    2
    44    23    26    1
    45    18     3    1
    46    18    17   ar
    47    16    17   ar
    48    16    19    1
    49    17    20    1
    50    20    21    2
