@<TRIPOS>MOLECULE
3p6u_HEM_A_1.pdb
 43 50 0 0 0
SMALL
GASTEIGER

@<TRIPOS>ATOM
      1  CHA       -0.3340  -20.3860   21.3970 C.2   420  HEM420      0.0000
      2  CHB       -2.5590  -22.1490   17.4720 C.2   420  HEM420      0.0000
      3  CHC        1.7240  -23.5270   15.6500 C.2   420  HEM420      0.0000
      4  CHD        3.8940  -22.3050   19.8090 C.2   420  HEM420      0.0000
      5  C1A       -1.2960  -20.6920   20.4730 C.ar  420  HEM420      0.0000
      6  C2A       -2.6960  -20.3270   20.5430 C.ar  420  HEM420      0.0000
      7  C3A       -3.2880  -20.8190   19.4580 C.ar  420  HEM420      0.0000
      8  C4A       -2.2950  -21.5090   18.6670 C.ar  420  HEM420      0.0000
      9  CMA       -4.7770  -20.7110   19.0860 C.3   420  HEM420      0.0000
     10  CAA       -3.3790  -19.5040   21.6650 C.3   420  HEM420      0.0000
     11  CBA       -3.9820  -20.4610   22.6940 C.3   420  HEM420      0.0000
     12  CGA       -4.7620  -19.7350   23.7650 C.2   420  HEM420      0.0000
     13  O1A       -5.2210  -20.4300   24.7030 O.co2 420  HEM420      0.0000
     14  O2A       -4.9440  -18.4960   23.7100 O.co2 420  HEM420      0.0000
     15  C1B       -1.5930  -22.6470   16.6360 C.2   420  HEM420      0.0000
     16  C2B       -1.8150  -23.1950   15.3190 C.2   420  HEM420      0.0000
     17  C3B       -0.6340  -23.5830   14.8230 C.2   420  HEM420      0.0000
     18  C4B        0.3810  -23.2800   15.8100 C.2   420  HEM420      0.0000
     19  CMB       -3.2090  -23.2870   14.6700 C.3   420  HEM420      0.0000
     20  CAB       -0.2800  -24.2370   13.4650 C.2   420  HEM420      0.0000
     21  CBB       -1.1460  -24.3540   12.4500 C.2   420  HEM420      0.0000
     22  C1C        2.6890  -23.2790   16.6020 C.ar  420  HEM420      0.0000
     23  C2C        4.1180  -23.4630   16.4400 C.ar  420  HEM420      0.0000
     24  C3C        4.7100  -23.1430   17.6030 C.ar  420  HEM420      0.0000
     25  C4C        3.6810  -22.7210   18.5160 C.ar  420  HEM420      0.0000
     26  CMC        4.7920  -23.9670   15.1450 C.3   420  HEM420      0.0000
     27  CAC        6.2060  -23.1730   18.0110 C.2   420  HEM420      0.0000
     28  CBC        7.1990  -23.4710   17.1810 C.2   420  HEM420      0.0000
     29  C1D        2.9630  -21.6780   20.6020 C.2   420  HEM420      0.0000
     30  C2D        3.2340  -21.1440   21.9140 C.2   420  HEM420      0.0000
     31  C3D        1.9150  -20.5440   22.4010 C.2   420  HEM420      0.0000
     32  C4D        0.9760  -20.7790   21.3330 C.2   420  HEM420      0.0000
     33  CMD        4.5980  -21.1830   22.6420 C.3   420  HEM420      0.0000
     34  CAD        1.5780  -19.8470   23.7430 C.3   420  HEM420      0.0000
     35  CBD        1.6480  -18.3310   23.6000 C.3   420  HEM420      0.0000
     36  CGD        1.3180  -17.6930   24.9300 C.2   420  HEM420      0.0000
     37  O1D        1.7400  -16.5290   25.1310 O.co2 420  HEM420      0.0000
     38  O2D        0.6340  -18.3250   25.7750 O.co2 420  HEM420      0.0000
     39  NA        -1.0720  -21.4160   19.3130 N.ar  420  HEM420      0.0000
     40  NB        -0.2550  -22.7430   16.9110 N.2   420  HEM420      0.0000
     41  NC         2.4610  -22.7900   17.8790 N.ar  420  HEM420      0.0000
     42  ND         1.6290  -21.4340   20.2870 N.2   420  HEM420      0.0000
     43 FE          0.6870  -22.0440   18.5740 Fe    420  HEM420      0.0000
@<TRIPOS>BOND
     1    21    20    2
     2    20    17    1
     3    19    16    1
     4    17    16    2
     5    17    18    1
     6    26    23    1
     7    16    15    1
     8     3    18    2
     9     3    22    1
    10    18    40    1
    11    23    22   ar
    12    23    24   ar
    13    22    41   ar
    14    15    40    2
    15    15     2    1
    16    40    43    1
    17    28    27    2
    18     2     8    2
    19    24    27    1
    20    24    25   ar
    21    41    25   ar
    22    41    43    1
    23    25     4    1
    24    43    39    1
    25    43    42    1
    26     8    39   ar
    27     8     7   ar
    28     9     7    1
    29    39     5   ar
    30     7     6   ar
    31     4    29    2
    32    42    29    1
    33    42    32    2
    34     5     6   ar
    35     5     1    2
    36     6    10    1
    37    29    30    1
    38    32     1    1
    39    32    31    1
    40    10    11    1
    41    30    31    2
    42    30    33    1
    43    31    34    1
    44    11    12    1
    45    35    34    1
    46    35    36    1
    47    14    12   ar
    48    12    13   ar
    49    36    37   ar
    50    36    38   ar
