@<TRIPOS>MOLECULE
3p6v_HEM_A_1.pdb
 43 50 0 0 0
SMALL
GASTEIGER

@<TRIPOS>ATOM
      1  CHA       -0.3990  -16.6510  -21.4430 C.2   420  HEM420      0.0000
      2  CHB       -2.5920  -14.9130  -17.5080 C.2   420  HEM420      0.0000
      3  CHC        1.7280  -13.7110  -15.6450 C.2   420  HEM420      0.0000
      4  CHD        3.8510  -14.8860  -19.8220 C.2   420  HEM420      0.0000
      5  C1A       -1.3660  -16.3220  -20.5240 C.2   420  HEM420      0.0000
      6  C2A       -2.7740  -16.6390  -20.6460 C.2   420  HEM420      0.0000
      7  C3A       -3.3920  -16.1690  -19.5540 C.2   420  HEM420      0.0000
      8  C4A       -2.3820  -15.5190  -18.7250 C.2   420  HEM420      0.0000
      9  CMA       -4.9070  -16.2780  -19.2430 C.3   420  HEM420      0.0000
     10  CAA       -3.4210  -17.4180  -21.8270 C.3   420  HEM420      0.0000
     11  CBA       -4.1440  -16.4960  -22.8090 C.3   420  HEM420      0.0000
     12  CGA       -4.9310  -17.2720  -23.8540 C.2   420  HEM420      0.0000
     13  O1A       -5.3900  -16.6470  -24.8500 O.co2 420  HEM420      0.0000
     14  O2A       -5.1310  -18.5040  -23.7260 O.co2 420  HEM420      0.0000
     15  C1B       -1.6060  -14.4390  -16.6600 C.ar  420  HEM420      0.0000
     16  C2B       -1.8390  -13.8400  -15.3650 C.ar  420  HEM420      0.0000
     17  C3B       -0.6530  -13.4990  -14.8350 C.ar  420  HEM420      0.0000
     18  C4B        0.3720  -13.8770  -15.7930 C.ar  420  HEM420      0.0000
     19  CMB       -3.2420  -13.6500  -14.7460 C.3   420  HEM420      0.0000
     20  CAB       -0.3580  -12.8120  -13.4830 C.2   420  HEM420      0.0000
     21  CBB       -1.2070  -12.8230  -12.4330 C.2   420  HEM420      0.0000
     22  C1C        2.6830  -13.9270  -16.6200 C.2   420  HEM420      0.0000
     23  C2C        4.1070  -13.6960  -16.4750 C.2   420  HEM420      0.0000
     24  C3C        4.7000  -13.9940  -17.6420 C.2   420  HEM420      0.0000
     25  C4C        3.6580  -14.4540  -18.5400 C.2   420  HEM420      0.0000
     26  CMC        4.7230  -13.1710  -15.1580 C.3   420  HEM420      0.0000
     27  CAC        6.2010  -13.9480  -18.0470 C.2   420  HEM420      0.0000
     28  CBC        7.0650  -13.0730  -17.5270 C.2   420  HEM420      0.0000
     29  C1D        2.9380  -15.5260  -20.6280 C.ar  420  HEM420      0.0000
     30  C2D        3.2280  -16.1150  -21.9190 C.ar  420  HEM420      0.0000
     31  C3D        1.8960  -16.6620  -22.4310 C.ar  420  HEM420      0.0000
     32  C4D        0.9350  -16.3370  -21.3990 C.ar  420  HEM420      0.0000
     33  CMD        4.5930  -16.1700  -22.6410 C.3   420  HEM420      0.0000
     34  CAD        1.6410  -17.3900  -23.7690 C.3   420  HEM420      0.0000
     35  CBD        1.5330  -18.9020  -23.6020 C.3   420  HEM420      0.0000
     36  CGD        1.2520  -19.4890  -24.9650 C.2   420  HEM420      0.0000
     37  O1D        1.7050  -20.6210  -25.2390 O.co2 420  HEM420      0.0000
     38  O2D        0.5770  -18.8280  -25.7890 O.co2 420  HEM420      0.0000
     39  NA        -1.1600  -15.6400  -19.3480 N.2   420  HEM420      0.0000
     40  NB        -0.2440  -14.4340  -16.8870 N.ar  420  HEM420      0.0000
     41  NC         2.4570  -14.4180  -17.8800 N.2   420  HEM420      0.0000
     42  ND         1.5890  -15.6760  -20.3630 N.ar  420  HEM420      0.0000
     43 FE          0.6840  -15.0660  -18.5810 Fe    420  HEM420      0.0000
@<TRIPOS>BOND
     1    38    36   ar
     2    37    36   ar
     3    36    35    1
     4    13    12   ar
     5    12    14   ar
     6    12    11    1
     7    34    35    1
     8    34    31    1
     9    11    10    1
    10    33    30    1
    11    31    30   ar
    12    31    32   ar
    13    30    29   ar
    14    10     6    1
    15     1    32    2
    16     1     5    1
    17    32    42   ar
    18     6     5    1
    19     6     7    2
    20    29    42   ar
    21    29     4    2
    22     5    39    2
    23    42    43    1
    24     4    25    1
    25     7     9    1
    26     7     8    1
    27    39     8    1
    28    39    43    1
    29     8     2    2
    30    43    41    1
    31    43    40    1
    32    25    41    2
    33    25    24    1
    34    27    24    1
    35    27    28    2
    36    41    22    1
    37    24    23    2
    38     2    15    1
    39    40    15   ar
    40    40    18   ar
    41    15    16   ar
    42    22    23    1
    43    22     3    2
    44    23    26    1
    45    18     3    1
    46    18    17   ar
    47    16    17   ar
    48    16    19    1
    49    17    20    1
    50    20    21    2
