@<TRIPOS>MOLECULE
3p6w_HEM_A_1.pdb
 43 50 0 0 0
SMALL
GASTEIGER

@<TRIPOS>ATOM
      1  CHA       -0.2990  -20.5570   21.4750 C.2   420  HEM420      0.0000
      2  CHB       -2.6550  -22.3720   17.6300 C.2   420  HEM420      0.0000
      3  CHC        1.6230  -23.7050   15.8670 C.2   420  HEM420      0.0000
      4  CHD        3.9310  -22.4910   19.9520 C.2   420  HEM420      0.0000
      5  C1A       -1.2860  -20.9000   20.5810 C.ar  420  HEM420      0.0000
      6  C2A       -2.6800  -20.5520   20.7330 C.ar  420  HEM420      0.0000
      7  C3A       -3.3460  -21.0420   19.6730 C.ar  420  HEM420      0.0000
      8  C4A       -2.3870  -21.7300   18.8280 C.ar  420  HEM420      0.0000
      9  CMA       -4.8650  -20.9150   19.3960 C.3   420  HEM420      0.0000
     10  CAA       -3.2270  -19.7030   21.9190 C.3   420  HEM420      0.0000
     11  CBA       -4.1700  -20.4940   22.8070 C.3   420  HEM420      0.0000
     12  CGA       -4.5890  -19.6120   23.9670 C.2   420  HEM420      0.0000
     13  O1A       -4.6850  -20.1620   25.0850 O.co2 420  HEM420      0.0000
     14  O2A       -4.8440  -18.3880   23.8040 O.co2 420  HEM420      0.0000
     15  C1B       -1.7050  -22.8830   16.7690 C.2   420  HEM420      0.0000
     16  C2B       -1.9180  -23.4550   15.4400 C.2   420  HEM420      0.0000
     17  C3B       -0.7170  -23.8360   14.9540 C.2   420  HEM420      0.0000
     18  C4B        0.2720  -23.4850   15.9660 C.2   420  HEM420      0.0000
     19  CMB       -3.3110  -23.5680   14.8120 C.3   420  HEM420      0.0000
     20  CAB       -0.3200  -24.5110   13.6070 C.2   420  HEM420      0.0000
     21  CBB       -1.1730  -24.7520   12.5930 C.2   420  HEM420      0.0000
     22  C1C        2.5980  -23.4760   16.7910 C.ar  420  HEM420      0.0000
     23  C2C        4.0100  -23.7120   16.5630 C.ar  420  HEM420      0.0000
     24  C3C        4.6570  -23.4010   17.6830 C.ar  420  HEM420      0.0000
     25  C4C        3.6880  -22.9390   18.6620 C.ar  420  HEM420      0.0000
     26  CMC        4.6670  -24.2440   15.2530 C.3   420  HEM420      0.0000
     27  CAC        6.1880  -23.5220   17.8090 C.2   420  HEM420      0.0000
     28  CBC        6.7360  -23.9100   18.9500 C.2   420  HEM420      0.0000
     29  C1D        3.0310  -21.8370   20.7590 C.2   420  HEM420      0.0000
     30  C2D        3.3200  -21.2780   22.0740 C.2   420  HEM420      0.0000
     31  C3D        1.9900  -20.6610   22.5530 C.2   420  HEM420      0.0000
     32  C4D        1.0300  -20.9350   21.4830 C.2   420  HEM420      0.0000
     33  CMD        4.6890  -21.3030   22.7910 C.3   420  HEM420      0.0000
     34  CAD        1.7020  -19.9320   23.8960 C.3   420  HEM420      0.0000
     35  CBD        1.4740  -18.4320   23.6830 C.3   420  HEM420      0.0000
     36  CGD        1.4650  -17.7450   25.0280 C.2   420  HEM420      0.0000
     37  O1D        2.1240  -16.6780   25.1510 O.co2 420  HEM420      0.0000
     38  O2D        0.8140  -18.2710   25.9820 O.co2 420  HEM420      0.0000
     39  NA        -1.1320  -21.6070   19.4000 N.ar  420  HEM420      0.0000
     40  NB        -0.3600  -22.9320   17.0300 N.2   420  HEM420      0.0000
     41  NC         2.4330  -22.9800   18.0820 N.ar  420  HEM420      0.0000
     42  ND         1.6850  -21.6100   20.4670 N.2   420  HEM420      0.0000
     43 FE          0.6650  -22.2470   18.7250 Fe    420  HEM420      0.0000
@<TRIPOS>BOND
     1    21    20    2
     2    20    17    1
     3    19    16    1
     4    17    16    2
     5    17    18    1
     6    26    23    1
     7    16    15    1
     8     3    18    2
     9     3    22    1
    10    18    40    1
    11    23    22   ar
    12    23    24   ar
    13    15    40    2
    14    15     2    1
    15    22    41   ar
    16    40    43    1
    17     2     8    2
    18    24    27    1
    19    24    25   ar
    20    27    28    2
    21    41    25   ar
    22    41    43    1
    23    25     4    1
    24    43    39    1
    25    43    42    1
    26     8    39   ar
    27     8     7   ar
    28     9     7    1
    29    39     5   ar
    30     7     6   ar
    31     4    29    2
    32    42    29    1
    33    42    32    2
    34     5     6   ar
    35     5     1    2
    36     6    10    1
    37    29    30    1
    38     1    32    1
    39    32    31    1
    40    10    11    1
    41    30    31    2
    42    30    33    1
    43    31    34    1
    44    11    12    1
    45    35    34    1
    46    35    36    1
    47    14    12   ar
    48    12    13   ar
    49    36    37   ar
    50    36    38   ar
