@<TRIPOS>MOLECULE
3p6x_HEM_A_1.pdb
 43 50 0 0 0
SMALL
GASTEIGER

@<TRIPOS>ATOM
      1  CHA        0.4690  -16.8230   21.5030 C.2   420  HEM420      0.0000
      2  CHB        2.7230  -15.0780   17.5690 C.2   420  HEM420      0.0000
      3  CHC       -1.5270  -13.5770   15.7710 C.2   420  HEM420      0.0000
      4  CHD       -3.7240  -14.8740   19.9040 C.2   420  HEM420      0.0000
      5  C1A        1.4460  -16.5170   20.5860 C.ar  420  HEM420      0.0000
      6  C2A        2.8500  -16.8730   20.6840 C.ar  420  HEM420      0.0000
      7  C3A        3.4620  -16.3850   19.5950 C.ar  420  HEM420      0.0000
      8  C4A        2.4740  -15.7090   18.7900 C.ar  420  HEM420      0.0000
      9  CMA        4.9510  -16.5030   19.2500 C.3   420  HEM420      0.0000
     10  CAA        3.4840  -17.6790   21.8390 C.3   420  HEM420      0.0000
     11  CBA        4.1410  -16.7530   22.8520 C.3   420  HEM420      0.0000
     12  CGA        4.8870  -17.5660   23.8950 C.2   420  HEM420      0.0000
     13  O1A        5.4190  -16.9470   24.8400 O.co2 420  HEM420      0.0000
     14  O2A        4.9930  -18.8110   23.7950 O.co2 420  HEM420      0.0000
     15  C1B        1.7760  -14.5160   16.7420 C.2   420  HEM420      0.0000
     16  C2B        2.0190  -13.9530   15.4370 C.2   420  HEM420      0.0000
     17  C3B        0.8410  -13.5400   14.9390 C.2   420  HEM420      0.0000
     18  C4B       -0.1800  -13.8120   15.9270 C.2   420  HEM420      0.0000
     19  CMB        3.4180  -13.8940   14.7870 C.3   420  HEM420      0.0000
     20  CAB        0.5160  -12.8440   13.6050 C.2   420  HEM420      0.0000
     21  CBB        1.3540  -12.7540   12.5600 C.2   420  HEM420      0.0000
     22  C1C       -2.5100  -13.8440   16.7190 C.ar  420  HEM420      0.0000
     23  C2C       -3.9370  -13.5950   16.5740 C.ar  420  HEM420      0.0000
     24  C3C       -4.5340  -13.9320   17.7420 C.ar  420  HEM420      0.0000
     25  C4C       -3.5050  -14.4120   18.6230 C.ar  420  HEM420      0.0000
     26  CMC       -4.6050  -13.0560   15.2810 C.3   420  HEM420      0.0000
     27  CAC       -6.0250  -13.8830   18.1590 C.2   420  HEM420      0.0000
     28  CBC       -7.0360  -13.9000   17.2910 C.2   420  HEM420      0.0000
     29  C1D       -2.8020  -15.4800   20.7080 C.2   420  HEM420      0.0000
     30  C2D       -3.0710  -15.9500   22.0480 C.2   420  HEM420      0.0000
     31  C3D       -1.7700  -16.5560   22.5380 C.2   420  HEM420      0.0000
     32  C4D       -0.8350  -16.4070   21.4510 C.2   420  HEM420      0.0000
     33  CMD       -4.4130  -15.8660   22.8220 C.3   420  HEM420      0.0000
     34  CAD       -1.4780  -17.2050   23.9070 C.3   420  HEM420      0.0000
     35  CBD       -1.4680  -18.7230   23.7300 C.3   420  HEM420      0.0000
     36  CGD       -1.1530  -19.3930   25.0580 C.2   420  HEM420      0.0000
     37  O1D       -1.6310  -20.5330   25.2660 O.co2 420  HEM420      0.0000
     38  O2D       -0.4470  -18.7940   25.8910 O.co2 420  HEM420      0.0000
     39  NA         1.2420  -15.8290   19.4090 N.ar  420  HEM420      0.0000
     40  NB         0.4300  -14.4260   16.9980 N.2   420  HEM420      0.0000
     41  NC        -2.2800  -14.3570   17.9690 N.ar  420  HEM420      0.0000
     42  ND        -1.4810  -15.7860   20.3860 N.2   420  HEM420      0.0000
     43 FE         -0.5150  -15.1690   18.6610 Fe    420  HEM420      0.0000
@<TRIPOS>BOND
     1    21    20    2
     2    20    17    1
     3    19    16    1
     4    17    16    2
     5    17    18    1
     6    26    23    1
     7    16    15    1
     8     3    18    2
     9     3    22    1
    10    18    40    1
    11    23    22   ar
    12    23    24   ar
    13    22    41   ar
    14    15    40    2
    15    15     2    1
    16    40    43    1
    17    28    27    2
    18     2     8    2
    19    24    27    1
    20    24    25   ar
    21    41    25   ar
    22    41    43    1
    23    25     4    1
    24    43    39    1
    25    43    42    1
    26     8    39   ar
    27     8     7   ar
    28     9     7    1
    29    39     5   ar
    30     7     6   ar
    31     4    29    2
    32    42    29    1
    33    42    32    2
    34     5     6   ar
    35     5     1    2
    36     6    10    1
    37    29    30    1
    38    32     1    1
    39    32    31    1
    40    10    11    1
    41    30    31    2
    42    30    33    1
    43    31    34    1
    44    11    12    1
    45    35    34    1
    46    35    36    1
    47    14    12   ar
    48    12    13   ar
    49    36    37   ar
    50    36    38   ar
