@<TRIPOS>MOLECULE
3p6x_C3Q_A_1.pdb
 14 16 0 0 0
SMALL
GASTEIGER

@<TRIPOS>ATOM
      1  C1         2.6560  -12.9550   23.7750 C.3   440  C3Q440      0.0000
      2  C2         3.4630  -12.2830   22.6700 C.3   440  C3Q440      0.0000
      3  C3         2.6610  -12.3070   21.3750 C.3   440  C3Q440      0.0000
      4  C4         3.7260  -10.8340   23.0610 C.3   440  C3Q440      0.0000
      5  C5         1.3350  -12.2260   23.9820 C.3   440  C3Q440      0.0000
      6  C6         0.5470  -12.2610   22.6800 C.3   440  C3Q440      0.0000
      7  C7         1.6110  -10.7720   24.3530 C.3   440  C3Q440      0.0000
      8  C8         1.3380  -11.5750   21.5700 C.3   440  C3Q440      0.0000
      9  C9         2.4140  -10.0830   23.2520 C.3   440  C3Q440      0.0004
     10  C10        1.6120  -10.1270   21.9590 C.3   440  C3Q440      0.0000
     11  C23        3.3050   -7.3210   25.6560 C.2   440  C3Q440      0.2074
     12  O3         2.8920   -7.4260   26.8010 O.2   440  C3Q440     -0.2883
     13  C32        3.6300   -8.5550   24.8450 C.3   440  C3Q440      0.0722
     14  C33        2.6830   -8.6360   23.6460 C.3   440  C3Q440      0.0082
@<TRIPOS>BOND
     1     3     8    1
     2     3     2    1
     3     8    10    1
     4     8     6    1
     5    10     9    1
     6     2     4    1
     7     2     1    1
     8     6     5    1
     9     4     9    1
    10     9    14    1
    11     9     7    1
    12    14    13    1
    13     1     5    1
    14     5     7    1
    15    13    11    1
    16    11    12    2
