@<TRIPOS>MOLECULE
3p6y_NUC_Q_1.pdb
 32 34 0 0 0
SMALL
GASTEIGER

@<TRIPOS>ATOM
      1  O5'       25.2810   24.0540    1.7990 O.3     1  RU1        -0.2176
      2  C5'       26.6640   23.8270    2.0600 C.3     1  RU1         0.2141
      3  C4'       27.4190   23.3820    0.8160 C.3     1  RU1         0.1802
      4  O4'       26.6280   22.4360    0.0510 O.3     1  RU1        -0.3319
      5  C3'       27.7550   24.4860   -0.1810 C.3     1  RU1         0.1903
      6  O3'       28.9260   25.2030    0.2230 O.3     1  RU1        -0.2674
      7  C2'       27.9710   23.6890   -1.4660 C.3     1  RU1         0.2293
      8  O2'       29.2730   23.1450   -1.5590 O.3     1  RU1        -0.2158
      9  C1'       26.9390   22.5650   -1.3280 C.3     1  RU1         0.2400
     10  N1        25.6750   22.7650   -2.1530 N.am    1  RU1        -0.1766
     11  C2        25.4730   21.9750   -3.2770 C.1     1  RU1         0.2845
     12  O2        26.2540   21.1160   -3.6500 O.2     1  RU1        -0.1918
     13  N3        24.3060   22.2270   -3.9640 N.2     1  RU1        -0.2452
     14  C4        23.3350   23.1680   -3.6560 C.1     1  RU1         0.2182
     15  O4        22.3420   23.2750   -4.3720 O.2     1  RU1        -0.2085
     16  C5        23.6090   23.9560   -2.4770 C.2     1  RU1         0.1242
     17  C6        24.7400   23.7290   -1.7890 C.2     1  RU1         0.0929
     18  P         28.8760   26.7710    0.5810 P.3     2  RG2         0.5327
     19  OP1       29.8600   27.0270    1.6590 O.3     2  RG2        -0.1145
     20  OP2       27.4640   27.1790    0.7820 O.3     2  RG2        -0.1145
     21  O5'       29.3980   27.4400   -0.7760 O.2     2  RG2        -0.2224
     22  N9        29.0900   27.9330   -4.6790 N.2     2  RG2        -0.1802
     23  C8        28.2400   28.2290   -3.6380 C.3     2  RG2         0.2633
     24  N7        27.0100   28.4580   -4.0140 N.2     2  RG2        -0.2212
     25  C5        27.0450   28.3070   -5.3950 C.2     2  RG2         0.2482
     26  C6        26.0090   28.4370   -6.3570 C.1     2  RG2         0.2442
     27  O6        24.8160   28.7160   -6.1650 O.2     2  RG2        -0.2063
     28  N1        26.4650   28.1950   -7.6570 N.2     2  RG2        -0.2474
     29  C2        27.7650   27.8750   -7.9850 C.1     2  RG2         0.2608
     30  N2        28.0170   27.6820   -9.2880 N.pl3   2  RG2        -0.0220
     31  N3        28.7460   27.7530   -7.0930 N.2     2  RG2        -0.2682
     32  C4        28.3180   27.9810   -5.8210 C.1     2  RG2         0.1289
@<TRIPOS>BOND
     1    30    29    1
     2    29    28    2
     3    29    31    2
     4    28    26    2
     5    31    32    2
     6    26    27    2
     7    26    25    1
     8    32    25    1
     9    32    22    2
    10    25    24    2
    11    22    23    1
    12    15    14    2
    13    24    23    1
    14    13    14    2
    15    13    11    2
    16    14    16    1
    17    12    11    2
    18    11    10   am
    19    16    17    2
    20    10    17    1
    21    10     9    1
    22     8     7    1
    23     7     9    1
    24     7     5    1
    25     9     4    1
    26    21    18    2
    27     5     6    1
    28     5     3    1
    29     4     3    1
    30     6    18    1
    31    18    20    1
    32    18    19    1
    33     3     2    1
    34     1     2    1
