@<TRIPOS>MOLECULE
3p6z_0G6_B_1.pdb
 30 31 0 0 0
SMALL
GASTEIGER

@<TRIPOS>ATOM
      1  N         37.6220   39.6620  -14.2930 N.3   707  0G6707     -0.1228
      2  CA        37.6950   38.4450  -13.3840 C.3   707  0G6707      0.1721
      3  C         36.3830   37.6740  -13.5550 C.2   707  0G6707      0.2437
      4  O         35.9420   37.4820  -14.7150 O.2   707  0G6707     -0.2733
      5  CB        38.8630   37.5270  -13.7280 C.3   707  0G6707      0.0547
      6  CG        38.9980   36.3160  -12.7940 C.ar  707  0G6707     -0.0202
      7  CD1       38.6720   35.0050  -13.2190 C.ar  707  0G6707     -0.0042
      8  CD2       39.4210   36.4860  -11.4700 C.ar  707  0G6707     -0.0042
      9  CE1       38.7750   33.8700  -12.3510 C.ar  707  0G6707     -0.0003
     10  CE2       39.5180   35.4040  -10.5770 C.ar  707  0G6707     -0.0003
     11  CZ        39.1940   34.0810  -10.9940 C.ar  707  0G6707     -0.0000
     12  N1        35.7200   37.3140  -12.4330 N.am  707  0G6707     -0.2718
     13  CA1       34.3880   36.6770  -12.4500 C.3   707  0G6707      0.1535
     14  C1        33.4040   37.5780  -13.1630 C.2   707  0G6707      0.2598
     15  O1        33.4020   38.8040  -13.0010 O.2   707  0G6707     -0.2715
     16  CB1       34.0160   36.5450  -10.9480 C.3   707  0G6707      0.0310
     17  CG1       35.3920   36.5770  -10.2220 C.3   707  0G6707      0.0237
     18  CD        36.1530   37.6000  -11.0350 C.3   707  0G6707      0.0939
     19  N2        32.4710   36.9280  -14.1410 N.am  707  0G6707     -0.1983
     20  CA2       31.4230   37.7800  -14.7160 C.3   707  0G6707      0.1524
     21  C2        30.0780   37.6980  -13.9860 C.2   707  0G6707      0.1707
     22  O2        29.0710   38.2520  -14.4270 O.2   707  0G6707     -0.2943
     23  CB2       31.5230   37.4650  -16.1950 C.3   707  0G6707      0.0329
     24  CG2       32.7010   38.2120  -16.8230 C.3   707  0G6707      0.0491
     25  CD3       32.6780   37.8920  -18.3290 C.3   707  0G6707      0.2205
     26  NE        33.7540   38.6280  -19.0170 N.pl3 707  0G6707     -0.0865
     27  CZ1       34.0790   38.4520  -20.3080 C.cat 707  0G6707      0.5346
     28  NH1       33.6090   37.4900  -21.0500 N.pl3 707  0G6707      0.1354
     29  NH2       34.9510   39.3390  -20.8680 N.pl3 707  0G6707      0.1354
     30  C3        30.0210   37.1800  -12.5590 C.3   707  0G6707      0.0741
@<TRIPOS>BOND
     1    28    27    1
     2    29    27    1
     3    27    26    2
     4    26    25    1
     5    25    24    1
     6    24    23    1
     7    23    20    1
     8    20    19    1
     9    20    21    1
    10     4     3    2
    11    22    21    2
    12     1     2    1
    13    19    14   am
    14    21    30    1
    15     5     2    1
    16     5     6    1
    17     3     2    1
    18     3    12   am
    19     7     6   ar
    20     7     9   ar
    21    14    15    2
    22    14    13    1
    23     6     8   ar
    24    13    12    1
    25    13    16    1
    26    12    18    1
    27     9    11   ar
    28     8    10   ar
    29    18    17    1
    30    11    10   ar
    31    16    17    1
