@<TRIPOS>MOLECULE
3p70_BGC_F_1.pdb
 12 12 0 0 0
SMALL
GASTEIGER

@<TRIPOS>ATOM
      1  C2        51.6330   19.5890   48.8660 C.3   4203  BGC4203     0.2434
      2  C3        50.6750   18.5840   48.2720 C.3   4203  BGC4203     0.2199
      3  C4        51.5330   18.1680   47.0440 C.3   4203  BGC4203     0.2144
      4  C5        52.9220   17.6060   47.4610 C.3   4203  BGC4203     0.1836
      5  C6        53.9130   17.7860   46.2850 C.3   4203  BGC4203     0.2142
      6  C1        52.5760   18.7220   49.6740 C.3   4203  BGC4203     0.3024
      7  O1        53.2180   19.5140   50.6840 O.3   4203  BGC4203    -0.1869
      8  O2        51.0390   20.6750   49.5850 O.3   4203  BGC4203    -0.2148
      9  O3        49.3890   19.2120   48.0780 O.3   4203  BGC4203    -0.2174
     10  O4        50.9410   17.2480   46.1000 O.3   4203  BGC4203    -0.2176
     11  O5        53.4780   18.1290   48.7130 O.3   4203  BGC4203    -0.3236
     12  O6        54.9790   16.8060   46.2670 O.3   4203  BGC4203    -0.2176
@<TRIPOS>BOND
     1    10     3    1
     2    12     5    1
     3     5     4    1
     4     3     4    1
     5     3     2    1
     6     4    11    1
     7     9     2    1
     8     2     1    1
     9    11     6    1
    10     1     8    1
    11     1     6    1
    12     6     7    1
