@<TRIPOS>MOLECULE
3p70_III_N_1.pdb
 42 44 0 0 0
SMALL
GASTEIGER

@<TRIPOS>ATOM
      1  N         33.1740   38.4820   51.2290 N.3   667  ILE667     -0.1231
      2  CA        32.7140   37.1670   51.8110 C.3   667  ILE667      0.1692
      3  C         31.7900   37.2910   53.0780 C.2   667  ILE667      0.2592
      4  O         31.9320   38.2030   53.8860 O.2   667  ILE667     -0.2718
      5  CB        33.9380   36.2290   52.0390 C.3   667  ILE667      0.0266
      6  CG1       34.3330   35.5590   50.7040 C.3   667  ILE667      0.0019
      7  CG2       33.6800   35.2160   53.1430 C.3   667  ILE667      0.0020
      8  CD1       35.8800   35.5890   50.3630 C.3   667  ILE667      0.0001
      9  N         30.8570   36.3550   53.2250 N.am  668  PHE668     -0.1962
     10  CA        29.6830   36.5350   54.0790 C.3   668  PHE668      0.1771
     11  C         29.7000   35.7470   55.4050 C.2   668  PHE668      0.2619
     12  O         29.6290   34.5400   55.3840 O.2   668  PHE668     -0.2715
     13  CB        28.4130   36.1840   53.2680 C.3   668  PHE668      0.0574
     14  CG        27.9910   37.2510   52.2630 C.ar  668  PHE668     -0.0200
     15  CD1       27.1620   38.3030   52.6460 C.ar  668  PHE668     -0.0042
     16  CD2       28.3850   37.1770   50.9330 C.ar  668  PHE668     -0.0042
     17  CE1       26.7560   39.2790   51.7420 C.ar  668  PHE668     -0.0003
     18  CE2       27.9890   38.1620   50.0130 C.ar  668  PHE668     -0.0003
     19  CZ        27.1600   39.2180   50.4230 C.ar  668  PHE668     -0.0000
     20  N         29.7780   36.4300   56.5520 N.am  669  GLU669     -0.1964
     21  CA        29.6670   35.7550   57.8720 C.3   669  GLU669      0.1718
     22  C         28.4810   34.7520   57.9650 C.2   669  GLU669      0.2458
     23  O         27.3490   35.0620   57.5610 O.2   669  GLU669     -0.2730
     24  CB        29.6140   36.7840   59.0100 C.3   669  GLU669      0.0428
     25  CG        29.5640   36.2270   60.4510 C.3   669  GLU669      0.1163
     26  CD        29.4340   37.3510   61.4870 C.2   669  GLU669      0.3649
     27  OE1       28.4480   37.3810   62.2500 O.co2 669  GLU669     -0.2457
     28  OE2       30.3020   38.2470   61.5230 O.co2 669  GLU669     -0.2457
     29  N         28.7430   33.5540   58.5010 N.am  670  PRO670     -0.2716
     30  CA        27.7480   32.4740   58.5390 C.3   670  PRO670      0.1521
     31  C         26.8420   32.4410   59.7910 C.2   670  PRO670      0.2440
     32  O         27.2420   32.9110   60.8700 O.2   670  PRO670     -0.2731
     33  CB        28.6190   31.2280   58.4780 C.3   670  PRO670      0.0310
     34  CG        29.8140   31.6440   59.3020 C.3   670  PRO670      0.0237
     35  CD        30.0710   33.0810   58.9270 C.3   670  PRO670      0.0939
     36  N         25.6260   31.8670   59.6440 N.am  671  PRO671     -0.2727
     37  CA        24.6480   31.8450   60.7660 C.3   671  PRO671      0.1402
     38  C         25.0660   30.9110   61.9400 C.2   671  PRO671      0.2269
     39  O         25.4080   31.3770   63.0400 O.2   671  PRO671     -0.2865
     40  CB        23.3220   31.3790   60.0980 C.3   671  PRO671      0.0296
     41  CG        23.6840   30.8820   58.7110 C.3   671  PRO671      0.0237
     42  CD        25.1720   31.0660   58.4830 C.3   671  PRO671      0.0939
@<TRIPOS>BOND
     1    18    19   ar
     2    18    16   ar
     3     8     6    1
     4    19    17   ar
     5     6     5    1
     6    16    14   ar
     7     1     2    1
     8    17    15   ar
     9     2     5    1
    10     2     3    1
    11     5     7    1
    12    14    15   ar
    13    14    13    1
    14     3     9   am
    15     3     4    2
    16     9    10    1
    17    13    10    1
    18    10    11    1
    19    12    11    2
    20    11    20   am
    21    20    21    1
    22    23    22    2
    23    21    22    1
    24    21    24    1
    25    22    29   am
    26    33    30    1
    27    33    34    1
    28    42    41    1
    29    42    36    1
    30    29    30    1
    31    29    35    1
    32    30    31    1
    33    41    40    1
    34    35    34    1
    35    24    25    1
    36    36    31   am
    37    36    37    1
    38    31    32    2
    39    40    37    1
    40    25    26    1
    41    37    38    1
    42    26    28   ar
    43    26    27   ar
    44    38    39    2
