@<TRIPOS>MOLECULE
3p71_AN6_C_1.pdb
 28 30 0 0 0
SMALL
GASTEIGER

@<TRIPOS>ATOM
      1  C'       -11.5950    8.1490   -9.8350 C.2   310  AN6310      0.3819
      2  N'       -11.3110    5.7380   -9.4690 N.3   310  AN6310     -0.1208
      3  O'       -12.2440    7.8330  -10.8520 O.co2 310  AN6310     -0.2441
      4  C1        -7.1900    8.0070  -12.9130 C.3   310  AN6310      0.0188
      5  N1        -2.6690   -0.2210   -6.4680 N.2   310  AN6310      0.0021
      6  C2        -3.4630    0.6670   -5.8450 C.3   310  AN6310      0.5254
      7  C3        -6.9900    8.4820  -11.4860 C.3   310  AN6310      0.0722
      8  N3        -3.9340    1.7440   -6.4920 N.2   310  AN6310     -0.0055
      9  C4        -3.6150    1.9570   -7.7970 C.2   310  AN6310      0.3518
     10  C5        -2.7990    1.0490   -8.4590 C.2   310  AN6310      0.2526
     11  C6        -2.3220   -0.0560   -7.7710 C.2   310  AN6310      0.4393
     12  N6        -1.5210   -0.9510   -8.3920 N.pl3 310  AN6310      0.2180
     13  N7        -2.6410    1.4920   -9.7210 N.2   310  AN6310     -0.2095
     14  C8        -3.3450    2.6420   -9.8460 C.3   310  AN6310      0.3377
     15  N9        -3.9350    2.9230   -8.6710 N.pl3 310  AN6310     -0.1439
     16  C1'       -4.7880    4.1000   -8.3770 C.3   310  AN6310      0.3186
     17  N10       -7.3720    7.4760  -10.4700 N.3   310  AN6310     -0.2705
     18  C2'       -4.0040    5.4020   -8.4400 C.3   310  AN6310      0.2569
     19  O2'       -3.2130    5.6170   -7.2670 O.3   310  AN6310     -0.2130
     20  C3'       -5.1050    6.4340   -8.6050 C.3   310  AN6310      0.2173
     21  O3'       -5.5750    6.8820   -7.3300 O.3   310  AN6310     -0.2175
     22  C4'       -6.2380    5.6610   -9.2580 C.3   310  AN6310      0.1682
     23  O4'       -5.8150    4.2930   -9.3460 O.3   310  AN6310     -0.3147
     24  C5'       -6.5940    6.2300  -10.6270 C.3   310  AN6310      0.1049
     25  O5'      -11.4880    9.3330   -9.4410 O.co2 310  AN6310     -0.2441
     26  CA'      -10.9100    7.0700   -9.0420 C.3   310  AN6310      0.1957
     27  CB'       -9.3890    7.2320   -9.1080 C.3   310  AN6310      0.0479
     28  CG'       -8.8250    7.2280  -10.5220 C.3   310  AN6310      0.0742
@<TRIPOS>BOND
     1     4     7    1
     2     7    17    1
     3     3     1   ar
     4    24    17    1
     5    24    22    1
     6    28    17    1
     7    28    27    1
     8    14    13    1
     9    14    15    1
    10     1    25   ar
    11     1    26    1
    12    13    10    2
    13     2    26    1
    14    23    22    1
    15    23    16    1
    16    22    20    1
    17    27    26    1
    18    15    16    1
    19    15     9    1
    20    20    18    1
    21    20    21    1
    22    10     9    1
    23    10    11    1
    24    18    16    1
    25    18    19    1
    26    12    11    1
    27     9     8    2
    28    11     5    2
    29     8     6    1
    30     5     6    1
