@<TRIPOS>MOLECULE
3p74_FMN_A_1.pdb
 31 33 0 0 0
SMALL
GASTEIGER

@<TRIPOS>ATOM
      1  N1        -7.3300   -7.5100   20.1990 N.2   401  FMN401     -0.2887
      2  C2        -8.0700   -6.4320   20.5280 C.1   401  FMN401      0.3669
      3  O2        -9.0490   -6.0720   19.8320 O.2   401  FMN401     -0.1744
      4  N3        -7.7520   -5.6880   21.6280 N.2   401  FMN401     -0.2300
      5  C4        -6.7350   -6.0180   22.4740 C.1   401  FMN401      0.2513
      6  O4        -6.4480   -5.2280   23.4230 O.2   401  FMN401     -0.2057
      7  C4A       -6.0010   -7.1820   22.1830 C.2   401  FMN401      0.2706
      8  N5        -4.9690   -7.6050   23.0010 N.2   401  FMN401     -0.3841
      9  C5A       -4.1590   -8.6210   22.5770 C.2   401  FMN401      0.1452
     10  C6        -3.0430   -8.9560   23.3460 C.2   401  FMN401      0.0252
     11  C7        -2.1420   -9.9360   22.9510 C.2   401  FMN401     -0.0375
     12  C7M       -0.9460  -10.2380   23.8320 C.3   401  FMN401      0.0268
     13  C8        -2.3620  -10.5990   21.7440 C.3   401  FMN401      0.0417
     14  C8M       -1.3860  -11.6210   21.2160 C.3   401  FMN401      0.0091
     15  C9        -3.4740  -10.2650   20.9660 C.2   401  FMN401     -0.0049
     16  C9A       -4.3920   -9.2570   21.3540 C.2   401  FMN401      0.0795
     17  N10       -5.4970   -8.9190   20.5980 N.pl3 401  FMN401     -0.2545
     18  C10       -6.2870   -7.8780   20.9960 C.2   401  FMN401      0.2449
     19  C1'       -5.5920   -9.3640   19.1690 C.3   401  FMN401      0.1336
     20  C2'       -4.6240   -8.5730   18.2710 C.3   401  FMN401      0.2048
     21  O2'       -5.1060   -7.2350   18.0750 O.3   401  FMN401     -0.2185
     22  C3'       -4.4410   -9.1420   16.8610 C.3   401  FMN401      0.2165
     23  O3'       -5.7170   -9.2030   16.2090 O.3   401  FMN401     -0.2175
     24  C4'       -3.7520  -10.4760   16.7620 C.3   401  FMN401      0.2147
     25  O4'       -2.6190  -10.4380   17.6280 O.3   401  FMN401     -0.2176
     26  C5'       -3.3320  -10.6460   15.2940 C.3   401  FMN401      0.1892
     27  O5'       -2.6870  -11.8740   15.0830 O.3   401  FMN401     -0.2674
     28  P         -1.0950  -11.9070   15.0300 P.3   401  FMN401      0.5327
     29  O1P       -0.5840  -11.6910   16.4430 O.3   401  FMN401     -0.1145
     30  O2P       -0.8760  -13.3240   14.5360 O.3   401  FMN401     -0.1145
     31  O3P       -0.6420  -10.8120   14.0670 O.2   401  FMN401     -0.2224
@<TRIPOS>BOND
     1    31    28    2
     2    30    28    1
     3    28    27    1
     4    28    29    1
     5    27    26    1
     6    26    24    1
     7    23    22    1
     8    24    22    1
     9    24    25    1
    10    22    20    1
    11    21    20    1
    12    20    19    1
    13    19    17    1
    14     3     2    2
    15     1     2    2
    16     1    18    2
    17     2     4    2
    18    17    18    1
    19    17    16    1
    20    15    16    2
    21    15    13    1
    22    18     7    1
    23    14    13    1
    24    16     9    1
    25     4     5    2
    26    13    11    1
    27     7     5    1
    28     7     8    2
    29     5     6    2
    30     9     8    2
    31     9    10    1
    32    11    10    2
    33    11    12    1
