@<TRIPOS>MOLECULE
3p75_THP_A_1.pdb
 25 26 0 0 0
SMALL
GASTEIGER

@<TRIPOS>ATOM
      1  P2        18.3190    9.6110    4.4530 P.3   142  THP142      0.5327
      2  O4P       18.3500   10.8160    5.2960 O.3   142  THP142     -0.1145
      3  O5P       17.6910    8.3440    5.2190 O.3   142  THP142     -0.1145
      4  O6P       19.8330    9.2290    4.0370 O.2   142  THP142     -0.2224
      5  P1        20.8600   13.2950    0.0110 P.3   142  THP142      0.5326
      6  O1P       20.1580   14.5300   -0.3510 O.3   142  THP142     -0.1145
      7  O2P       21.2460   13.3020    1.5640 O.3   142  THP142     -0.1145
      8  O3P       22.1830   13.1220   -0.9040 O.2   142  THP142     -0.2224
      9  O5'       17.4470    9.9600    3.1430 O.3   142  THP142     -0.2675
     10  C5'       17.8170   11.1890    2.5350 C.3   142  THP142      0.1857
     11  C4'       18.4940   10.8460    1.2010 C.3   142  THP142      0.1748
     12  O4'       17.7420    9.8610    0.4480 O.3   142  THP142     -0.3340
     13  C3'       18.6900   12.0690    0.2750 C.3   142  THP142      0.1600
     14  O3'       20.0010   11.9650   -0.2770 O.3   142  THP142     -0.2700
     15  C2'       17.7190   11.8040   -0.9000 C.3   142  THP142      0.0847
     16  C1'       17.6180   10.2710   -0.9150 C.3   142  THP142      0.2089
     17  N1        16.2750    9.8840   -1.3760 N.am  142  THP142     -0.1794
     18  C2        16.0670    9.7700   -2.6990 C.1   142  THP142      0.2844
     19  O2        17.0050    9.9210   -3.4750 O.2   142  THP142     -0.1918
     20  N3        14.8490    9.4500   -3.1710 N.2   142  THP142     -0.2455
     21  C4        13.8120    9.2410   -2.3080 C.1   142  THP142      0.2134
     22  O4        12.7090    8.9530   -2.7230 O.2   142  THP142     -0.2088
     23  C5        14.0100    9.3620   -0.9150 C.2   142  THP142      0.0891
     24  C5M       12.8350    9.1330    0.0110 C.3   142  THP142      0.0462
     25  C6        15.2450    9.7090   -0.4720 C.2   142  THP142      0.0877
@<TRIPOS>BOND
     1    19    18    2
     2    20    18    2
     3    20    21    2
     4    22    21    2
     5    18    17   am
     6    21    23    1
     7    17    16    1
     8    17    25    1
     9    23    25    2
    10    23    24    1
    11    16    15    1
    12    16    12    1
    13     8     5    2
    14    15    13    1
    15     6     5    1
    16    14     5    1
    17    14    13    1
    18     5     7    1
    19    13    11    1
    20    12    11    1
    21    11    10    1
    22    10     9    1
    23     9     1    1
    24     4     1    2
    25     1     3    1
    26     1     2    1
