@<TRIPOS>MOLECULE
3p76_P76_A_1.pdb
 31 33 0 0 0
SMALL
GASTEIGER

@<TRIPOS>ATOM
      1  N1        -6.3340   20.9290   -3.8250 N.am  273  P76273     -0.1811
      2  C2        -5.0740   21.2430   -3.1830 C.3   273  P76273      0.1717
      3  C3        -5.0700   22.7470   -3.0480 C.2   273  P76273      0.1093
      4  O4        -4.9710   23.5140   -4.0160 O.2   273  P76273     -0.5379
      5  N5        -5.1690   23.1210   -1.7410 N.am  273  P76273     -0.2011
      6  O6        -5.1380   24.5040   -1.6360 O.3   273  P76273     -0.4026
      7  C7        -6.8880   19.6340   -3.7030 C.2   273  P76273      0.3236
      8  O8        -6.3350   18.7090   -3.0520 O.2   273  P76273     -0.2508
      9  N9        -8.1050   19.4590   -4.3600 N.am  273  P76273     -0.2628
     10  C10       -8.8200   20.5060   -5.1040 C.3   273  P76273      0.0953
     11  C11       -9.3190   19.9930   -6.4180 C.3   273  P76273      0.0260
     12  C12      -10.3240   18.8520   -6.1880 C.3   273  P76273      0.0257
     13  C13       -9.5060   17.7230   -5.5370 C.3   273  P76273      0.0260
     14  C14       -8.7660   18.1420   -4.2670 C.3   273  P76273      0.0953
     15  C15      -10.9280   18.3230   -7.4850 C.ar  273  P76273     -0.0224
     16  C16      -11.8010   17.1880   -7.4950 C.ar  273  P76273     -0.0036
     17  C17      -12.3450   16.7190   -8.7170 C.ar  273  P76273      0.0079
     18  C18      -12.0070   17.3920   -9.9230 C.ar  273  P76273      0.0419
     19  C19      -11.1660   18.4940   -9.9340 C.ar  273  P76273      0.0079
     20  C20      -10.6570   18.9400   -8.7270 C.ar  273  P76273     -0.0036
     21  C21      -12.4520   16.9970  -11.1910 C.1   273  P76273     -0.0597
     22  C22      -12.6090   16.6110  -12.2990 C.1   273  P76273     -0.0597
     23  C23      -12.7910   16.1400  -13.6180 C.ar  273  P76273      0.0420
     24  C24      -12.0180   15.0120  -14.0100 C.ar  273  P76273      0.0082
     25  C25      -12.1550   14.4770  -15.3090 C.ar  273  P76273      0.0006
     26  C26      -13.0580   15.0880  -16.2130 C.ar  273  P76273      0.0000
     27  C27      -13.8190   16.2170  -15.8140 C.ar  273  P76273      0.0006
     28  C28      -13.6920   16.7520  -14.5030 C.ar  273  P76273      0.0082
     29  C29       -3.8040   20.6620   -3.8300 C.3   273  P76273      0.1780
     30  C30       -3.6170   21.0070   -5.3020 C.3   273  P76273      0.0378
     31  O31       -2.6750   21.1780   -3.0930 O.3   273  P76273     -0.2209
@<TRIPOS>BOND
     1    26    27   ar
     2    26    25   ar
     3    27    28   ar
     4    25    24   ar
     5    28    23   ar
     6    24    23   ar
     7    23    22    1
     8    22    21    3
     9    21    18    1
    10    19    18   ar
    11    19    20   ar
    12    18    17   ar
    13    20    15   ar
    14    17    16   ar
    15    16    15   ar
    16    15    12    1
    17    11    12    1
    18    11    10    1
    19    12    13    1
    20    13    14    1
    21    30    29    1
    22    10     9    1
    23     9    14    1
    24     9     7   am
    25     4     3    2
    26    29     2    1
    27    29    31    1
    28     1     7   am
    29     1     2    1
    30     7     8    2
    31     2     3    1
    32     3     5   am
    33     5     6    1
