@<TRIPOS>MOLECULE
3p78_P78_A_1.pdb
 33 36 0 0 0
SMALL
GASTEIGER

@<TRIPOS>ATOM
      1  C1        49.0470   27.1760  -18.0870 C.ar  362  P78362      0.0080
      2  O1        52.2530   31.2360  -11.7680 O.2   362  P78362     -0.1729
      3  S1        51.5420   29.7070  -11.8960 S.O2  362  P78362     -0.0066
      4  C2        57.4690   31.3380  -21.9820 C.ar  362  P78362      0.0000
      5  S2        50.1770   28.0740  -19.0220 S.2   362  P78362     -0.0746
      6  C3        51.3360   28.3070  -17.7700 C.ar  362  P78362      0.1084
      7  C4        50.7700   27.6600  -16.6580 C.ar  362  P78362      0.0752
      8  C5        49.5380   27.0380  -16.7920 C.ar  362  P78362      0.0085
      9  C6        47.7520   26.7040  -18.6560 C.3   362  P78362      0.0246
     10  C7        48.0220   25.5780  -19.6320 C.3   362  P78362      0.0049
     11  C8        46.6430   26.4660  -17.6240 C.3   362  P78362      0.0049
     12  C9        47.2290   27.6660  -19.7180 C.3   362  P78362      0.0049
     13  C10       51.6030   27.6510  -15.3950 C.2   362  P78362      0.2509
     14  C11       56.4400   33.8880  -22.4530 C.ar  362  P78362      0.0000
     15  O11       52.8150   27.5820  -15.5510 O.2   362  P78362     -0.2698
     16  C12       57.5950   33.4620  -23.1500 C.ar  362  P78362      0.0000
     17  N12       52.5620   28.9430  -17.8060 N.am  362  P78362     -0.1539
     18  C13       52.8110   29.8740  -18.7630 C.2   362  P78362      0.3482
     19  C14       58.1380   32.1780  -22.9220 C.ar  362  P78362      0.0000
     20  O14       51.8270   30.2130  -19.6360 O.2   362  P78362     -0.2484
     21  N15       53.9930   30.4170  -18.8160 N.am  362  P78362     -0.1607
     22  C16       54.4870   31.3240  -19.6860 C.ar  362  P78362      0.0750
     23  C17       53.9700   32.5990  -19.9270 C.ar  362  P78362      0.0167
     24  C18       54.6220   33.4320  -20.8430 C.ar  362  P78362      0.0013
     25  C19       55.7920   33.0290  -21.5280 C.ar  362  P78362      0.0001
     26  C20       56.3180   31.7600  -21.2880 C.ar  362  P78362      0.0013
     27  C21       55.6520   30.9270  -20.3680 C.ar  362  P78362      0.0166
     28  N26       51.1250   27.6490  -14.1140 N.am  362  P78362     -0.2724
     29  C27       49.9140   28.3480  -13.7060 C.3   362  P78362      0.1190
     30  C28       50.3170   29.7170  -13.1100 C.3   362  P78362      0.1723
     31  C31       52.7460   28.6650  -12.5410 C.3   362  P78362      0.1723
     32  C32       52.1310   27.3610  -13.0730 C.3   362  P78362      0.1190
     33  O33       50.8220   28.7790  -10.6750 O.2   362  P78362     -0.1729
@<TRIPOS>BOND
     1    16    19   ar
     2    16    14   ar
     3    19     4   ar
     4    14    25   ar
     5     4    26   ar
     6    25    26   ar
     7    25    24   ar
     8    26    27   ar
     9    24    23   ar
    10    27    22   ar
    11    23    22   ar
    12    12     9    1
    13    22    21    1
    14    20    18    2
    15    10     9    1
    16     5     1   ar
    17     5     6   ar
    18    21    18   am
    19    18    17   am
    20     9     1    1
    21     9    11    1
    22     1     8   ar
    23    17     6    1
    24     6     7   ar
    25     8     7   ar
    26     7    13    1
    27    15    13    2
    28    13    28   am
    29    28    29    1
    30    28    32    1
    31    29    30    1
    32    30     3    1
    33    32    31    1
    34    31     3    1
    35     3     2    2
    36     3    33    2
