@<TRIPOS>MOLECULE
3p79_P79_A_1.pdb
 34 37 0 0 0
SMALL
GASTEIGER

@<TRIPOS>ATOM
      1  C1        50.0690   28.0860  -18.8210 C.ar  362  P79362      0.0523
      2  C2        48.9430   27.4700  -18.2700 C.ar  362  P79362      0.0807
      3  N3        50.0190   28.3060  -16.6150 N.ar  362  P79362     -0.2268
      4  N4        48.9000   27.6260  -16.9330 N.ar  362  P79362     -0.1721
      5  C5        47.7580   26.7650  -18.9280 C.3   362  P79362      0.0372
      6  C6        50.7440   28.6390  -17.7310 C.ar  362  P79362      0.1548
      7  C7        50.3350   28.7380  -15.2270 C.3   362  P79362      0.2134
      8  C8        51.4980   28.0270  -14.6290 C.2   362  P79362      0.2507
      9  N9        51.5530   27.8910  -13.2960 N.am  362  P79362     -0.2743
     10  O10       52.3420   27.5490  -15.3620 O.2   362  P79362     -0.2727
     11  C11       52.4240   30.0970  -18.6410 C.2   362  P79362      0.3491
     12  N12       53.6810   30.4520  -18.7150 N.am  362  P79362     -0.1606
     13  O13       51.6030   30.5120  -19.5990 O.2   362  P79362     -0.2484
     14  C14       54.2170   31.3570  -19.5510 C.ar  362  P79362      0.0750
     15  C15       53.7150   32.6250  -19.7900 C.ar  362  P79362      0.0167
     16  C16       54.3800   33.5140  -20.6580 C.ar  362  P79362      0.0013
     17  C17       55.5260   33.0520  -21.3230 C.ar  362  P79362      0.0001
     18  C18       56.0160   31.7700  -21.1020 C.ar  362  P79362      0.0013
     19  C19       55.3920   30.9050  -20.1820 C.ar  362  P79362      0.0166
     20  N20       51.9560   29.3400  -17.6190 N.am  362  P79362     -0.1421
     21  C21       46.6790   26.5090  -17.8650 C.3   362  P79362      0.0060
     22  C22       48.1170   25.5840  -19.8090 C.3   362  P79362      0.0060
     23  C23       47.0930   27.7550  -19.8480 C.3   362  P79362      0.0060
     24  C24       56.1760   33.9380  -22.2210 C.ar  362  P79362      0.0000
     25  C25       57.3460   33.4790  -22.8740 C.ar  362  P79362      0.0000
     26  C26       57.8590   32.1780  -22.6400 C.ar  362  P79362      0.0000
     27  C27       57.2010   31.3110  -21.7170 C.ar  362  P79362      0.0000
     28  C28       50.5720   28.5020  -12.4090 C.3   362  P79362      0.1188
     29  C29       51.2870   29.4620  -11.4450 C.3   362  P79362      0.1723
     30  S30       52.5080   28.6220  -10.6030 S.O2  362  P79362     -0.0066
     31  C31       53.4400   27.8550  -11.8260 C.3   362  P79362      0.1723
     32  C32       52.4840   26.9810  -12.6420 C.3   362  P79362      0.1188
     33  O33       51.8230   27.3800   -9.7600 O.2   362  P79362     -0.1729
     34  O34       53.4810   29.8180   -9.9210 O.2   362  P79362     -0.1729
@<TRIPOS>BOND
     1    25    26   ar
     2    25    24   ar
     3    26    27   ar
     4    24    17   ar
     5    27    18   ar
     6    17    18   ar
     7    17    16   ar
     8    18    19   ar
     9    16    15   ar
    10    19    14   ar
    11    23     5    1
    12    22     5    1
    13    15    14   ar
    14    13    11    2
    15    14    12    1
    16     5     2    1
    17     5    21    1
    18     1     2   ar
    19     1     6   ar
    20    12    11   am
    21    11    20   am
    22     2     4   ar
    23     6    20    1
    24     6     3   ar
    25     4     3   ar
    26     3     7    1
    27    10     8    2
    28     7     8    1
    29     8     9   am
    30     9    32    1
    31     9    28    1
    32    32    31    1
    33    28    29    1
    34    31    30    1
    35    29    30    1
    36    30    34    2
    37    30    33    2
