@<TRIPOS>MOLECULE
3p7a_P7A_A_1.pdb
 31 34 0 0 0
SMALL
GASTEIGER

@<TRIPOS>ATOM
      1  C1        49.8250   32.3110  -18.5770 C.2   362  P7A362      0.3478
      2  N1        49.0100   30.6660  -14.7290 N.pl3 362  P7A362     -0.2980
      3  O1        48.7580   32.7890  -19.2330 O.2   362  P7A362     -0.2484
      4  S1        46.8990   29.3180  -15.7710 S.2   362  P7A362     -0.0754
      5  C2        48.3450   30.2940  -15.8630 C.ar  362  P7A362      0.0936
      6  N2        51.0180   32.7540  -18.8530 N.am  362  P7A362     -0.1607
      7  O2        48.5720   33.2730  -10.8530 O.2   362  P7A362     -0.1729
      8  S2        49.1800   32.0330  -11.8770 S.O2  362  P7A362     -0.0066
      9  C3        51.4410   33.8510  -19.5510 C.ar  362  P7A362      0.0749
     10  O3        50.6130   31.3780  -11.2410 O.2   362  P7A362     -0.1729
     11  C4        52.6230   33.8500  -20.3240 C.ar  362  P7A362      0.0154
     12  C5        53.0160   35.0150  -21.0130 C.ar  362  P7A362      0.0013
     13  C6        52.2270   36.1760  -20.9300 C.ar  362  P7A362      0.0001
     14  C7        51.0560   36.1940  -20.1700 C.ar  362  P7A362      0.0013
     15  C8        50.6810   35.0360  -19.4830 C.ar  362  P7A362      0.0166
     16  N9        49.6880   31.3440  -17.6290 N.am  362  P7A362     -0.1589
     17  C10       48.6250   30.5960  -17.2190 C.ar  362  P7A362      0.0946
     18  C13       46.6690   29.2810  -17.4950 C.ar  362  P7A362      0.0091
     19  C14       47.6950   30.0300  -18.0950 C.ar  362  P7A362      0.0206
     20  C16       45.5570   28.5690  -18.2630 C.3   362  P7A362      0.0246
     21  C17       45.1510   29.3700  -19.5000 C.3   362  P7A362      0.0049
     22  C18       44.2420   28.3220  -17.5260 C.3   362  P7A362      0.0049
     23  C19       46.1080   27.2180  -18.7410 C.3   362  P7A362      0.0049
     24  C20       49.6740   31.9730  -14.6440 C.3   362  P7A362      0.1166
     25  C21       49.2840   32.8120  -13.4120 C.3   362  P7A362      0.1722
     26  C23       48.1970   30.7010  -12.3140 C.3   362  P7A362      0.1722
     27  C24       48.7970   29.8910  -13.4830 C.3   362  P7A362      0.1166
     28  C31       53.4520   32.7310  -20.4610 C.ar  362  P7A362      0.0013
     29  C32       54.6180   32.7760  -21.2390 C.ar  362  P7A362      0.0000
     30  C33       54.9830   33.9460  -21.9180 C.ar  362  P7A362      0.0000
     31  C34       54.1730   35.0800  -21.7990 C.ar  362  P7A362      0.0000
@<TRIPOS>BOND
     1    30    31   ar
     2    30    29   ar
     3    31    12   ar
     4    29    28   ar
     5    12    13   ar
     6    12    11   ar
     7    13    14   ar
     8    28    11   ar
     9    11     9   ar
    10    14    15   ar
    11     9    15   ar
    12     9     6    1
    13    21    20    1
    14     3     1    2
    15     6     1   am
    16    23    20    1
    17     1    16   am
    18    20    22    1
    19    20    18    1
    20    19    18   ar
    21    19    17   ar
    22    16    17    1
    23    18     4   ar
    24    17     5   ar
    25     5     4   ar
    26     5     2    1
    27     2    24    1
    28     2    27    1
    29    24    25    1
    30    27    26    1
    31    25     8    1
    32    26     8    1
    33     8    10    2
    34     8     7    2
