@<TRIPOS>MOLECULE
3p7b_P7B_A_1.pdb
 33 36 0 0 0
SMALL
GASTEIGER

@<TRIPOS>ATOM
      1  C1        49.1100   27.2540  -18.1190 C.ar  362  P7B362      0.0080
      2  S2        50.0950   28.2640  -19.0980 S.2   362  P7B362     -0.0746
      3  C3        51.2810   28.5510  -17.8460 C.ar  362  P7B362      0.1084
      4  C4        50.7630   27.9170  -16.6990 C.ar  362  P7B362      0.0752
      5  C5        49.5890   27.1900  -16.8100 C.ar  362  P7B362      0.0085
      6  C6        47.8610   26.6740  -18.7300 C.3   362  P7B362      0.0246
      7  C7        48.2680   25.5020  -19.5860 C.3   362  P7B362      0.0049
      8  C8        46.8060   26.4070  -17.6760 C.3   362  P7B362      0.0049
      9  C9        47.3250   27.6440  -19.7650 C.3   362  P7B362      0.0049
     10  C10       51.5340   28.0180  -15.4340 C.2   362  P7B362      0.2509
     11  O11       52.6450   28.5010  -15.5110 O.2   362  P7B362     -0.2698
     12  N12       52.4090   29.3140  -17.9280 N.am  362  P7B362     -0.1539
     13  C13       52.6360   30.2320  -18.9030 C.2   362  P7B362      0.3482
     14  O14       51.6930   30.5480  -19.7680 O.2   362  P7B362     -0.2484
     15  N15       53.7750   30.8260  -19.0040 N.am  362  P7B362     -0.1607
     16  C16       54.1420   31.8480  -19.8410 C.ar  362  P7B362      0.0749
     17  C17       53.4220   33.0600  -19.6660 C.ar  362  P7B362      0.0166
     18  C18       53.7510   34.1610  -20.4770 C.ar  362  P7B362      0.0013
     19  C19       54.8240   34.0590  -21.3540 C.ar  362  P7B362      0.0001
     20  C20       55.5440   32.8740  -21.5490 C.ar  362  P7B362      0.0013
     21  C21       55.2230   31.7430  -20.7710 C.ar  362  P7B362      0.0154
     22  C22       56.5850   32.8870  -22.5200 C.ar  362  P7B362      0.0000
     23  C23       57.3540   31.7460  -22.7020 C.ar  362  P7B362      0.0000
     24  C24       57.0240   30.6290  -21.9370 C.ar  362  P7B362      0.0000
     25  C25       56.0080   30.5900  -20.9640 C.ar  362  P7B362      0.0013
     26  N26       51.0750   27.6290  -14.2290 N.am  362  P7B362     -0.2728
     27  C27       49.7170   28.1170  -13.9080 C.3   362  P7B362      0.1209
     28  C28       49.0580   27.5390  -12.6520 C.3   362  P7B362      0.1590
     29  N29       49.6540   28.1480  -11.4350 N.2   362  P7B362     -0.2044
     30  C30       50.9380   28.2350  -10.9650 C.1   362  P7B362      0.1278
     31  C31       52.0240   28.4860  -12.0210 C.3   362  P7B362      0.1430
     32  C32       52.0460   27.4110  -13.1220 C.3   362  P7B362      0.1114
     33  O33       51.2080   27.6750   -9.8820 O.2   362  P7B362     -0.2270
@<TRIPOS>BOND
     1    23    22   ar
     2    23    24   ar
     3    22    20   ar
     4    24    25   ar
     5    20    19   ar
     6    20    21   ar
     7    19    18   ar
     8    25    21   ar
     9    21    16   ar
    10    18    17   ar
    11    16    17   ar
    12    16    15    1
    13    14    13    2
    14     9     6    1
    15     7     6    1
    16     2     1   ar
    17     2     3   ar
    18    15    13   am
    19    13    12   am
    20     6     1    1
    21     6     8    1
    22     1     5   ar
    23    12     3    1
    24     3     4   ar
    25     5     4   ar
    26     4    10    1
    27    11    10    2
    28    10    26   am
    29    26    27    1
    30    26    32    1
    31    27    28    1
    32    32    31    1
    33    28    29    1
    34    31    30    1
    35    29    30    2
    36    30    33    2
