@<TRIPOS>MOLECULE
3p7c_P7C_A_1.pdb
 36 38 0 0 0
SMALL
GASTEIGER

@<TRIPOS>ATOM
      1 CL1        55.6660   30.2670  -20.7580 Cl    362  P7C362     -0.0800
      2  N2        47.0200   27.0410  -10.4200 N.3   362  P7C362     -0.2688
      3  S2        49.2380   28.3290  -19.5760 S.2   362  P7C362     -0.0746
      4 CL2        56.6050   32.3440  -22.9080 Cl    362  P7C362     -0.0813
      5  C3        50.3890   28.5680  -18.3160 C.ar  362  P7C362      0.1084
      6  C4        49.9100   27.8150  -17.2040 C.ar  362  P7C362      0.0752
      7  C5        48.7690   27.0690  -17.4310 C.ar  362  P7C362      0.0085
      8  C7        47.3680   25.5500  -20.2110 C.3   362  P7C362      0.0049
      9  C8        45.9980   26.3890  -18.0550 C.3   362  P7C362      0.0049
     10  C10       50.7160   27.7720  -15.9470 C.2   362  P7C362      0.2508
     11  C11       48.2530   27.2430  -18.7070 C.ar  362  P7C362      0.0080
     12  O11       51.9080   27.7550  -16.1450 O.2   362  P7C362     -0.2698
     13  N12       51.4810   29.3740  -18.4030 N.am  362  P7C362     -0.1539
     14  C13       51.7690   30.2490  -19.3940 C.2   362  P7C362      0.3482
     15  C14       46.9650   26.6120  -19.2030 C.3   362  P7C362      0.0246
     16  O14       50.7960   30.5180  -20.2560 O.2   362  P7C362     -0.2484
     17  N15       52.9550   30.8090  -19.5220 N.am  362  P7C362     -0.1598
     18  C16       53.4010   31.7270  -20.4510 C.ar  362  P7C362      0.0863
     19  C17       52.6420   32.8450  -20.8190 C.ar  362  P7C362      0.0176
     20  C19       54.3080   33.6350  -22.3960 C.ar  362  P7C362      0.0123
     21  C20       55.0920   32.5350  -22.0500 C.ar  362  P7C362      0.0695
     22  C22       46.1470   27.5360  -20.1240 C.3   362  P7C362      0.0049
     23  C23       53.0700   33.7920  -21.7540 C.ar  362  P7C362      0.0023
     24  C24       54.6280   31.6180  -21.1020 C.ar  362  P7C362      0.0835
     25  C25       48.9650   28.1130  -14.1700 C.3   362  P7C362      0.1152
     26  C26       50.5890   28.1110  -11.4310 C.2   362  P7C362      0.2275
     27  N26       50.2730   27.6770  -14.6640 N.am  362  P7C362     -0.2738
     28  C28       49.1420   29.1560  -13.0740 C.3   362  P7C362      0.1149
     29  N29       49.3300   28.5550  -11.7440 N.am  362  P7C362     -0.2763
     30  C33       51.6190   27.8880  -12.5560 C.3   362  P7C362      0.1067
     31  O33       50.8160   27.6800  -10.2970 O.2   362  P7C362     -0.2748
     32  C34       51.1740   26.9780  -13.7400 C.3   362  P7C362      0.1033
     33  C35       48.4470   29.1310  -10.7020 C.3   362  P7C362      0.1107
     34  C36       47.0380   28.5420  -10.4850 C.3   362  P7C362      0.0939
     35  C37       47.1980   26.4780   -9.0440 C.3   362  P7C362      0.0897
     36  C38       45.9670   26.3410  -11.2260 C.3   362  P7C362      0.0897
@<TRIPOS>BOND
     1     4    21    1
     2    20    21   ar
     3    20    23   ar
     4    21    24   ar
     5    23    19   ar
     6    24     1    1
     7    24    18   ar
     8    19    18   ar
     9    18    17    1
    10    16    14    2
    11     8    15    1
    12    22    15    1
    13     3    11   ar
    14     3     5   ar
    15    17    14   am
    16    14    13   am
    17    15    11    1
    18    15     9    1
    19    11     7   ar
    20    13     5    1
    21     5     6   ar
    22     7     6   ar
    23     6    10    1
    24    12    10    2
    25    10    27   am
    26    27    25    1
    27    27    32    1
    28    25    28    1
    29    32    30    1
    30    28    29    1
    31    30    26    1
    32    29    26   am
    33    29    33    1
    34    26    31    2
    35    36     2    1
    36    33    34    1
    37    34     2    1
    38     2    35    1
