@<TRIPOS>MOLECULE
3p7g_MAN_A_1.pdb
 12 12 0 0 0
SMALL
GASTEIGER

@<TRIPOS>ATOM
      1  C1        -8.2770   29.5430  -34.5540 C.3   339  MAN339      0.3024
      2  C2        -7.0370   28.9660  -33.8360 C.3   339  MAN339      0.2434
      3  C3        -6.0000   30.0510  -33.7500 C.3   339  MAN339      0.2199
      4  C4        -5.5680   30.5250  -35.1070 C.3   339  MAN339      0.2144
      5  C5        -6.8400   31.1270  -35.8180 C.3   339  MAN339      0.1836
      6  C6        -6.3830   31.5520  -37.1400 C.3   339  MAN339      0.2142
      7  O1        -8.7530   30.7520  -33.9430 O.3   339  MAN339     -0.1869
      8  O2        -6.4610   27.9250  -34.6580 O.3   339  MAN339     -0.2148
      9  O3        -4.8640   29.4480  -33.1220 O.3   339  MAN339     -0.2174
     10  O4        -4.5120   31.5120  -35.1080 O.3   339  MAN339     -0.2176
     11  O5        -7.7800   30.0580  -35.7520 O.3   339  MAN339     -0.3236
     12  O6        -7.5070   32.3310  -37.7390 O.3   339  MAN339     -0.2176
@<TRIPOS>BOND
     1    12     6    1
     2     6     5    1
     3     5    11    1
     4     5     4    1
     5    11     1    1
     6    10     4    1
     7     4     3    1
     8     8     2    1
     9     1     7    1
    10     1     2    1
    11     2     3    1
    12     3     9    1
