@<TRIPOS>MOLECULE
3p7h_MAL_A_1.pdb
 23 24 0 0 0
SMALL
GASTEIGER

@<TRIPOS>ATOM
      1  C1        -8.1040   29.0220  -35.6030 C.3   339  MAL339      0.2695
      2  C2        -6.9120   28.7680  -34.6360 C.3   339  MAL339      0.2406
      3  C3        -5.9970   29.9940  -34.5320 C.3   339  MAL339      0.2198
      4  C4        -5.5470   30.3720  -35.9200 C.3   339  MAL339      0.2144
      5  C5        -6.7650   30.8390  -36.7360 C.3   339  MAL339      0.1835
      6  C6        -6.2750   31.3450  -38.1050 C.3   339  MAL339      0.2142
      7  O1        -9.1400   29.7290  -34.8790 O.3   339  MAL339     -0.3257
      8  O2        -7.3780   28.4400  -33.3260 O.3   339  MAL339     -0.2149
      9  O3        -4.8410   29.7130  -33.7380 O.3   339  MAL339     -0.2174
     10  O4        -4.5540   31.3770  -35.8010 O.3   339  MAL339     -0.2176
     11  O5        -7.7480   29.7380  -36.8680 O.3   339  MAL339     -0.3256
     12  O6        -7.3840   31.7620  -38.9100 O.3   339  MAL339     -0.2176
     13  C1'      -13.3000   28.8350  -33.9280 C.3   339  MAL339      0.3023
     14  C2'      -12.2510   27.7240  -33.6440 C.3   339  MAL339      0.2433
     15  C3'      -10.8110   28.3000  -33.6010 C.3   339  MAL339      0.2168
     16  C4'      -10.4580   29.0580  -34.9160 C.3   339  MAL339      0.1804
     17  C5'      -11.6000   30.0870  -35.2870 C.3   339  MAL339      0.1804
     18  C6'      -11.4080   30.6870  -36.7060 C.3   339  MAL339      0.2141
     19  O1'      -13.4530   29.7350  -32.7870 O.3   339  MAL339     -0.1869
     20  O2'      -12.5800   27.0200  -32.4290 O.3   339  MAL339     -0.2148
     21  O3'       -9.8710   27.2430  -33.3490 O.3   339  MAL339     -0.2175
     22  O5'      -12.9900   29.5580  -35.1850 O.3   339  MAL339     -0.3237
     23  O6'      -11.2200   32.1060  -36.6170 O.3   339  MAL339     -0.2176
@<TRIPOS>BOND
     1    12     6    1
     2     6     5    1
     3    11     5    1
     4    11     1    1
     5     5     4    1
     6    18    23    1
     7    18    17    1
     8     4    10    1
     9     4     3    1
    10     1     7    1
    11     1     2    1
    12    17    22    1
    13    17    16    1
    14    22    13    1
    15    16     7    1
    16    16    15    1
    17     2     3    1
    18     2     8    1
    19     3     9    1
    20    13    14    1
    21    13    19    1
    22    14    15    1
    23    14    20    1
    24    15    21    1
