@<TRIPOS>MOLECULE
3p7n_FMN_A_1.pdb
 31 33 0 0 0
SMALL
GASTEIGER

@<TRIPOS>ATOM
      1  N1         4.5060   -8.2010   18.2440 N.2   500  FMN500     -0.2887
      2  C2         5.4750   -7.2310   18.0770 C.1   500  FMN500      0.3669
      3  O2         5.5210   -6.5860   17.0320 O.2   500  FMN500     -0.1744
      4  N3         6.3930   -6.9840   19.0770 N.2   500  FMN500     -0.2300
      5  C4         6.3450   -7.7060   20.2510 C.1   500  FMN500      0.2513
      6  O4         7.1620   -7.4870   21.1430 O.2   500  FMN500     -0.2057
      7  C4A        5.3710   -8.6820   20.4250 C.2   500  FMN500      0.2706
      8  N5         5.3240   -9.4050   21.5990 N.2   500  FMN500     -0.3841
      9  C5A        4.3580  -10.3740   21.7740 C.2   500  FMN500      0.1452
     10  C6         4.3100  -11.1020   22.9580 C.2   500  FMN500      0.0252
     11  C7         3.3370  -12.0790   23.1330 C.2   500  FMN500     -0.0375
     12  C7M        3.2770  -12.8690   24.4070 C.3   500  FMN500      0.0268
     13  C8         2.4140  -12.3260   22.1250 C.3   500  FMN500      0.0417
     14  C8M        1.3650  -13.3800   22.3140 C.3   500  FMN500      0.0091
     15  C9         2.4620  -11.5980   20.9420 C.2   500  FMN500     -0.0049
     16  C9A        3.4340  -10.6210   20.7640 C.2   500  FMN500      0.0795
     17  N10        3.4750   -9.8980   19.5870 N.pl3 500  FMN500     -0.2545
     18  C10        4.4460   -8.9290   19.4150 C.2   500  FMN500      0.2449
     19  C1'        2.4720  -10.1830   18.5030 C.3   500  FMN500      0.1336
     20  C2'        1.5610   -8.9880   18.2350 C.3   500  FMN500      0.2048
     21  O2'        0.5110   -8.9750   19.1760 O.3   500  FMN500     -0.2185
     22  C3'        0.9870   -9.0370   16.8190 C.3   500  FMN500      0.2165
     23  O3'        1.2660   -7.8120   16.1760 O.3   500  FMN500     -0.2175
     24  C4'       -0.5180   -9.2990   16.8180 C.3   500  FMN500      0.2147
     25  O4'       -0.7810  -10.5340   17.4460 O.3   500  FMN500     -0.2176
     26  C5'       -1.0920   -9.3540   15.4060 C.3   500  FMN500      0.1892
     27  O5'       -2.1930   -8.4770   15.2970 O.3   500  FMN500     -0.2674
     28  P         -3.3430   -8.7550   14.2020 P.3   500  FMN500      0.5327
     29  O1P       -4.6820   -8.8240   14.8980 O.3   500  FMN500     -0.1145
     30  O2P       -3.3430   -7.6510   13.1710 O.2   500  FMN500     -0.2224
     31  O3P       -3.0740  -10.0810   13.5330 O.3   500  FMN500     -0.1145
@<TRIPOS>BOND
     1    30    28    2
     2    31    28    1
     3    28    29    1
     4    28    27    1
     5    27    26    1
     6    26    24    1
     7    23    22    1
     8    24    22    1
     9    24    25    1
    10    22    20    1
    11     3     2    2
    12     2     1    2
    13     2     4    2
    14    20    19    1
    15    20    21    1
    16     1    18    2
    17    19    17    1
    18     4     5    2
    19    18    17    1
    20    18     7    1
    21    17    16    1
    22     5     7    1
    23     5     6    2
    24     7     8    2
    25    16    15    2
    26    16     9    1
    27    15    13    1
    28     8     9    2
    29     9    10    1
    30    13    14    1
    31    13    11    1
    32    10    11    2
    33    11    12    1
