@<TRIPOS>MOLECULE
3p7o_III_B_1.pdb
 40 39 0 0 0
SMALL
GASTEIGER

@<TRIPOS>ATOM
      1  N          8.6510   -9.1120   22.0860 N.3     6  UNK6       -0.1231
      2  CA         9.5830   -7.9930   22.0190 C.3     6  UNK6        0.1694
      3  C         10.9470   -8.4120   21.4580 C.2     6  UNK6        0.2592
      4  O         11.2590   -8.1140   20.3020 O.2     6  UNK6       -0.2718
      5  CB         9.7330   -7.3350   23.3870 C.3     6  UNK6        0.0304
      6  N         11.7520   -9.0980   22.2700 N.am    7  UNK7       -0.1966
      7  CA        13.0880   -9.5320   21.8500 C.3     7  UNK7        0.1728
      8  C         13.0410  -10.1780   20.4640 C.2     7  UNK7        0.2616
      9  O         12.5110  -11.2820   20.3100 O.2     7  UNK7       -0.2715
     10  CB        13.6870  -10.4940   22.8720 C.3     7  UNK7        0.0334
     11  N         13.5990   -9.4880   19.4660 N.am    8  UNK8       -0.1963
     12  CA        13.4450   -9.8800   18.0610 C.3     8  UNK8        0.1728
     13  C         14.6780  -10.5470   17.4260 C.2     8  UNK8        0.2616
     14  O         15.6480   -9.8750   17.0690 O.2     8  UNK8       -0.2715
     15  CB        12.9840   -8.6820   17.2190 C.3     8  UNK8        0.0334
     16  N         14.6070  -11.8730   17.2860 N.am    9  UNK9       -0.1963
     17  CA        15.6250  -12.7040   16.6270 C.3     9  UNK9        0.1728
     18  C         15.2020  -14.1770   16.7290 C.2     9  UNK9        0.2616
     19  O         14.8930  -14.6640   17.8220 O.2     9  UNK9       -0.2715
     20  CB        16.9980  -12.4930   17.2520 C.3     9  UNK9        0.0334
     21  N         15.1860  -14.8850   15.6020 N.am   10  UNK10      -0.1963
     22  CA        14.6160  -16.2360   15.5590 C.3    10  UNK10       0.1728
     23  C         15.5120  -17.3140   16.1740 C.2    10  UNK10       0.2616
     24  O         16.4670  -17.7620   15.5450 O.2    10  UNK10      -0.2715
     25  CB        14.2380  -16.6070   14.1290 C.3    10  UNK10       0.0334
     26  N         15.1800  -17.7430   17.3910 N.am   11  UNK11      -0.1963
     27  CA        15.9590  -18.7660   18.0970 C.3    11  UNK11       0.1728
     28  C         15.1970  -20.0890   18.2990 C.2    11  UNK11       0.2616
     29  O         14.4040  -20.4990   17.4470 O.2    11  UNK11      -0.2715
     30  CB        16.4540  -18.2240   19.4490 C.3    11  UNK11       0.0334
     31  N         15.4780  -20.7490   19.4240 N.am   12  UNK12      -0.1963
     32  CA        14.7530  -21.9430   19.8830 C.3    12  UNK12       0.1728
     33  C         15.2350  -23.2610   19.2960 C.2    12  UNK12       0.2616
     34  O         14.4270  -24.0990   18.8930 O.2    12  UNK12      -0.2715
     35  CB        13.2650  -21.7990   19.6710 C.3    12  UNK12       0.0334
     36  N         16.5480  -23.4460   19.2530 N.am   13  UNK13      -0.1977
     37  CA        17.0960  -24.7700   18.9940 C.3    13  UNK13       0.1597
     38  C         18.0400  -25.1850   20.1270 C.2    13  UNK13       0.2287
     39  O         17.6300  -25.2830   21.2910 O.2    13  UNK13      -0.2864
     40  CB        17.8020  -24.8170   17.6420 C.3    13  UNK13       0.0319
@<TRIPOS>BOND
     1    25    22    1
     2    24    23    2
     3    22    21    1
     4    22    23    1
     5    21    18   am
     6    23    26   am
     7    17    18    1
     8    17    20    1
     9    17    16    1
    10    18    19    2
    11    14    13    2
    12    15    12    1
    13    16    13   am
    14    26    27    1
    15    13    12    1
    16    29    28    2
    17    40    37    1
    18    12    11    1
    19    27    28    1
    20    27    30    1
    21    28    31   am
    22    34    33    2
    23    37    36    1
    24    37    38    1
    25    36    33   am
    26    33    32    1
    27    31    32    1
    28    11     8   am
    29    35    32    1
    30    38    39    2
    31     4     3    2
    32     9     8    2
    33     8     7    1
    34     3     2    1
    35     3     6   am
    36     7     6    1
    37     7    10    1
    38     2     1    1
    39     2     5    1
