@<TRIPOS>MOLECULE
3p7y_FMN_A_1.pdb
 31 33 0 0 0
SMALL
GASTEIGER

@<TRIPOS>ATOM
      1  N1        21.3120    8.3310   23.7380 N.2   401  FMN401     -0.2887
      2  C2        20.6770    7.1590   23.5210 C.1   401  FMN401      0.3669
      3  O2        19.7620    6.7960   24.2850 O.2   401  FMN401     -0.1744
      4  N3        21.0410    6.3400   22.4800 N.2   401  FMN401     -0.2300
      5  C4        22.0290    6.6640   21.6090 C.1   401  FMN401      0.2513
      6  O4        22.3630    5.8440   20.6890 O.2   401  FMN401     -0.2057
      7  C4A       22.6690    7.9080   21.8030 C.2   401  FMN401      0.2703
      8  N5        23.6400    8.3080   20.9450 N.2   401  FMN401     -0.3882
      9  C5A       24.3660    9.4420   21.2350 C.2   401  FMN401      0.1277
     10  C6        25.4220    9.7930   20.3990 C.3   401  FMN401      0.0820
     11  C7        26.2390   10.8910   20.6730 C.2   401  FMN401     -0.0408
     12  C7M       27.3940   11.2350   19.7620 C.3   401  FMN401      0.0265
     13  C8        25.9610   11.6690   21.8020 C.2   401  FMN401     -0.0280
     14  C8M       26.8220   12.8670   22.1350 C.3   401  FMN401      0.0304
     15  C9        24.9050   11.3190   22.6330 C.2   401  FMN401      0.0123
     16  C9A       24.0660   10.2020   22.3770 C.2   401  FMN401      0.0793
     17  N10       23.0060    9.8330   23.1760 N.pl3 401  FMN401     -0.2545
     18  C10       22.3040    8.7040   22.9060 C.2   401  FMN401      0.2449
     19  C1'       22.8370   10.4870   24.4840 C.3   401  FMN401      0.1336
     20  C2'       23.8760    9.9970   25.4900 C.3   401  FMN401      0.2048
     21  O2'       23.6130    8.6510   25.9050 O.3   401  FMN401     -0.2185
     22  C3'       23.9060   10.8700   26.7500 C.3   401  FMN401      0.2165
     23  O3'       22.6430   10.7250   27.4220 O.3   401  FMN401     -0.2175
     24  C4'       24.1980   12.3510   26.4580 C.3   401  FMN401      0.2147
     25  O4'       25.3740   12.4480   25.6440 O.3   401  FMN401     -0.2176
     26  C5'       24.3410   13.2000   27.7160 C.3   401  FMN401      0.1892
     27  O5'       25.3060   12.6400   28.6100 O.3   401  FMN401     -0.2674
     28  P         26.8300   13.2110   28.6850 P.3   401  FMN401      0.5327
     29  O1P       27.4310   13.1100   27.2970 O.2   401  FMN401     -0.2224
     30  O2P       26.7250   14.6450   29.1570 O.3   401  FMN401     -0.1145
     31  O3P       27.4920   12.2700   29.6810 O.3   401  FMN401     -0.1145
@<TRIPOS>BOND
     1    12    11    1
     2    10    11    1
     3    10     9    1
     4    11    13    2
     5     6     5    2
     6     8     9    2
     7     8     7    2
     8     9    16    1
     9     5     7    1
    10     5     4    2
    11    13    14    1
    12    13    15    1
    13     7    18    1
    14    16    15    2
    15    16    17    1
    16     4     2    2
    17    18    17    1
    18    18     1    2
    19    17    19    1
    20     2     1    2
    21     2     3    2
    22    19    20    1
    23    20    21    1
    24    20    22    1
    25    25    24    1
    26    24    22    1
    27    24    26    1
    28    22    23    1
    29    29    28    2
    30    26    27    1
    31    27    28    1
    32    28    30    1
    33    28    31    1
