@<TRIPOS>MOLECULE
3p7y_P7Y_A_1.pdb
 12 12 0 0 0
SMALL
GASTEIGER

@<TRIPOS>ATOM
      1  C1        21.1940   12.4030   22.1880 C.2   402  P7Y402      0.1653
      2  N1        20.8820   13.2070   23.1910 N.pl3 402  P7Y402      0.0593
      3  O1        21.7190   14.2400   23.5220 O.2   402  P7Y402     -0.1261
      4  C2        20.3840   11.3210   21.8340 C.2   402  P7Y402      0.0290
      5  O2        19.7480   13.0680   23.9140 O.2   402  P7Y402     -0.1261
      6  C1'       20.6380   10.4130   20.7830 C.ar  402  P7Y402      0.0407
      7  C2'       19.9210    9.1820   20.6870 C.ar  402  P7Y402      0.1957
      8  O2'       19.0600    8.7800   21.5990 O.3   402  P7Y402     -0.2866
      9  C3'       20.1120    8.2960   19.6530 C.ar  402  P7Y402      0.0420
     10  C4'       21.0160    8.6050   18.6590 C.ar  402  P7Y402      0.0033
     11  C5'       21.7080    9.8140   18.7050 C.ar  402  P7Y402      0.0002
     12  C6'       21.5380   10.7120   19.7600 C.ar  402  P7Y402      0.0032
@<TRIPOS>BOND
     1    10    11   ar
     2    10     9   ar
     3    11    12   ar
     4     9     7   ar
     5    12     6   ar
     6     7     6   ar
     7     7     8    1
     8     6     4    1
     9     4     1    2
    10     1     2    1
    11     2     3    2
    12     2     5    2
