@<TRIPOS>MOLECULE
3p80_P80_A_1.pdb
 12 12 0 0 0
SMALL
GASTEIGER

@<TRIPOS>ATOM
      1  C1         5.7900  -12.8840  -24.2890 C.2   402  P80402      0.1652
      2  N1         5.1990  -13.9540  -23.8080 N.pl3 402  P80402      0.0593
      3  O1         4.2360  -14.6440  -24.6010 O.2   402  P80402     -0.1261
      4  C2         6.7530  -12.1900  -23.5650 C.2   402  P80402      0.0259
      5  O2         5.5110  -14.4040  -22.5120 O.2   402  P80402     -0.1261
      6  C1'        7.3610  -11.0270  -24.0500 C.ar  402  P80402      0.0049
      7  C2'        8.3330  -10.3990  -23.2820 C.ar  402  P80402      0.0421
      8  C3'        8.9280   -9.2250  -23.7280 C.ar  402  P80402      0.1957
      9  O3'        9.8530   -8.6280  -22.9510 O.3   402  P80402     -0.2866
     10  C4'        8.5500   -8.6590  -24.9380 C.ar  402  P80402      0.0420
     11  C5'        7.5680   -9.2740  -25.7100 C.ar  402  P80402      0.0033
     12  C6'        6.9750  -10.4440  -25.2590 C.ar  402  P80402      0.0003
@<TRIPOS>BOND
     1    11    12   ar
     2    11    10   ar
     3    12     6   ar
     4    10     8   ar
     5     3     2    2
     6     1     2    1
     7     1     4    2
     8     6     4    1
     9     6     7   ar
    10     2     5    2
    11     8     7   ar
    12     8     9    1
