@<TRIPOS>MOLECULE
3p80_FMN_A_1.pdb
 31 33 0 0 0
SMALL
GASTEIGER

@<TRIPOS>ATOM
      1  N1         7.4070   -8.4710  -20.7470 N.2   401  FMN401     -0.2887
      2  C2         8.0350   -7.3050  -20.9770 C.1   401  FMN401      0.3669
      3  O2         8.9560   -6.9350  -20.2180 O.2   401  FMN401     -0.1744
      4  N3         7.6740   -6.4880  -22.0130 N.2   401  FMN401     -0.2300
      5  C4         6.6870   -6.8220  -22.8840 C.1   401  FMN401      0.2513
      6  O4         6.3620   -6.0160  -23.8030 O.2   401  FMN401     -0.2057
      7  C4A        6.0280   -8.0540  -22.6720 C.2   401  FMN401      0.2703
      8  N5         5.0420   -8.4440  -23.5230 N.2   401  FMN401     -0.3882
      9  C5A        4.3520   -9.5800  -23.2220 C.2   401  FMN401      0.1277
     10  C6         3.2950   -9.9290  -24.0540 C.3   401  FMN401      0.0820
     11  C7         2.5010  -11.0360  -23.7760 C.2   401  FMN401     -0.0408
     12  C7M        1.3650  -11.3940  -24.6970 C.3   401  FMN401      0.0265
     13  C8         2.7790  -11.7970  -22.6550 C.2   401  FMN401     -0.0280
     14  C8M        1.9430  -13.0250  -22.3310 C.3   401  FMN401      0.0304
     15  C9         3.8490  -11.4510  -21.8250 C.2   401  FMN401      0.0123
     16  C9A        4.6660  -10.3220  -22.0910 C.2   401  FMN401      0.0793
     17  N10        5.7130   -9.9650  -21.3110 N.pl3 401  FMN401     -0.2545
     18  C10        6.3980   -8.8400  -21.5740 C.2   401  FMN401      0.2449
     19  C1'        5.9590  -10.6770  -20.0510 C.3   401  FMN401      0.1336
     20  C2'        4.9130  -10.2690  -19.0270 C.3   401  FMN401      0.2048
     21  O2'        5.1520   -8.9290  -18.5720 O.3   401  FMN401     -0.2185
     22  C3'        4.9170  -11.1770  -17.8100 C.3   401  FMN401      0.2165
     23  O3'        6.2240  -11.1710  -17.2240 O.3   401  FMN401     -0.2175
     24  C4'        4.5280  -12.6200  -18.1230 C.3   401  FMN401      0.2147
     25  O4'        3.2880  -12.6210  -18.8490 O.3   401  FMN401     -0.2176
     26  C5'        4.4180  -13.4460  -16.8430 C.3   401  FMN401      0.1892
     27  O5'        3.5270  -12.8420  -15.8950 O.3   401  FMN401     -0.2674
     28  P          1.9890  -13.3750  -15.7520 P.3   401  FMN401      0.5327
     29  O1P        1.3190  -13.3000  -17.1250 O.2   401  FMN401     -0.2224
     30  O2P        2.1300  -14.7960  -15.2310 O.3   401  FMN401     -0.1145
     31  O3P        1.3650  -12.4170  -14.7580 O.3   401  FMN401     -0.1145
@<TRIPOS>BOND
     1    12    11    1
     2    10    11    1
     3    10     9    1
     4     6     5    2
     5    11    13    2
     6     8     9    2
     7     8     7    2
     8     9    16    1
     9     5     7    1
    10     5     4    2
    11     7    18    1
    12    13    14    1
    13    13    15    1
    14    16    15    2
    15    16    17    1
    16     4     2    2
    17    18    17    1
    18    18     1    2
    19    17    19    1
    20     2     1    2
    21     2     3    2
    22    19    20    1
    23    20    21    1
    24    20    22    1
    25    25    24    1
    26    24    22    1
    27    24    26    1
    28    22    23    1
    29    29    28    2
    30    26    27    1
    31    27    28    1
    32    28    30    1
    33    28    31    1
