@<TRIPOS>MOLECULE
3p81_FMN_A_1.pdb
 31 33 0 0 0
SMALL
GASTEIGER

@<TRIPOS>ATOM
      1  N1        21.3130    8.3570   23.7950 N.2   401  FMN401     -0.2887
      2  C2        20.6940    7.1780   23.5820 C.1   401  FMN401      0.3669
      3  O2        19.7860    6.7760   24.3440 O.2   401  FMN401     -0.1744
      4  N3        21.0590    6.3600   22.5530 N.2   401  FMN401     -0.2300
      5  C4        22.0140    6.7110   21.6540 C.1   401  FMN401      0.2513
      6  O4        22.3520    5.9040   20.7330 O.2   401  FMN401     -0.2057
      7  C4A       22.6430    7.9610   21.8360 C.2   401  FMN401      0.2706
      8  N5        23.6020    8.3680   20.9700 N.2   401  FMN401     -0.3841
      9  C5A       24.3240    9.4950   21.2690 C.2   401  FMN401      0.1452
     10  C6        25.4020    9.8420   20.4560 C.2   401  FMN401      0.0252
     11  C7        26.2160   10.9270   20.7410 C.2   401  FMN401     -0.0375
     12  C7M       27.3910   11.2550   19.8460 C.3   401  FMN401      0.0268
     13  C8        25.9330   11.7030   21.8600 C.3   401  FMN401      0.0417
     14  C8M       26.7930   12.8890   22.2140 C.3   401  FMN401      0.0091
     15  C9        24.8610   11.3620   22.6780 C.2   401  FMN401     -0.0049
     16  C9A       24.0380   10.2480   22.4070 C.2   401  FMN401      0.0795
     17  N10       22.9770    9.8890   23.2060 N.pl3 401  FMN401     -0.2545
     18  C10       22.2870    8.7520   22.9450 C.2   401  FMN401      0.2449
     19  C1'       22.8250   10.5150   24.5410 C.3   401  FMN401      0.1336
     20  C2'       23.8640   10.0060   25.5270 C.3   401  FMN401      0.2048
     21  O2'       23.5760    8.6580   25.9110 O.3   401  FMN401     -0.2185
     22  C3'       23.8810   10.8770   26.7900 C.3   401  FMN401      0.2165
     23  O3'       22.6000   10.7410   27.4580 O.3   401  FMN401     -0.2175
     24  C4'       24.1970   12.3770   26.5120 C.3   401  FMN401      0.2147
     25  O4'       25.4140   12.4480   25.7510 O.3   401  FMN401     -0.2176
     26  C5'       24.2960   13.2680   27.7500 C.3   401  FMN401      0.1892
     27  O5'       25.2820   12.7580   28.6460 O.3   401  FMN401     -0.2674
     28  P         26.8340   13.3040   28.7320 P.3   401  FMN401      0.5327
     29  O1P       27.4210   13.1650   27.3360 O.2   401  FMN401     -0.2224
     30  O2P       26.7650   14.7480   29.1970 O.3   401  FMN401     -0.1145
     31  O3P       27.4510   12.3550   29.7350 O.3   401  FMN401     -0.1145
@<TRIPOS>BOND
     1    12    11    1
     2    10    11    2
     3    10     9    1
     4     6     5    2
     5    11    13    1
     6     8     9    2
     7     8     7    2
     8     9    16    1
     9     5     7    1
    10     5     4    2
    11     7    18    1
    12    13    14    1
    13    13    15    1
    14    16    15    2
    15    16    17    1
    16     4     2    2
    17    18    17    1
    18    18     1    2
    19    17    19    1
    20     2     1    2
    21     2     3    2
    22    19    20    1
    23    20    21    1
    24    20    22    1
    25    25    24    1
    26    24    22    1
    27    24    26    1
    28    22    23    1
    29    29    28    2
    30    26    27    1
    31    27    28    1
    32    28    30    1
    33    28    31    1
