@<TRIPOS>MOLECULE
3p81_P81_A_1.pdb
 12 12 0 0 0
SMALL
GASTEIGER

@<TRIPOS>ATOM
      1  C1        22.3020   10.6340   16.5260 C.2   402  P81402      0.1652
      2  N1        22.8730   11.4060   15.6710 N.pl3 402  P81402      0.0593
      3  O1        23.1020   12.7390   15.9240 O.2   402  P81402     -0.1261
      4  C2        21.9360   11.0810   17.7350 C.2   402  P81402      0.0258
      5  O2        23.2190   10.9820   14.5910 O.2   402  P81402     -0.1261
      6  C1'       21.2200   10.2950   18.7710 C.ar  402  P81402      0.0019
      7  C2'       20.8430    8.9550   18.6390 C.ar  402  P81402      0.0033
      8  C3'       20.1120    8.3440   19.6600 C.ar  402  P81402      0.0420
      9  C4'       19.7340    9.0750   20.7730 C.ar  402  P81402      0.1957
     10  O4'       19.0080    8.5150   21.7350 O.3   402  P81402     -0.2866
     11  C5'       20.1090   10.4080   20.9050 C.ar  402  P81402      0.0420
     12  C6'       20.8340   11.0180   19.8940 C.ar  402  P81402      0.0033
@<TRIPOS>BOND
     1     5     2    2
     2     2     3    2
     3     2     1    1
     4     1     4    2
     5     4     6    1
     6     7     6   ar
     7     7     8   ar
     8     6    12   ar
     9     8     9   ar
    10    12    11   ar
    11     9    11   ar
    12     9    10    1
