@<TRIPOS>MOLECULE
3p82_FMN_A_1.pdb
 31 33 0 0 0
SMALL
GASTEIGER

@<TRIPOS>ATOM
      1  N1        -7.0480   -7.3980   19.5030 N.2   401  FMN401     -0.2887
      2  C2        -7.8640   -6.3170   19.8000 C.1   401  FMN401      0.3669
      3  O2        -8.8100   -6.0350   19.0340 O.2   401  FMN401     -0.1744
      4  N3        -7.6020   -5.5780   20.9560 N.2   401  FMN401     -0.2300
      5  C4        -6.5610   -5.9200   21.8100 C.1   401  FMN401      0.2513
      6  O4        -6.1300   -4.9730   22.4440 O.2   401  FMN401     -0.2057
      7  C4A       -5.7340   -7.0270   21.5040 C.2   401  FMN401      0.2706
      8  N5        -4.6830   -7.4580   22.3100 N.2   401  FMN401     -0.3841
      9  C5A       -3.8920   -8.5300   21.9170 C.2   401  FMN401      0.1452
     10  C6        -2.7850   -8.8800   22.6680 C.2   401  FMN401      0.0252
     11  C7        -1.9710   -9.9700   22.3300 C.2   401  FMN401     -0.0375
     12  C7M       -0.6840  -10.1350   23.0800 C.3   401  FMN401      0.0268
     13  C8        -2.2170  -10.6490   21.1280 C.3   401  FMN401      0.0417
     14  C8M       -1.2190  -11.6320   20.5650 C.3   401  FMN401      0.0091
     15  C9        -3.3150  -10.2860   20.3330 C.2   401  FMN401     -0.0049
     16  C9A       -4.1360   -9.2100   20.7380 C.2   401  FMN401      0.0795
     17  N10       -5.1960   -8.8180   19.9450 N.pl3 401  FMN401     -0.2545
     18  C10       -5.9890   -7.7550   20.3260 C.2   401  FMN401      0.2449
     19  C1'       -5.3940   -9.4560   18.6050 C.3   401  FMN401      0.1336
     20  C2'       -4.5100   -8.6120   17.6740 C.3   401  FMN401      0.2048
     21  O2'       -4.9840   -7.2810   17.5020 O.3   401  FMN401     -0.2185
     22  C3'       -4.3980   -9.1820   16.2800 C.3   401  FMN401      0.2165
     23  O3'       -5.6510   -9.2200   15.6330 O.3   401  FMN401     -0.2175
     24  C4'       -3.6610  -10.4970   16.2090 C.3   401  FMN401      0.2147
     25  O4'       -2.6170  -10.5560   17.1780 O.3   401  FMN401     -0.2176
     26  C5'       -3.1330  -10.4200   14.7910 C.3   401  FMN401      0.1892
     27  O5'       -2.5350  -11.6490   14.5900 O.3   401  FMN401     -0.2674
     28  P         -0.9540  -11.7260   14.5600 P.3   401  FMN401      0.5327
     29  O1P       -0.3820  -11.5980   15.9460 O.3   401  FMN401     -0.1145
     30  O2P       -0.7150  -13.1060   14.0320 O.3   401  FMN401     -0.1145
     31  O3P       -0.4570  -10.7070   13.5850 O.2   401  FMN401     -0.2224
@<TRIPOS>BOND
     1    31    28    2
     2    30    28    1
     3    28    27    1
     4    28    29    1
     5    27    26    1
     6    26    24    1
     7    23    22    1
     8    24    22    1
     9    24    25    1
    10    22    20    1
    11    21    20    1
    12    20    19    1
    13    19    17    1
    14     3     2    2
    15     1     2    2
    16     1    18    2
    17     2     4    2
    18    17    18    1
    19    17    16    1
    20    18     7    1
    21    15    16    2
    22    15    13    1
    23    14    13    1
    24    16     9    1
    25     4     5    2
    26    13    11    1
    27     7     5    1
    28     7     8    2
    29     5     6    2
    30     9     8    2
    31     9    10    1
    32    11    10    2
    33    11    12    1
