@<TRIPOS>MOLECULE
3p84_FMN_A_1.pdb
 31 33 0 0 0
SMALL
GASTEIGER

@<TRIPOS>ATOM
      1  N1        21.2620    8.3080   23.6800 N.2   401  FMN401     -0.2887
      2  C2        20.6320    7.1240   23.4660 C.1   401  FMN401      0.3669
      3  O2        19.7110    6.7410   24.2350 O.2   401  FMN401     -0.1744
      4  N3        21.0040    6.3080   22.4320 N.2   401  FMN401     -0.2300
      5  C4        21.9760    6.6490   21.5270 C.1   401  FMN401      0.2513
      6  O4        22.2880    5.8210   20.6150 O.2   401  FMN401     -0.2057
      7  C4A       22.5930    7.9040   21.7030 C.2   401  FMN401      0.2703
      8  N5        23.5390    8.3540   20.8200 N.2   401  FMN401     -0.3882
      9  C5A       24.2530    9.4760   21.1280 C.2   401  FMN401      0.1277
     10  C6        25.3170    9.8470   20.3080 C.3   401  FMN401      0.0820
     11  C7        26.1250   10.9440   20.6060 C.2   401  FMN401     -0.0408
     12  C7M       27.2720   11.2990   19.7010 C.3   401  FMN401      0.0265
     13  C8        25.8690   11.6840   21.7480 C.2   401  FMN401     -0.0280
     14  C8M       26.7180   12.8750   22.1210 C.3   401  FMN401      0.0304
     15  C9        24.8100   11.3210   22.5810 C.2   401  FMN401      0.0123
     16  C9A       23.9840   10.2090   22.2910 C.2   401  FMN401      0.0793
     17  N10       22.9120    9.8370   23.0860 N.pl3 401  FMN401     -0.2545
     18  C10       22.2370    8.6890   22.8250 C.2   401  FMN401      0.2449
     19  C1'       22.7620   10.4630   24.4220 C.3   401  FMN401      0.1336
     20  C2'       23.8060    9.9550   25.4170 C.3   401  FMN401      0.2048
     21  O2'       23.5310    8.6010   25.7880 O.3   401  FMN401     -0.2185
     22  C3'       23.8200   10.8100   26.6850 C.3   401  FMN401      0.2165
     23  O3'       22.5580   10.6430   27.3570 O.3   401  FMN401     -0.2175
     24  C4'       24.0990   12.3120   26.4050 C.3   401  FMN401      0.2147
     25  O4'       25.2660   12.4390   25.5830 O.3   401  FMN401     -0.2176
     26  C5'       24.2470   13.1740   27.6580 C.3   401  FMN401      0.1892
     27  O5'       25.2110   12.6170   28.5390 O.3   401  FMN401     -0.2674
     28  P         26.7590   13.2070   28.6090 P.3   401  FMN401      0.5327
     29  O1P       27.3590   13.0770   27.2010 O.2   401  FMN401     -0.2224
     30  O2P       26.6560   14.6220   29.0850 O.3   401  FMN401     -0.1145
     31  O3P       27.3950   12.2840   29.6200 O.3   401  FMN401     -0.1145
@<TRIPOS>BOND
     1    12    11    1
     2    10    11    1
     3    10     9    1
     4    11    13    2
     5     6     5    2
     6     8     9    2
     7     8     7    2
     8     9    16    1
     9     5     7    1
    10     5     4    2
    11     7    18    1
    12    13    14    1
    13    13    15    1
    14    16    15    2
    15    16    17    1
    16     4     2    2
    17    18    17    1
    18    18     1    2
    19    17    19    1
    20     2     1    2
    21     2     3    2
    22    19    20    1
    23    20    21    1
    24    20    22    1
    25    25    24    1
    26    24    22    1
    27    24    26    1
    28    22    23    1
    29    29    28    2
    30    26    27    1
    31    27    28    1
    32    28    30    1
    33    28    31    1
