@<TRIPOS>MOLECULE
3p86_STU_A_1.pdb
 35 42 0 0 0
SMALL
GASTEIGER

@<TRIPOS>ATOM
      1  O4        29.4540    0.4760   26.1260 O.3     0  STU0       -0.3186
      2  C25       28.7600    0.8500   24.9720 C.3     0  STU0        0.2078
      3  C24       29.5610    0.6750   23.6900 C.3     0  STU0        0.0739
      4  C23       30.8960    0.0000   24.0380 C.3     0  STU0        0.1086
      5  C22       31.6140    0.9140   25.0470 C.3     0  STU0        0.1761
      6  C21       30.7450    0.9970   26.2980 C.3     0  STU0        0.1915
      7  C26       31.4090    0.0300   27.2860 C.3     0  STU0        0.0566
      8  N2        30.7670    2.3510   26.8680 N.ar    0  STU0       -0.3054
      9  C18       29.7850    3.3000   26.5950 C.ar    0  STU0        0.0774
     10  C19       28.6300    3.2110   25.8060 C.ar    0  STU0        0.0783
     11  C6        27.7770    4.3100   25.6780 C.ar    0  STU0        0.0293
     12  C7        28.0860    5.5170   26.3500 C.ar    0  STU0        0.0822
     13  C10       29.2350    5.5940   27.1300 C.ar    0  STU0        0.0154
     14  C11       30.0850    4.5000   27.2580 C.ar    0  STU0        0.0173
     15  C12       31.3360    4.2560   27.9770 C.ar    0  STU0        0.0171
     16  C17       31.7130    2.9190   27.7020 C.ar    0  STU0        0.0617
     17  C16       32.8860    2.4050   28.2590 C.ar    0  STU0        0.0172
     18  C15       33.6340    3.2360   29.0770 C.ar    0  STU0        0.0015
     19  C14       33.2560    4.5400   29.3380 C.ar    0  STU0        0.0001
     20  C13       32.1010    5.0820   28.8010 C.ar    0  STU0        0.0015
     21  C9        29.2730    6.9960   27.6930 C.3     0  STU0        0.1650
     22  N1        28.1580    7.7130   27.0670 N.2     0  STU0       -0.1976
     23  C8        27.4100    6.8240   26.3920 C.1     0  STU0        0.1501
     24  O5        26.3670    7.0860   25.8220 O.2     0  STU0       -0.2222
     25  C5        26.6910    3.8790   24.8010 C.ar    0  STU0        0.0180
     26  C20       26.9580    2.5340   24.4540 C.ar    0  STU0        0.0618
     27  C1        26.0880    1.8340   23.6190 C.ar    0  STU0        0.0172
     28  C2        24.9730    2.5130   23.1540 C.ar    0  STU0        0.0015
     29  C3        24.7130    3.8280   23.4950 C.ar    0  STU0        0.0001
     30  C4        25.5610    4.5450   24.3210 C.ar    0  STU0        0.0015
     31  N3        28.1560    2.1760   25.0720 N.ar    0  STU0       -0.3039
     32  O6        31.7710    2.2210   24.4800 O.3     0  STU0       -0.3478
     33  C27       33.1620    2.5430   24.5330 C.3     0  STU0        0.1743
     34  N4        31.7080   -0.2030   22.8260 N.3     0  STU0       -0.2152
     35  C28       32.9840   -0.8020   23.2470 C.3     0  STU0        0.1075
@<TRIPOS>BOND
     1    34    35    1
     2    34     4    1
     3    28    29   ar
     4    28    27   ar
     5    29    30   ar
     6    27    26   ar
     7     3     4    1
     8     3     2    1
     9     4     5    1
    10    30    25   ar
    11    26    25   ar
    12    26    31   ar
    13    32    33    1
    14    32     5    1
    15    25    11   ar
    16     2    31    1
    17     2     1    1
    18     5     6    1
    19    31    10   ar
    20    11    10   ar
    21    11    12   ar
    22    10     9   ar
    23    24    23    2
    24     1     6    1
    25     6     8    1
    26     6     7    1
    27    12    23    1
    28    12    13   ar
    29    23    22    2
    30     9     8   ar
    31     9    14   ar
    32     8    16   ar
    33    22    21    1
    34    13    14   ar
    35    13    21    1
    36    14    15   ar
    37    16    15   ar
    38    16    17   ar
    39    15    20   ar
    40    17    18   ar
    41    20    19   ar
    42    18    19   ar
