@<TRIPOS>MOLECULE
3p88_P88_A_1.pdb
 37 41 0 0 0
SMALL
GASTEIGER

@<TRIPOS>ATOM
      1  C1        98.3540   42.9130  141.5750 C.3     1  P881        0.0080
      2  N1        95.3050   42.2200  144.6830 N.ar    1  P881       -0.0776
      3  O1        96.0430   43.0740  143.7960 O.2     1  P881       -0.3580
      4  C2        96.8670   43.2440  141.5100 C.3     1  P881        0.0600
      5  N2        87.7550   35.1380  135.0080 N.2     1  P881       -0.2630
      6  O2        93.8610   39.9610  141.4080 O.3     1  P881       -0.4705
      7  C3        96.6270   44.7430  141.6590 C.3     1  P881        0.0080
      8  O3        88.5300   32.4780  132.7140 O.co2   1  P881       -0.2392
      9  C4        96.1390   42.5090  142.5710 C.ar    1  P881        0.1534
     10  O4        86.6120   33.4480  133.1180 O.co2   1  P881       -0.2392
     11  C5        94.9520   41.1090  143.9780 C.ar    1  P881        0.1215
     12  C6        95.4290   41.2150  142.6620 C.ar    1  P881        0.0748
     13  C7        95.2550   40.2120  141.5540 C.3     1  P881        0.2364
     14  C8        93.3340   39.1220  140.4610 C.ar    1  P881        0.1391
     15  C9        91.9890   39.2400  140.1430 C.ar    1  P881        0.0369
     16  C10       91.4060   38.4080  139.1920 C.ar    1  P881        0.0031
     17  C11       92.1510   37.4270  138.5260 C.ar    1  P881        0.0002
     18  C12       93.5080   37.3210  138.8620 C.ar    1  P881        0.0031
     19  C13       94.0930   38.1530  139.8140 C.ar    1  P881        0.0369
     20  C14       91.5650   36.5860  137.5610 C.ar    1  P881       -0.0003
     21  C15       92.3260   35.6080  136.9000 C.ar    1  P881       -0.0003
     22  C16       91.7580   34.7690  135.9440 C.ar    1  P881       -0.0041
     23  C17       90.4180   34.8840  135.6230 C.ar    1  P881       -0.0181
     24  C18       89.8440   34.0500  134.6710 C.3     1  P881        0.0782
     25  C19       88.4900   34.1920  134.3710 C.2     1  P881        0.1378
     26  C20       88.2980   35.9460  135.9320 C.3     1  P881        0.1514
     27  C21       89.6440   35.8410  136.2590 C.ar    1  P881       -0.0016
     28  C22       90.2070   36.6840  137.2140 C.ar    1  P881       -0.0026
     29  C23       87.8370   33.3120  133.3400 C.2     1  P881        0.4010
     30  C24       94.1710   39.9530  144.5100 C.ar    1  P881        0.0128
     31  C25       92.8060   40.0740  144.7000 C.ar    1  P881       -0.0206
     32  C26       92.0590   39.0070  145.1820 C.ar    1  P881       -0.0042
     33  C27       92.6870   37.8020  145.4790 C.ar    1  P881       -0.0006
     34  C28       94.0590   37.6720  145.2890 C.ar    1  P881       -0.0042
     35  C29       94.7960   38.7470  144.8050 C.ar    1  P881       -0.0206
     36  CL1       91.9860   41.6170  144.3230 C.3     1  P881        0.0311
     37  CL2       96.5630   38.5470  144.5810 C.3     1  P881        0.0311
@<TRIPOS>BOND
     1     8    29   ar
     2    10    29   ar
     3    29    25    1
     4    25    24    1
     5    25     5    2
     6    24    23    1
     7     5    26    1
     8    23    22   ar
     9    23    27   ar
    10    26    27    1
    11    22    21   ar
    12    27    28   ar
    13    21    20   ar
    14    28    20   ar
    15    20    17    1
    16    17    18   ar
    17    17    16   ar
    18    18    19   ar
    19    16    15   ar
    20    19    14   ar
    21    15    14   ar
    22    14     6    1
    23     6    13    1
    24     4     1    1
    25     4     7    1
    26     4     9    1
    27    13    12    1
    28     9    12   ar
    29     9     3   ar
    30    12    11   ar
    31     3     2   ar
    32    11    30    1
    33    11     2   ar
    34    36    31    1
    35    30    31   ar
    36    30    35   ar
    37    37    35    1
    38    31    32   ar
    39    35    34   ar
    40    32    33   ar
    41    34    33   ar
