@<TRIPOS>MOLECULE
3p89_89P_A_1.pdb
 37 41 0 0 0
SMALL
GASTEIGER

@<TRIPOS>ATOM
      1  C1       137.2770  164.8370  102.3870 C.3     1  89P1        0.0080
      2  C2       137.9390  163.4680  102.5190 C.3     1  89P1        0.0600
      3  C3       139.4310  163.5770  102.7940 C.3     1  89P1        0.0080
      4  C4       137.2640  162.7360  103.6120 C.ar    1  89P1        0.1534
      5  O5       137.3010  163.2480  104.8650 O.2     1  89P1       -0.3580
      6  N6       136.5980  162.4290  105.8180 N.ar    1  89P1       -0.0775
      7  C7       136.0880  161.3710  105.1360 C.ar    1  89P1        0.1237
      8  C8       136.4760  161.4970  103.6960 C.ar    1  89P1        0.0749
      9  C9       136.1540  160.5630  102.5630 C.3     1  89P1        0.2364
     10  O10      134.7850  160.2300  102.6610 O.3     1  89P1       -0.4705
     11  C11      134.1360  159.4410  101.7600 C.ar    1  89P1        0.1390
     12  C12      132.9210  159.8920  101.2990 C.ar    1  89P1        0.0366
     13  C13      132.1880  159.1430  100.3980 C.ar    1  89P1       -0.0005
     14  C14      132.6440  157.9070   99.9520 C.ar    1  89P1       -0.0141
     15  C15      133.8850  157.4490  100.4140 C.ar    1  89P1       -0.0005
     16  C16      134.6250  158.2130  101.3260 C.ar    1  89P1        0.0366
     17  C17      131.8150  157.1700   98.9530 C.3     1  89P1        0.0663
     18  C18      130.4510  157.4520   98.8410 C.2     1  89P1       -0.0151
     19  C19      129.6710  156.7990   97.9020 C.2     1  89P1        0.0281
     20  C20      130.2430  155.8660   97.0500 C.2     1  89P1        0.1310
     21  N21      129.4650  155.2470   96.1390 N.2     1  89P1       -0.3952
     22  C22      129.9830  154.3350   95.2870 C.2     1  89P1        0.2107
     23  C23      131.3430  154.0150   95.3280 C.2     1  89P1        0.0390
     24  C24      132.1640  154.6490   96.2610 C.2     1  89P1        0.0051
     25  C25      131.6060  155.5850   97.1310 C.2     1  89P1        0.0260
     26  C26      132.3930  156.2380   98.0780 C.2     1  89P1       -0.0151
     27  C27      129.0490  153.7030   94.3010 C.2     1  89P1        0.4168
     28  O28      129.4270  152.8570   93.4960 O.co2   1  89P1       -0.2377
     29  O29      127.7850  154.1210   94.2930 O.co2   1  89P1       -0.2377
     30  C30      135.2720  160.2460  105.6690 C.ar    1  89P1        0.0419
     31  C31      135.8480  159.0100  105.8740 C.ar    1  89P1        0.0600
     32 CL32      137.5920  158.8110  105.5300 Cl      1  89P1       -0.0822
     33  C33      135.0860  157.9480  106.3490 C.ar    1  89P1        0.0115
     34  C34      133.7310  158.1290  106.6080 C.ar    1  89P1        0.0017
     35  C35      133.1450  159.3670  106.3920 C.ar    1  89P1        0.0115
     36  C36      133.9230  160.4170  105.9220 C.ar    1  89P1        0.0600
     37 CL37      133.1680  162.0090  105.6640 Cl      1  89P1       -0.0822
@<TRIPOS>BOND
     1    28    27   ar
     2    29    27   ar
     3    27    22    1
     4    22    23    1
     5    22    21    2
     6    23    24    2
     7    21    20    2
     8    24    25    1
     9    20    25    1
    10    20    19    1
    11    25    26    2
    12    19    18    2
    13    26    17    1
    14    18    17    1
    15    17    14    1
    16    14    13   ar
    17    14    15   ar
    18    13    12   ar
    19    15    16   ar
    20    12    11   ar
    21    16    11   ar
    22    11    10    1
    23     1     2    1
    24     2     3    1
    25     2     4    1
    26     9    10    1
    27     9     8    1
    28     4     8   ar
    29     4     5   ar
    30     8     7   ar
    31     5     6   ar
    32     7    30    1
    33     7     6   ar
    34    32    31    1
    35    37    36    1
    36    30    31   ar
    37    30    36   ar
    38    31    33   ar
    39    36    35   ar
    40    33    34   ar
    41    35    34   ar
