@<TRIPOS>MOLECULE
3p8e_LN7_A_1.pdb
 15 14 0 0 0
SMALL
GASTEIGER

@<TRIPOS>ATOM
      1  C        -28.6110   19.3240  -21.6370 C.2   286  LN7286      0.3819
      2  N        -26.9900   19.3210  -23.4910 N.3   286  LN7286     -0.1208
      3  CA       -27.1870   18.9410  -22.0730 C.3   286  LN7286      0.1944
      4  CB       -26.1860   19.6950  -21.1960 C.3   286  LN7286      0.0321
      5  CD       -25.2800   20.1170  -18.8760 C.3   286  LN7286      0.0903
      6  NE       -25.4480   19.7490  -17.4610 N.3   286  LN7286     -0.2009
      7  CG       -26.2970   19.3210  -19.7170 C.3   286  LN7286      0.0209
      8  CZ       -24.6450   20.5560  -16.5190 C.3   286  LN7286      0.1639
      9  OA1      -29.1200   18.6680  -20.6960 O.co2 286  LN7286     -0.2441
     10  OA2      -29.1490   20.2790  -22.2510 O.co2 286  LN7286     -0.2441
     11  CH1      -25.0280   22.0260  -16.7910 C.3   286  LN7286      0.0369
     12  NH2      -25.0130   20.0920  -15.1750 N.3   286  LN7286     -0.1137
     13  CI1      -26.7580   22.1310  -15.0760 C.3   286  LN7286      0.0001
     14  CK1      -25.8190   22.9920  -14.2230 C.3   286  LN7286      0.0000
     15  CT1      -26.4940   22.3720  -16.5560 C.3   286  LN7286      0.0030
@<TRIPOS>BOND
     1     2     3    1
     2    10     1   ar
     3     3     1    1
     4     3     4    1
     5     1     9   ar
     6     4     7    1
     7     7     5    1
     8     5     6    1
     9     6     8    1
    10    11    15    1
    11    11     8    1
    12    15    13    1
    13     8    12    1
    14    13    14    1
