@<TRIPOS>MOLECULE
3p8f_GSH_A_1.pdb
 20 19 0 0 0
SMALL
GASTEIGER

@<TRIPOS>ATOM
      1  N1       -31.6400  -23.7450  -28.3210 N.3   1001  GSH1001    -0.1208
      2  CA1      -31.0580  -24.8790  -28.9840 C.3   1001  GSH1001     0.1948
      3  C1       -31.4970  -26.0700  -28.2110 C.2   1001  GSH1001     0.3819
      4  O11      -30.9850  -27.1770  -28.4660 O.co2 1001  GSH1001    -0.2441
      5  O12      -32.3450  -25.8820  -27.3210 O.co2 1001  GSH1001    -0.2441
      6  CB1      -29.5570  -24.7530  -28.8350 C.3   1001  GSH1001     0.0402
      7  CG1      -29.2320  -24.2750  -27.4360 C.3   1001  GSH1001     0.0889
      8  CD1      -27.8180  -24.6350  -27.0670 C.2   1001  GSH1001     0.2418
      9  OE1      -27.1550  -25.4040  -27.7400 O.2   1001  GSH1001    -0.2733
     10  N2       -27.4020  -24.0650  -25.9590 N.am  1001  GSH1001    -0.1968
     11  CA2      -26.0770  -24.2470  -25.4330 C.3   1001  GSH1001     0.1843
     12  C2       -25.8430  -25.4910  -24.6360 C.2   1001  GSH1001     0.2627
     13  O2       -26.6390  -26.3780  -24.5430 O.2   1001  GSH1001    -0.2714
     14  CB2      -25.9730  -23.0020  -24.5860 C.3   1001  GSH1001     0.0997
     15  SG2      -26.8250  -23.1540  -23.0150 S.3   1001  GSH1001    -0.0797
     16  N3       -24.6940  -25.6030  -24.0310 N.am  1001  GSH1001    -0.1917
     17  CA3      -24.2760  -26.7130  -23.2180 C.3   1001  GSH1001     0.2285
     18  C3       -24.5350  -27.9830  -23.9370 C.2   1001  GSH1001     0.3865
     19  O31      -25.0140  -27.9210  -25.0480 O.co2 1001  GSH1001    -0.2437
     20  O32      -24.2600  -29.0540  -23.4040 O.co2 1001  GSH1001    -0.2437
@<TRIPOS>BOND
     1     2     6    1
     2     2     1    1
     3     2     3    1
     4     6     7    1
     5     4     3   ar
     6     3     5   ar
     7     9     8    2
     8     7     8    1
     9     8    10   am
    10    10    11    1
    11    11    12    1
    12    11    14    1
    13    19    18   ar
    14    12    13    2
    15    12    16   am
    16    14    15    1
    17    16    17    1
    18    18    20   ar
    19    18    17    1
