@<TRIPOS>MOLECULE
3p8g_GSH_A_1.pdb
 20 19 0 0 0
SMALL
GASTEIGER

@<TRIPOS>ATOM
      1  N1        14.9470   30.3300   -2.0400 N.3   1001  GSH1001    -0.1208
      2  CA1       13.8070   29.5740   -1.5390 C.3   1001  GSH1001     0.1948
      3  C1        12.6910   30.4450   -0.9600 C.2   1001  GSH1001     0.3819
      4  O11       11.4800   30.1490   -1.1960 O.co2 1001  GSH1001    -0.2441
      5  O12       12.9400   31.4760   -0.2490 O.co2 1001  GSH1001    -0.2441
      6  CB1       14.3250   28.4570   -0.6020 C.3   1001  GSH1001     0.0402
      7  CG1       15.3420   28.8110    0.5090 C.3   1001  GSH1001     0.0889
      8  CD1       15.2290   27.7970    1.6370 C.2   1001  GSH1001     0.2418
      9  OE1       14.8150   26.5110    1.3450 O.2   1001  GSH1001    -0.2733
     10  N2        15.5070   28.1960    2.8410 N.am  1001  GSH1001    -0.1968
     11  CA2       15.4330   27.3090    3.9590 C.3   1001  GSH1001     0.1843
     12  C2        14.4070   27.7860    4.9700 C.2   1001  GSH1001     0.2627
     13  O2        14.0190   29.0550    4.9360 O.2   1001  GSH1001    -0.2714
     14  CB2       16.8490   27.1700    4.6190 C.3   1001  GSH1001     0.0997
     15  SG2       17.4680   28.7080    5.3800 S.3   1001  GSH1001    -0.0797
     16  N3        13.9540   26.9600    5.8510 N.am  1001  GSH1001    -0.1917
     17  CA3       13.1810   27.3910    6.9750 C.3   1001  GSH1001     0.2285
     18  C3        11.7750   27.8310    6.7090 C.2   1001  GSH1001     0.3865
     19  O31       11.1950   27.5590    5.6180 O.co2 1001  GSH1001    -0.2437
     20  O32       11.2050   28.4010    7.6530 O.co2 1001  GSH1001    -0.2437
@<TRIPOS>BOND
     1     1     2    1
     2     2     3    1
     3     2     6    1
     4     4     3   ar
     5     3     5   ar
     6     6     7    1
     7     7     8    1
     8     9     8    2
     9     8    10   am
    10    10    11    1
    11    11    14    1
    12    11    12    1
    13    14    15    1
    14    13    12    2
    15    12    16   am
    16    19    18   ar
    17    16    17    1
    18    18    17    1
    19    18    20   ar
