@<TRIPOS>MOLECULE
3p8h_P8H_A_1.pdb
 20 22 0 0 0
SMALL
GASTEIGER

@<TRIPOS>ATOM
      1  C1        18.4210   27.8820  -12.6390 C.ar  600  P8H600      0.0539
      2  C2        17.3370   28.5990  -13.1270 C.ar  600  P8H600      0.1055
      3  N3        17.4940   29.8390  -13.5600 N.ar  600  P8H600     -0.2417
      4  C4        18.6820   30.4240  -13.5470 C.ar  600  P8H600      0.1034
      5  C5        19.8120   29.7530  -13.0760 C.ar  600  P8H600      0.0732
      6  C6        19.6890   28.4540  -12.6010 C.ar  600  P8H600      0.0143
      7  C7        21.1390   30.5030  -13.0970 C.2   600  P8H600      0.2505
      8 BR8        18.1370   26.1240  -12.0170 Br    600  P8H600     -0.0474
      9  O9        21.2760   31.4740  -12.3590 O.2   600  P8H600     -0.2699
     10  N10       22.1070   30.2190  -13.9780 N.am  600  P8H600     -0.2759
     11  C11       22.0140   29.0590  -14.8850 C.3   600  P8H600      0.0951
     12  C12       23.1390   28.1170  -14.4360 C.3   600  P8H600      0.0375
     13  C13       23.3850   30.9940  -13.9800 C.3   600  P8H600      0.0951
     14  C14       24.5610   30.0470  -13.6540 C.3   600  P8H600      0.0375
     15  C15       24.5250   28.7930  -14.5340 C.3   600  P8H600      0.0609
     16  N16       25.5730   27.8430  -14.1490 N.3   600  P8H600     -0.2738
     17  C17       25.7360   26.7830  -15.1690 C.3   600  P8H600      0.0721
     18  C18       27.1850   26.2870  -14.9970 C.3   600  P8H600      0.0188
     19  C19       27.8290   27.2760  -14.0290 C.3   600  P8H600      0.0188
     20  C20       26.9000   28.4810  -14.0800 C.3   600  P8H600      0.0721
@<TRIPOS>BOND
     1    17    18    1
     2    17    16    1
     3    18    19    1
     4    11    12    1
     5    11    10    1
     6    15    12    1
     7    15    16    1
     8    15    14    1
     9    16    20    1
    10    20    19    1
    11    13    10    1
    12    13    14    1
    13    10     7   am
    14     3     4   ar
    15     3     2   ar
    16     4     5   ar
    17     2     1   ar
    18     7     5    1
    19     7     9    2
    20     5     6   ar
    21     1     6   ar
    22     1     8    1
