@<TRIPOS>MOLECULE
3p8i_FMN_A_1.pdb
 31 33 0 0 0
SMALL
GASTEIGER

@<TRIPOS>ATOM
      1  N1        21.5300    7.7450   24.3080 N.2   401  FMN401     -0.2887
      2  C2        20.8030    6.6300   24.0520 C.1   401  FMN401      0.3669
      3  O2        19.8730    6.2890   24.8260 O.2   401  FMN401     -0.1744
      4  N3        21.0820    5.8450   22.9740 N.2   401  FMN401     -0.2300
      5  C4        22.0480    6.1440   22.0760 C.1   401  FMN401      0.2513
      6  O4        22.2710    5.3470   21.1120 O.2   401  FMN401     -0.2057
      7  C4A       22.7740    7.3380   22.2800 C.2   401  FMN401      0.2703
      8  N5        23.7560    7.7230   21.4030 N.2   401  FMN401     -0.3882
      9  C5A       24.5690    8.7790   21.7460 C.2   401  FMN401      0.1277
     10  C6        25.6640    9.0670   20.9300 C.3   401  FMN401      0.0820
     11  C7        26.5650   10.0990   21.2510 C.2   401  FMN401     -0.0408
     12  C7M       27.7450   10.3910   20.3400 C.3   401  FMN401      0.0265
     13  C8        26.3800   10.7980   22.4440 C.2   401  FMN401     -0.0280
     14  C8M       27.3380   11.9010   22.8490 C.3   401  FMN401      0.0304
     15  C9        25.3000   10.4960   23.2690 C.2   401  FMN401      0.0123
     16  C9A       24.3770    9.4650   22.9530 C.2   401  FMN401      0.0793
     17  N10       23.3180    9.1400   23.7540 N.pl3 401  FMN401     -0.2545
     18  C10       22.5240    8.0790   23.4480 C.2   401  FMN401      0.2449
     19  C1'       23.2480    9.6820   25.1390 C.3   401  FMN401      0.1336
     20  C2'       24.2760    9.0050   26.0550 C.3   401  FMN401      0.2048
     21  O2'       23.8640    7.6690   26.3510 O.3   401  FMN401     -0.2185
     22  C3'       24.4530    9.7410   27.3830 C.3   401  FMN401      0.2165
     23  O3'       23.2320    9.6540   28.1320 O.3   401  FMN401     -0.2175
     24  C4'       24.8830   11.2230   27.2160 C.3   401  FMN401      0.2147
     25  O4'       26.0670   11.2380   26.3970 O.3   401  FMN401     -0.2176
     26  C5'       25.0830   12.0160   28.5010 C.3   401  FMN401      0.1892
     27  O5'       26.0860   11.3910   29.2950 O.3   401  FMN401     -0.2674
     28  P         27.6920   11.8780   29.3380 P.3   401  FMN401      0.5327
     29  O1P       28.2340   11.7470   27.9220 O.2   401  FMN401     -0.2224
     30  O2P       27.7470   13.2850   29.8460 O.3   401  FMN401     -0.1145
     31  O3P       28.2460   10.8540   30.3020 O.3   401  FMN401     -0.1145
@<TRIPOS>BOND
     1    12    11    1
     2    10    11    1
     3    10     9    1
     4     6     5    2
     5    11    13    2
     6     8     9    2
     7     8     7    2
     8     9    16    1
     9     5     7    1
    10     5     4    2
    11     7    18    1
    12    13    14    1
    13    13    15    1
    14    16    15    2
    15    16    17    1
    16     4     2    2
    17    18    17    1
    18    18     1    2
    19    17    19    1
    20     2     1    2
    21     2     3    2
    22    19    20    1
    23    20    21    1
    24    20    22    1
    25    25    24    1
    26    24    22    1
    27    24    26    1
    28    22    23    1
    29    29    28    2
    30    26    27    1
    31    27    28    1
    32    28    30    1
    33    28    31    1
