@<TRIPOS>MOLECULE
3p8j_FMN_A_1.pdb
 31 33 0 0 0
SMALL
GASTEIGER

@<TRIPOS>ATOM
      1  N1        21.2690    8.3020   23.7250 N.2   401  FMN401     -0.2890
      2  C2        20.6190    7.1460   23.5030 C.1   401  FMN401      0.3669
      3  O2        19.6960    6.7580   24.2630 O.2   401  FMN401     -0.1744
      4  N3        20.9980    6.3410   22.4560 N.2   401  FMN401     -0.2300
      5  C4        21.9730    6.6750   21.5600 C.1   401  FMN401      0.2513
      6  O4        22.3060    5.8530   20.6430 O.2   401  FMN401     -0.2057
      7  C4A       22.6150    7.9070   21.7600 C.2   401  FMN401      0.2700
      8  N5        23.5750    8.3410   20.8990 N.2   401  FMN401     -0.3878
      9  C5A       24.2990    9.4700   21.1910 C.2   401  FMN401      0.1320
     10  C6        25.3520    9.8470   20.3600 C.2   401  FMN401      0.0250
     11  C7        26.1330   10.9720   20.6400 C.2   401  FMN401     -0.0238
     12  C7M       27.2750   11.3530   19.7280 C.3   401  FMN401      0.0308
     13  C8        25.8530   11.7170   21.7810 C.2   401  FMN401     -0.0280
     14  C8M       26.6610   12.9510   22.0970 C.3   401  FMN401      0.0304
     15  C9        24.8130   11.3540   22.6210 C.2   401  FMN401     -0.0041
     16  C9A       24.0360   10.2150   22.3620 C.3   401  FMN401      0.1497
     17  N10       22.9250    9.8630   23.1720 N.pl3 401  FMN401     -0.2691
     18  C10       22.2620    8.6640   22.9040 C.2   401  FMN401      0.2416
     19  C1'       22.7970   10.5510   24.4570 C.3   401  FMN401      0.1294
     20  C2'       23.8540   10.0240   25.4350 C.3   401  FMN401      0.2044
     21  O2'       23.6060    8.6290   25.8220 O.3   401  FMN401     -0.2185
     22  C3'       23.8420   10.8600   26.7250 C.3   401  FMN401      0.2164
     23  O3'       22.5680   10.6890   27.3950 O.3   401  FMN401     -0.2175
     24  C4'       24.1180   12.3590   26.4140 C.3   401  FMN401      0.2147
     25  O4'       25.2890   12.4600   25.5870 O.3   401  FMN401     -0.2176
     26  C5'       24.2570   13.2410   27.6750 C.3   401  FMN401      0.1892
     27  O5'       25.2390   12.6520   28.5610 O.3   401  FMN401     -0.2674
     28  P         26.7630   13.1970   28.6210 P.3   401  FMN401      0.5327
     29  O1P       27.3110   13.0620   27.2070 O.2   401  FMN401     -0.2224
     30  O2P       26.6450   14.6240   29.1430 O.3   401  FMN401     -0.1145
     31  O3P       27.3900   12.2280   29.6170 O.3   401  FMN401     -0.1145
@<TRIPOS>BOND
     1    12    11    1
     2    10    11    2
     3    10     9    1
     4    11    13    1
     5     6     5    2
     6     8     9    2
     7     8     7    2
     8     9    16    1
     9     5     7    1
    10     5     4    2
    11     7    18    1
    12    13    14    1
    13    13    15    2
    14    16    15    1
    15    16    17    1
    16     4     2    2
    17    18    17    1
    18    18     1    2
    19    17    19    1
    20     2     1    2
    21     2     3    2
    22    19    20    1
    23    20    21    1
    24    20    22    1
    25    25    24    1
    26    24    22    1
    27    24    26    1
    28    22    23    1
    29    29    28    2
    30    26    27    1
    31    27    28    1
    32    28    30    1
    33    28    31    1
