@<TRIPOS>MOLECULE
3p8p_LN6_A_1.pdb
 15 14 0 0 0
SMALL
GASTEIGER

@<TRIPOS>ATOM
      1  C         -5.0290   -2.1700   21.6250 C.2   286  LN6286      0.3819
      2  N         -3.3510   -2.3420   23.3930 N.3   286  LN6286     -0.1208
      3  CA        -3.5890   -1.8460   22.0300 C.3   286  LN6286      0.1945
      4  CB        -2.6060   -2.5130   21.0650 C.3   286  LN6286      0.0350
      5  CD        -1.5010   -2.3580   18.7970 C.3   286  LN6286      0.2510
      6  NE        -1.7530   -3.7240   18.3140 N.pl3 286  LN6286     -0.0316
      7  CG        -2.6410   -1.8530   19.6850 C.3   286  LN6286      0.0574
      8  CZ        -2.7150   -3.9780   17.4310 C.2   286  LN6286      0.3895
      9  OA1       -5.4610   -1.6510   20.5730 O.co2 286  LN6286     -0.2441
     10  OA2       -5.6710   -2.9270   22.3840 O.co2 286  LN6286     -0.2441
     11  CH1       -2.9470   -5.4120   16.9510 C.3   286  LN6286      0.1259
     12  NH2       -3.4450   -2.9860   16.9280 N.2   286  LN6286      0.1917
     13  CI1       -1.5290   -5.0880   14.8910 C.3   286  LN6286      0.0006
     14  CK1       -0.3490   -5.6200   14.0740 C.3   286  LN6286      0.0000
     15  CT1       -1.7490   -5.9280   16.1510 C.3   286  LN6286      0.0130
@<TRIPOS>BOND
     1    14    13    1
     2    13    15    1
     3    15    11    1
     4    12     8    2
     5    11     8    1
     6     8     6    1
     7     6     5    1
     8     5     7    1
     9     7     4    1
    10     9     1   ar
    11     4     3    1
    12     1     3    1
    13     1    10   ar
    14     3     2    1
