@<TRIPOS>MOLECULE
3p8x_ZYD_A_1.pdb
 30 32 0 0 0
SMALL
GASTEIGER

@<TRIPOS>ATOM
      1  C1        13.9920   17.6170   35.1990 C.3     1  ZYD1        0.1765
      2  O1        13.0000   17.0580   36.0760 O.3     1  ZYD1       -0.2182
      3  C2        14.6190   16.5270   34.2810 C.3     1  ZYD1        0.0707
      4  O2        16.7730   17.7120   34.1540 O.3     1  ZYD1       -0.2227
      5  C3        15.7110   17.1730   33.3430 C.3     1  ZYD1        0.1592
      6  O3         4.3580   26.3260   34.5510 O.3     1  ZYD1       -0.2257
      7  C4        15.1090   18.3240   32.4430 C.3     1  ZYD1        0.0591
      8  C5        14.3110   19.3320   33.3120 C.2     1  ZYD1       -0.0213
      9  C6        14.4980   20.6640   33.1200 C.2     1  ZYD1       -0.0051
     10  C7        13.8070   21.7710   33.9100 C.2     1  ZYD1       -0.0088
     11  C8        13.6400   23.0180   33.4180 C.2     1  ZYD1       -0.0446
     12  C9        14.1230   23.4110   32.0000 C.3     1  ZYD1        0.0220
     13  C10       13.3770   18.7030   34.3380 C.2     1  ZYD1        0.0039
     14  C11       12.9760   24.1620   31.2290 C.3     1  ZYD1        0.0044
     15  C12       12.2450   25.2680   32.0990 C.3     1  ZYD1        0.0006
     16  C13       11.7530   24.7250   33.5040 C.3     1  ZYD1        0.0034
     17  C14       12.9550   24.1390   34.2340 C.3     1  ZYD1        0.0183
     18  C15       12.4460   23.7710   35.6450 C.3     1  ZYD1        0.0040
     19  C16       11.3560   24.8860   35.8890 C.3     1  ZYD1        0.0003
     20  C17       11.2940   25.7430   34.5560 C.3     1  ZYD1        0.0003
     21  C18       10.6100   23.6280   33.2880 C.3     1  ZYD1        0.0003
     22  C19       12.0730   19.0410   34.4410 C.2     1  ZYD1       -0.0024
     23  C20        9.5820   23.9960   32.1730 C.3     1  ZYD1        0.0000
     24  C21        8.3490   24.6760   32.7870 C.3     1  ZYD1        0.0000
     25  C22        7.2130   24.7470   31.7440 C.3     1  ZYD1        0.0001
     26  C23        5.9890   25.4320   32.3830 C.3     1  ZYD1        0.0025
     27  C24        5.2360   24.4210   33.2820 C.3     1  ZYD1        0.0304
     28  C25        4.0060   25.0640   33.9660 C.3     1  ZYD1        0.1268
     29  C26        2.8640   25.2650   32.9470 C.3     1  ZYD1        0.0329
     30  C27        3.5320   24.1180   35.0770 C.3     1  ZYD1        0.0329
@<TRIPOS>BOND
     1    14    12    1
     2    14    15    1
     3    25    26    1
     4    25    24    1
     5    12    11    1
     6    15    16    1
     7    23    24    1
     8    23    21    1
     9    26    27    1
    10     7     8    1
    11     7     5    1
    12    29    28    1
    13     9     8    2
    14     9    10    1
    15    27    28    1
    16    21    16    1
    17     8    13    1
    18     5     4    1
    19     5     3    1
    20    11    10    2
    21    11    17    1
    22    16    17    1
    23    16    20    1
    24    28     6    1
    25    28    30    1
    26    17    18    1
    27     3     1    1
    28    13    22    2
    29    13     1    1
    30    20    19    1
    31     1     2    1
    32    18    19    1
