@<TRIPOS>MOLECULE
3p8z_36A_A_1.pdb
 34 37 0 0 0
SMALL
GASTEIGER

@<TRIPOS>ATOM
      1  C          8.2150   -7.5260   45.5840 C.2   263  36A263      0.3819
      2  N          7.0820   -7.6340   43.3640 N.3   263  36A263     -0.1208
      3  O          8.6460   -6.9080   46.5750 O.co2 263  36A263     -0.2441
      4  N1         7.1850    2.4740   37.2930 N.2   263  36A263     -0.0020
      5  C2         7.9810    1.7720   38.1210 C.3   263  36A263      0.5253
      6  N3         7.5150    1.2590   39.2740 N.2   263  36A263     -0.0055
      7  C4         6.2110    1.4640   39.6190 C.2   263  36A263      0.3517
      8  C5         5.3570    2.1970   38.8090 C.2   263  36A263      0.2478
      9  C6         5.8850    2.7360   37.6060 C.2   263  36A263      0.3858
     10  N6         5.1770    3.4590   36.7090 N.pl3 263  36A263     -0.0249
     11  N7         4.1320    2.2150   39.4190 N.2   263  36A263     -0.2097
     12  C8         4.2570    1.5130   40.5870 C.3   263  36A263      0.3377
     13  N9         5.5270    1.0710   40.7070 N.pl3 263  36A263     -0.1439
     14  CA         7.5680   -6.7660   44.4350 C.3   263  36A263      0.1952
     15  CB         6.3830   -5.9280   44.9780 C.3   263  36A263      0.0422
     16  CD         4.5940   -2.8250   42.7950 C.3   263  36A263      0.0899
     17  SD         4.6950   -3.8670   44.2360 S.3   263  36A263     -0.1375
     18  CG         6.1670   -4.8060   43.9890 C.3   263  36A263      0.0597
     19  C1'        6.1030    0.2610   41.7870 C.3   263  36A263      0.3185
     20  C2'        5.5450    0.5750   43.1950 C.3   263  36A263      0.2569
     21  O2'        6.2530    1.5800   43.9160 O.3   263  36A263     -0.2130
     22  C27        3.8470    3.9650   36.9360 C.3   263  36A263      0.2778
     23  C28        2.8030    3.1490   36.2170 C.ar  263  36A263      0.0294
     24  C29        3.0770    2.6400   34.9400 C.ar  263  36A263      0.0112
     25  C3'        5.6470   -0.7700   43.9120 C.3   263  36A263      0.2168
     26  O3'        6.8650   -0.8430   44.6560 O.3   263  36A263     -0.2175
     27  C30        2.1020    1.9120   34.2890 C.ar  263  36A263      0.0575
     28  C31        0.8460    1.6820   34.8640 C.ar  263  36A263      0.0114
     29  C32        0.5770    2.1880   36.1400 C.ar  263  36A263      0.0007
     30  C33        1.5450    2.9340   36.8140 C.ar  263  36A263     -0.0001
     31 CL34        2.4850    1.2730   32.6900 Cl    263  36A263     -0.0823
     32  C4'        5.7000   -1.7910   42.7750 C.3   263  36A263      0.1630
     33  O4'        5.6320   -1.0710   41.5290 O.3   263  36A263     -0.3153
     34  OXT        8.3300   -8.7950   45.5470 O.co2 263  36A263     -0.2441
@<TRIPOS>BOND
     1    31    27    1
     2    27    28   ar
     3    27    24   ar
     4    28    29   ar
     5    24    23   ar
     6    29    30   ar
     7    23    30   ar
     8    23    22    1
     9    10    22    1
    10    10     9    1
    11     4     9    2
    12     4     5    1
    13     9     8    1
    14     5     6    1
    15     8    11    2
    16     8     7    1
    17     6     7    2
    18    11    12    1
    19     7    13    1
    20    12    13    1
    21    13    19    1
    22    33    19    1
    23    33    32    1
    24    19    20    1
    25    32    16    1
    26    32    25    1
    27    16    17    1
    28    20    25    1
    29    20    21    1
    30     2    14    1
    31    25    26    1
    32    18    17    1
    33    18    15    1
    34    14    15    1
    35    14     1    1
    36    34     1   ar
    37     1     3   ar
