@<TRIPOS>MOLECULE
3p8z_SAH_C_1.pdb
 26 28 0 0 0
SMALL
GASTEIGER

@<TRIPOS>ATOM
      1  N         16.3550   17.6510   10.9440 N.3   263  SAH263     -0.1208
      2  CA        16.9490   18.5650    9.9060 C.3   263  SAH263      0.1952
      3  CB        15.8520   18.9500    8.9270 C.3   263  SAH263      0.0422
      4  CG        15.4640   17.6950    8.1640 C.3   263  SAH263      0.0597
      5  SD        14.4570   18.0930    6.7350 S.3   263  SAH263     -0.1375
      6  C         17.5760   19.8050   10.5250 C.2   263  SAH263      0.3819
      7  O         18.0230   20.7390    9.8190 O.co2 263  SAH263     -0.2441
      8  OXT       17.6200   19.9080   11.7700 O.co2 263  SAH263     -0.2441
      9  C5'       14.4470   16.4330    6.0280 C.3   263  SAH263      0.0899
     10  C4'       15.4570   16.2390    4.8970 C.3   263  SAH263      0.1630
     11  O4'       15.3160   14.9240    4.3840 O.3   263  SAH263     -0.3153
     12  C3'       15.3210   17.1980    3.7190 C.3   263  SAH263      0.2168
     13  O3'       16.4460   18.0510    3.6830 O.3   263  SAH263     -0.2175
     14  C2'       15.2930   16.2860    2.4980 C.3   263  SAH263      0.2569
     15  O2'       16.0770   16.7300    1.3970 O.3   263  SAH263     -0.2130
     16  C1'       15.7950   14.9640    3.0460 C.3   263  SAH263      0.3185
     17  N9        15.2320   13.7960    2.3570 N.pl3 263  SAH263     -0.1439
     18  C8        13.9570   13.6420    1.8560 C.3   263  SAH263      0.3377
     19  N7        13.8690   12.3930    1.3270 N.2   263  SAH263     -0.2095
     20  C5        15.0550   11.7570    1.4900 C.2   263  SAH263      0.2526
     21  C6        15.5020   10.4850    1.1550 C.2   263  SAH263      0.4393
     22  N6        14.6940    9.6120    0.5230 N.pl3 263  SAH263      0.2180
     23  N1        16.7990   10.1110    1.4980 N.2   263  SAH263      0.0021
     24  C2        17.6260   11.0140    2.1380 C.3   263  SAH263      0.5254
     25  N3        17.1730   12.2750    2.4650 N.2   263  SAH263     -0.0055
     26  C4        15.9130   12.6450    2.1520 C.2   263  SAH263      0.3518
@<TRIPOS>BOND
     1    22    21    1
     2    21    20    1
     3    21    23    2
     4    19    20    2
     5    19    18    1
     6    15    14    1
     7    20    26    1
     8    23    24    1
     9    18    17    1
    10    24    25    1
    11    26    17    1
    12    26    25    2
    13    17    16    1
    14    14    16    1
    15    14    12    1
    16    16    11    1
    17    13    12    1
    18    12    10    1
    19    11    10    1
    20    10     9    1
    21     9     5    1
    22     5     4    1
    23     4     3    1
    24     3     2    1
    25     7     6   ar
    26     2     6    1
    27     2     1    1
    28     6     8   ar
