@<TRIPOS>MOLECULE
3p93_KDG_C_1.pdb
 12 11 0 0 0
SMALL
GASTEIGER

@<TRIPOS>ATOM
      1  O1B      -50.8870   25.4730   78.4330 O.3   407  KDG407     -0.2175
      2  C1       -49.7300   24.8660   79.0260 C.3   407  KDG407      0.2174
      3  C2       -50.2010   23.9850   80.1920 C.3   407  KDG407      0.2153
      4  O2       -51.3110   23.2260   79.7330 O.3   407  KDG407     -0.2176
      5  C3       -49.1560   22.9770   80.6800 C.3   407  KDG407      0.1927
      6  O3       -48.2740   23.5840   81.6160 O.3   407  KDG407     -0.2198
      7  C4       -49.9420   21.8970   81.4150 C.3   407  KDG407      0.1118
      8  O5       -47.9400   20.5690   81.4120 O.2   407  KDG407     -0.2842
      9  C5       -49.1510   20.6370   81.6610 C.2   407  KDG407      0.2546
     10  C6       -49.9680   19.5130   82.2230 C.2   407  KDG407      0.4219
     11  O6A      -49.6460   18.2120   82.1150 O.co2 407  KDG407     -0.2373
     12  O6B      -50.9880   19.7820   82.8110 O.co2 407  KDG407     -0.2373
@<TRIPOS>BOND
     1     1     2    1
     2     2     3    1
     3     4     3    1
     4     3     5    1
     5     5     7    1
     6     5     6    1
     7     8     9    2
     8     7     9    1
     9     9    10    1
    10    11    10   ar
    11    10    12   ar
