@<TRIPOS>MOLECULE
3p93_CS2_A_1.pdb
 13 12 0 0 0
SMALL
GASTEIGER

@<TRIPOS>ATOM
      1  C2       -15.9780  -27.2720   40.8440 C.3   407  CS2407      0.2865
      2  C3       -15.3530  -28.5230   41.4770 C.3   407  CS2407      0.2260
      3  O1A      -17.7000  -28.8240   40.0850 O.co2 407  CS2407     -0.2427
      4  C1       -17.4290  -27.6120   40.5720 C.2   407  CS2407      0.3973
      5  O1B      -18.3490  -26.8400   40.7630 O.co2 407  CS2407     -0.2427
      6  O2       -15.8140  -26.0970   41.6630 O.3   407  CS2407     -0.2080
      7  O3       -15.0320  -29.4500   40.4280 O.3   407  CS2407     -0.2169
      8  C4       -14.0940  -28.2070   42.2980 C.3   407  CS2407      0.2180
      9  O4       -13.1460  -27.5800   41.4490 O.3   407  CS2407     -0.2175
     10  C5       -13.5300  -29.5240   42.8220 C.3   407  CS2407      0.2175
     11  O5       -14.6410  -30.3350   43.1660 O.3   407  CS2407     -0.2175
     12  C6       -12.6660  -29.3260   44.0730 C.3   407  CS2407      0.2175
     13  O6       -12.3550  -30.6010   44.6580 O.3   407  CS2407     -0.2175
@<TRIPOS>BOND
     1     3     4   ar
     2     7     2    1
     3     4     5   ar
     4     4     1    1
     5     1     2    1
     6     1     6    1
     7     9     8    1
     8     2     8    1
     9     8    10    1
    10    10    11    1
    11    10    12    1
    12    12    13    1
