@<TRIPOS>MOLECULE
3p97_SAM_A_1.pdb
 27 29 0 0 0
SMALL
GASTEIGER

@<TRIPOS>ATOM
      1  N          6.9870   -7.4590   43.6400 N.3   263  SAM263     -0.1208
      2  CA         7.4760   -6.5400   44.7120 C.3   263  SAM263      0.1952
      3  C          8.1500   -7.3090   45.8390 C.2   263  SAM263      0.3819
      4  O          8.2630   -8.5380   45.7360 O.co2 263  SAM263     -0.2441
      5  OXT        8.6110   -6.7440   46.8340 O.co2 263  SAM263     -0.2441
      6  CB         6.2880   -5.7190   45.2190 C.3   263  SAM263      0.0414
      7  CG         5.8520   -4.7990   44.0730 C.3   263  SAM263      0.0503
      8  SD         4.6440   -3.5530   44.5820 S.3   263  SAM263     -0.1761
      9  CE         3.0850   -4.4760   44.5450 C.3   263  SAM263      0.0590
     10  C5'        4.5280   -2.5440   43.0880 C.3   263  SAM263      0.0806
     11  C4'        5.6750   -1.5570   43.0450 C.3   263  SAM263      0.1622
     12  O4'        5.4810   -0.8620   41.8470 O.3   263  SAM263     -0.3153
     13  C3'        5.6750   -0.4950   44.1640 C.3   263  SAM263      0.2168
     14  O3'        6.9130   -0.5130   44.8520 O.3   263  SAM263     -0.2175
     15  C2'        5.5190    0.8270   43.4360 C.3   263  SAM263      0.2569
     16  O2'        6.2890    1.8550   44.0070 O.3   263  SAM263     -0.2130
     17  C1'        5.9730    0.4520   42.0220 C.3   263  SAM263      0.3185
     18  N9         5.4080    1.2870   40.9680 N.pl3 263  SAM263     -0.1439
     19  C8         4.1110    1.7570   40.8490 C.3   263  SAM263      0.3377
     20  N7         4.0260    2.4780   39.6950 N.2   263  SAM263     -0.2095
     21  C5         5.2280    2.4370   39.0610 C.2   263  SAM263      0.2526
     22  C6         5.6950    2.9950   37.8450 C.2   263  SAM263      0.4393
     23  N6         4.8930    3.7180   37.0450 N.pl3 263  SAM263      0.2180
     24  N1         7.0110    2.7620   37.4780 N.2   263  SAM263      0.0021
     25  C2         7.8480    2.0010   38.2740 C.3   263  SAM263      0.5254
     26  N3         7.3930    1.4740   39.4730 N.2   263  SAM263     -0.0055
     27  C4         6.0980    1.6820   39.8450 C.2   263  SAM263      0.3518
@<TRIPOS>BOND
     1    23    22    1
     2    24    22    2
     3    24    25    1
     4    22    21    1
     5    25    26    1
     6    21    20    2
     7    21    27    1
     8    26    27    2
     9    20    19    1
    10    27    18    1
    11    19    18    1
    12    18    17    1
    13    12    17    1
    14    12    11    1
    15    17    15    1
    16    11    10    1
    17    11    13    1
    18    10     8    1
    19    15    16    1
    20    15    13    1
    21     1     2    1
    22     7     8    1
    23     7     6    1
    24    13    14    1
    25     9     8    1
    26     2     6    1
    27     2     3    1
    28     4     3   ar
    29     3     5   ar
