@<TRIPOS>MOLECULE
3p98_CIT_A_1.pdb
 13 12 0 0 0
SMALL
GASTEIGER

@<TRIPOS>ATOM
      1  C1        17.8730   -7.9170  -19.1790 C.2     1  CIT1        0.3680
      2  O1        17.3460   -8.9790  -18.7970 O.co2   1  CIT1       -0.2455
      3  O2        17.2450   -7.1410  -19.9130 O.co2   1  CIT1       -0.2455
      4  C2        19.3120   -7.5860  -18.7850 C.3     1  CIT1        0.1560
      5  C3        19.4380   -6.7610  -17.5030 C.3     1  CIT1        0.2402
      6  O7        18.2140   -6.0630  -17.2870 O.3     1  CIT1       -0.2129
      7  C4        20.6070   -5.7390  -17.5950 C.3     1  CIT1        0.1560
      8  C5        20.2660   -4.2590  -17.8510 C.2     1  CIT1        0.3680
      9  O3        21.1580   -3.5110  -18.3290 O.co2   1  CIT1       -0.2455
     10  O4        19.1350   -3.7960  -17.5740 O.co2   1  CIT1       -0.2455
     11  C6        19.6180   -7.7410  -16.3520 C.2     1  CIT1        0.3927
     12  O5        20.1020   -7.3100  -15.2820 O.co2   1  CIT1       -0.2429
     13  O6        19.2850   -8.9510  -16.4840 O.co2   1  CIT1       -0.2429
@<TRIPOS>BOND
     1     3     1   ar
     2     1     2   ar
     3     1     4    1
     4     4     5    1
     5     9     8   ar
     6     8     7    1
     7     8    10   ar
     8     7     5    1
     9     5     6    1
    10     5    11    1
    11    13    11   ar
    12    11    12   ar
