@<TRIPOS>MOLECULE
3p99_LNP_A_1.pdb
 34 38 0 0 0
SMALL
GASTEIGER

@<TRIPOS>ATOM
      1  CAA       11.2740   20.0500  -35.1650 C.3   490  LNP490      0.0000
      2  CAB       12.3440   18.9550  -35.3040 C.3   490  LNP490      0.0003
      3  CAC       13.6840   19.4560  -34.8400 C.3   490  LNP490      0.0037
      4  CAD       13.6870   20.4480  -33.7080 C.3   490  LNP490      0.0180
      5  CAE       12.3890   20.2860  -32.9520 C.3   490  LNP490      0.0034
      6  CAF       11.2560   20.7900  -33.8240 C.3   490  LNP490      0.0003
      7  CAG       12.3640   18.5070  -36.7640 C.3   490  LNP490      0.0002
      8  CAH       13.6230   17.7240  -37.1810 C.3   490  LNP490      0.0024
      9  CAI       14.7740   17.7120  -36.1670 C.3   490  LNP490      0.0001
     10  CAJ       14.8080   19.0270  -35.4250 C.3   490  LNP490      0.0003
     11  CAK       12.1200   19.7330  -37.6170 C.3   490  LNP490      0.0026
     12  CAL       12.0250   19.2750  -39.0560 C.3   490  LNP490      0.0329
     13  CAM       13.4320   18.9210  -39.5080 C.3   490  LNP490      0.1519
     14  CAN       14.1430   17.8970  -38.6290 C.3   490  LNP490      0.0282
     15  CAO       14.7440   20.2510  -32.6320 C.3   490  LNP490      0.0040
     16  CAP       14.1060   20.8230  -31.3610 C.3   490  LNP490      0.0003
     17  CAQ       12.6290   21.0640  -31.6670 C.3   490  LNP490      0.0003
     18  CAR       13.8540   21.8360  -34.2740 C.2   490  LNP490     -0.0352
     19  CAS       12.1620   18.8200  -32.6040 C.3   490  LNP490      0.0003
     20  CAT       11.1780   17.5710  -36.9360 C.3   490  LNP490      0.0000
     21  CAV       11.7230   20.6130  -30.5260 C.3   490  LNP490      0.0000
     22  CAW       15.6060   18.3100  -38.5450 C.3   490  LNP490      0.0025
     23  CAX       14.0440   16.5370  -39.3080 C.3   490  LNP490      0.0025
     24  CAY       10.2570   20.6450  -30.9450 C.3   490  LNP490      0.0000
     25  CAZ       11.9470   21.4740  -29.2870 C.3   490  LNP490      0.0000
     26  CBA       10.8310   21.2820  -28.2640 C.3   490  LNP490      0.0000
     27  CBB       11.3920   21.1310  -26.8540 C.3   490  LNP490      0.0000
     28  CBC       10.5270   21.8530  -25.8240 C.3   490  LNP490      0.0000
     29  CBD        9.0700   21.4160  -25.9230 C.3   490  LNP490      0.0000
     30  CBE       11.0610   21.6440  -24.4120 C.3   490  LNP490      0.0000
     31  CBF       14.9250   22.1040  -35.0340 C.2   490  LNP490     -0.0479
     32  CBG       15.6870   23.0930  -35.8370 C.3   490  LNP490      0.0260
     33  CBH       16.1790   21.6120  -35.6580 C.3   490  LNP490      0.0260
     34  OBH       13.3880   18.4260  -40.8530 O.3   490  LNP490     -0.2232
@<TRIPOS>BOND
     1    34    13    1
     2    13    12    1
     3    13    14    1
     4    23    14    1
     5    12    11    1
     6    14    22    1
     7    14     8    1
     8    11     7    1
     9     8     7    1
    10     8     9    1
    11    20     7    1
    12     7     2    1
    13     9    10    1
    14    32    33    1
    15    32    31    1
    16    33    31    1
    17    10     3    1
    18     2     1    1
    19     2     3    1
    20     1     6    1
    21    31    18    2
    22     3     4    1
    23    18     4    1
    24     6     5    1
    25     4     5    1
    26     4    15    1
    27     5    19    1
    28     5    17    1
    29    15    16    1
    30    17    16    1
    31    17    21    1
    32    24    21    1
    33    21    25    1
    34    25    26    1
    35    26    27    1
    36    27    28    1
    37    29    28    1
    38    28    30    1
