@<TRIPOS>MOLECULE
3p99_HEM_A_1.pdb
 43 50 0 0 0
SMALL
GASTEIGER

@<TRIPOS>ATOM
      1  CHA       11.1580   25.4210  -34.3640 C.2   482  HEM482      0.0000
      2  CHB       14.5610   26.7230  -37.5960 C.2   482  HEM482      0.0000
      3  CHC       17.5890   27.8710  -33.9710 C.2   482  HEM482      0.0000
      4  CHD       14.2070   26.5860  -30.7180 C.2   482  HEM482      0.0000
      5  C1A       11.8170   25.6720  -35.5490 C.ar  482  HEM482      0.0000
      6  C2A       11.2790   25.4630  -36.8780 C.ar  482  HEM482      0.0000
      7  C3A       12.2100   25.8230  -37.7650 C.ar  482  HEM482      0.0000
      8  C4A       13.3810   26.2710  -37.0360 C.ar  482  HEM482      0.0000
      9  CMA       12.0690   25.7670  -39.3030 C.3   482  HEM482      0.0000
     10  CAA        9.8700   24.9250  -37.2100 C.3   482  HEM482      0.0000
     11  CBA        9.8460   23.4060  -37.0880 C.3   482  HEM482      0.0000
     12  CGA        8.6800   22.8680  -37.8760 C.2   482  HEM482      0.0000
     13  O1A        7.9330   23.6890  -38.4680 O.co2 482  HEM482      0.0000
     14  O2A        8.4970   21.6230  -37.9150 O.co2 482  HEM482      0.0000
     15  C1B       15.6760   27.1470  -36.9070 C.2   482  HEM482      0.0000
     16  C2B       16.9170   27.6220  -37.4890 C.2   482  HEM482      0.0000
     17  C3B       17.7490   27.9370  -36.4930 C.2   482  HEM482      0.0000
     18  C4B       17.0740   27.6750  -35.2360 C.2   482  HEM482      0.0000
     19  CMB       17.2290   27.7440  -38.9960 C.3   482  HEM482      0.0000
     20  CAB       19.1830   28.4850  -36.6580 C.2   482  HEM482      0.0000
     21  CBB       19.4300   29.4820  -37.5150 C.2   482  HEM482      0.0000
     22  C1C       16.9490   27.5950  -32.7780 C.ar  482  HEM482      0.0000
     23  C2C       17.5220   27.7020  -31.4470 C.ar  482  HEM482      0.0000
     24  C3C       16.5850   27.3500  -30.5610 C.ar  482  HEM482      0.0000
     25  C4C       15.3860   27.0040  -31.2890 C.ar  482  HEM482      0.0000
     26  CMC       18.9610   28.1500  -31.1160 C.3   482  HEM482      0.0000
     27  CAC       16.7210   27.3060  -29.0230 C.2   482  HEM482      0.0000
     28  CBC       17.9230   27.4350  -28.4490 C.2   482  HEM482      0.0000
     29  C1D       13.0990   26.1050  -31.3750 C.2   482  HEM482      0.0000
     30  C2D       11.9500   25.5050  -30.7300 C.2   482  HEM482      0.0000
     31  C3D       10.9910   25.1370  -31.8700 C.2   482  HEM482      0.0000
     32  C4D       11.6620   25.5570  -33.0870 C.2   482  HEM482      0.0000
     33  CMD       11.7360   25.2810  -29.2160 C.3   482  HEM482      0.0000
     34  CAD        9.6050   24.4690  -31.7390 C.3   482  HEM482      0.0000
     35  CBD        8.5450   25.5640  -31.6540 C.3   482  HEM482      0.0000
     36  CGD        7.1580   24.9730  -31.7090 C.2   482  HEM482      0.0000
     37  O1D        6.2050   25.6310  -31.2100 O.co2 482  HEM482      0.0000
     38  O2D        7.0010   23.8460  -32.2500 O.co2 482  HEM482      0.0000
     39  NA        13.0990   26.1690  -35.6840 N.ar  482  HEM482      0.0000
     40  NB        15.8080   27.1980  -35.5290 N.2   482  HEM482      0.0000
     41  NC        15.6390   27.1720  -32.6370 N.ar  482  HEM482      0.0000
     42  ND        12.8910   26.1220  -32.7510 N.2   482  HEM482      0.0000
     43 FE         14.3480   26.6670  -34.1260 Fe    482  HEM482      0.0000
@<TRIPOS>BOND
     1     9     7    1
     2    19    16    1
     3    13    12   ar
     4    14    12   ar
     5    12    11    1
     6     7     8   ar
     7     7     6   ar
     8     2     8    2
     9     2    15    1
    10    21    20    2
    11    16    15    1
    12    16    17    2
    13    10    11    1
    14    10     6    1
    15     8    39   ar
    16    15    40    2
    17     6     5   ar
    18    20    17    1
    19    17    18    1
    20    39     5   ar
    21    39    43    1
    22     5     1    2
    23    40    18    1
    24    40    43    1
    25    18     3    2
    26     1    32    1
    27    43    42    1
    28    43    41    1
    29     3    22    1
    30    32    42    2
    31    32    31    1
    32    22    41   ar
    33    22    23   ar
    34    42    29    1
    35    41    25   ar
    36    38    36   ar
    37    31    34    1
    38    31    30    2
    39    34    35    1
    40    36    35    1
    41    36    37   ar
    42    23    26    1
    43    23    24   ar
    44    29    30    1
    45    29     4    2
    46    25     4    1
    47    25    24   ar
    48    30    33    1
    49    24    27    1
    50    27    28    2
