@<TRIPOS>MOLECULE
3p9d_ADP_A_1.pdb
 27 29 0 0 0
SMALL
GASTEIGER

@<TRIPOS>ATOM
      1  PB        99.7770    1.9690  162.9460 P.3   756  ADP756      0.5373
      2  O1B       98.4900    1.9740  161.9180 O.2   756  ADP756     -0.2221
      3  O2B       99.5620    0.7970  164.0770 O.3   756  ADP756     -0.1143
      4  O3B       99.8950    3.2710  163.5900 O.3   756  ADP756     -0.1143
      5  PA       101.5630    0.0640  161.9450 P.3   756  ADP756      0.2231
      6  O1A      100.1690   -0.8170  162.0690 O.3   756  ADP756     -0.4370
      7  O2A      102.2270   -0.1840  160.6670 O.2   756  ADP756     -0.5169
      8  O3A      101.1330    1.6420  162.0710 O.3   756  ADP756     -0.2261
      9  O5'      102.5840   -0.3220  163.1830 O.3   756  ADP756     -0.3111
     10  C5'      103.5340   -1.3450  163.0030 C.3   756  ADP756      0.1813
     11  C4'      103.2280   -2.7660  163.4960 C.3   756  ADP756      0.1821
     12  O4'      104.3200   -3.7090  163.7660 O.3   756  ADP756     -0.3135
     13  C3'      102.1540   -3.6740  162.8180 C.3   756  ADP756      0.2184
     14  O3'      100.8090   -3.2750  162.7160 O.3   756  ADP756     -0.2174
     15  C2'      102.4730   -5.0860  163.2830 C.3   756  ADP756      0.2570
     16  O2'      102.3630   -6.1620  162.3870 O.3   756  ADP756     -0.2130
     17  C1'      103.6790   -4.9270  164.1600 C.3   756  ADP756      0.3186
     18  N9       103.2540   -4.8680  165.5610 N.pl3 756  ADP756     -0.1439
     19  C8       102.0460   -4.5510  166.0050 C.3   756  ADP756      0.3377
     20  N7       102.0440   -4.6180  167.3900 N.2   756  ADP756     -0.2095
     21  C5       103.2940   -4.9920  167.7920 C.2   756  ADP756      0.2526
     22  C6       103.8330   -5.2070  169.0320 C.2   756  ADP756      0.4393
     23  N6       103.0270   -5.0400  170.2250 N.pl3 756  ADP756      0.2180
     24  N1       105.1020   -5.5720  169.1540 N.2   756  ADP756      0.0021
     25  C2       105.8630   -5.7330  168.0480 C.3   756  ADP756      0.5254
     26  N3       105.3320   -5.5220  166.8160 N.2   756  ADP756     -0.0055
     27  C4       104.0510   -5.1540  166.6880 C.2   756  ADP756      0.3518
@<TRIPOS>BOND
     1     7     5    2
     2     2     1    2
     3     5     6    1
     4     5     8    1
     5     5     9    1
     6     8     1    1
     7    16    15    1
     8    14    13    1
     9    13    15    1
    10    13    11    1
    11     1     4    1
    12     1     3    1
    13    10     9    1
    14    10    11    1
    15    15    17    1
    16    11    12    1
    17    12    17    1
    18    17    18    1
    19    18    19    1
    20    18    27    1
    21    19    20    1
    22    27    26    2
    23    27    21    1
    24    26    25    1
    25    20    21    2
    26    21    22    1
    27    25    24    1
    28    22    24    2
    29    22    23    1
