@<TRIPOS>MOLECULE
3p9e_ADP_a_1.pdb
 27 29 0 0 0
SMALL
GASTEIGER

@<TRIPOS>ATOM
      1  PB       -43.5850  -25.0100  -29.6870 P.3   1756  ADP1756     0.5373
      2  O1B      -43.7580  -26.4310  -28.8830 O.3   1756  ADP1756    -0.1143
      3  O2B      -44.1790  -25.1550  -31.2220 O.2   1756  ADP1756    -0.2221
      4  O3B      -42.1800  -24.6070  -29.7230 O.3   1756  ADP1756    -0.1143
      5  PA       -45.6210  -23.1670  -29.8820 P.3   1756  ADP1756     0.2231
      6  O1A      -46.8370  -24.2590  -30.0950 O.2   1756  ADP1756    -0.5169
      7  O2A      -46.1190  -21.9500  -29.2380 O.3   1756  ADP1756    -0.4370
      8  O3A      -44.4810  -23.8660  -28.9300 O.3   1756  ADP1756    -0.2261
      9  O5'      -44.9480  -22.7960  -31.3400 O.3   1756  ADP1756    -0.3111
     10  C5'      -45.3880  -21.6850  -32.0640 C.3   1756  ADP1756     0.1813
     11  C4'      -46.4990  -21.8720  -33.0970 C.3   1756  ADP1756     0.1821
     12  O4'      -46.6960  -20.9410  -34.2120 O.3   1756  ADP1756    -0.3135
     13  C3'      -47.9370  -22.3210  -32.7100 C.3   1756  ADP1756     0.2184
     14  O3'      -48.1410  -23.6330  -32.2580 O.3   1756  ADP1756    -0.2174
     15  C2'      -48.8350  -21.7590  -33.8010 C.3   1756  ADP1756     0.2570
     16  O2'      -49.8570  -20.8610  -33.4580 O.3   1756  ADP1756    -0.2130
     17  C1'      -47.8770  -21.3810  -34.8830 C.3   1756  ADP1756     0.3186
     18  N9       -47.5940  -22.5200  -35.7540 N.pl3 1756  ADP1756    -0.1439
     19  C8       -47.2900  -23.7460  -35.3570 C.3   1756  ADP1756     0.3377
     20  N7       -47.0950  -24.5390  -36.4720 N.2   1756  ADP1756    -0.2095
     21  C5       -47.2940  -23.7650  -37.5710 C.2   1756  ADP1756     0.2526
     22  C6       -47.2280  -24.0630  -38.8910 C.2   1756  ADP1756     0.4393
     23  N6       -46.9050  -25.4220  -39.2810 N.pl3 1756  ADP1756     0.2180
     24  N1       -47.4670  -23.1250  -39.8000 N.2   1756  ADP1756     0.0021
     25  C2       -47.7790  -21.8720  -39.4050 C.3   1756  ADP1756     0.5254
     26  N3       -47.8460  -21.5780  -38.0830 N.2   1756  ADP1756    -0.0055
     27  C4       -47.6030  -22.5230  -37.1650 C.2   1756  ADP1756     0.3518
@<TRIPOS>BOND
     1    24    25    1
     2    24    22    2
     3    25    26    1
     4    23    22    1
     5    22    21    1
     6    26    27    2
     7    21    27    1
     8    21    20    2
     9    27    18    1
    10    20    19    1
    11    18    19    1
    12    18    17    1
    13    17    12    1
    14    17    15    1
    15    12    11    1
    16    15    16    1
    17    15    13    1
    18    11    13    1
    19    11    10    1
    20    13    14    1
    21    10     9    1
    22     9     5    1
    23     3     1    2
    24     6     5    2
    25     5     7    1
    26     5     8    1
    27     4     1    1
    28     1     8    1
    29     1     2    1
