@<TRIPOS>MOLECULE
3p9f_AZA_A_1.pdb
 11 12 0 0 0
SMALL
GASTEIGER

@<TRIPOS>ATOM
      1  N1        29.5070   27.2740   36.4250 N.2   302  AZA302     -0.2300
      2  C2        28.7360   27.0760   37.5560 C.1   302  AZA302      0.3745
      3  O2        27.6240   27.5250   37.6000 O.2   302  AZA302     -0.1738
      4  N3        29.3010   26.3800   38.5950 N.2   302  AZA302     -0.2491
      5  C4        30.5590   25.9100   38.4300 C.1   302  AZA302      0.1531
      6  C5        31.3220   26.0920   37.2850 C.2   302  AZA302      0.2717
      7  C6        30.7830   26.8660   36.1770 C.1   302  AZA302      0.2477
      8  O6        31.3630   27.1020   35.1220 O.2   302  AZA302     -0.2062
      9  N7        32.4960   25.5200   37.3830 N.2   302  AZA302     -0.1149
     10  N8        32.5130   24.9930   38.6000 N.pl3 302  AZA302     -0.0026
     11  N9        31.3520   25.1960   39.2880 N.2   302  AZA302     -0.0705
@<TRIPOS>BOND
     1     8     7    2
     2     7     1    2
     3     7     6    1
     4     1     2    2
     5     6     9    2
     6     6     5    1
     7     9    10    1
     8     2     3    2
     9     2     4    2
    10     5     4    2
    11     5    11    2
    12    10    11    1
