@<TRIPOS>MOLECULE
3p9j_P9J_A_1.pdb
 24 27 0 0 0
SMALL
GASTEIGER

@<TRIPOS>ATOM
      1  C1        -4.1450   32.5710   -2.7070 C.ar    1  P9J1        0.2805
      2  N2        -4.7360   31.7560   -3.6920 N.ar    1  P9J1       -0.1912
      3  C3        -3.3330   33.6120   -3.1020 C.ar    1  P9J1        0.0629
      4  C4        -2.7800   34.4710   -2.1670 C.ar    1  P9J1        0.0050
      5  C5        -1.9660   35.5130   -2.5950 C.ar    1  P9J1        0.0002
      6  C6        -1.7060   35.6810   -3.9500 C.ar    1  P9J1        0.0002
      7  C7        -2.2670   34.8080   -4.8800 C.ar    1  P9J1        0.0054
      8  C8        -3.0850   33.7690   -4.4510 C.ar    1  P9J1        0.0661
      9  C9        -3.6560   32.8600   -5.3420 C.ar    1  P9J1        0.2827
     10  N10       -4.4180   31.8590   -4.8780 N.ar    1  P9J1       -0.1184
     11  C11       -5.4650   30.6480   -3.2870 C.ar    1  P9J1        0.0861
     12  C12       -5.9310   30.5560   -1.9870 C.ar    1  P9J1        0.0193
     13  C13       -6.6880   29.4630   -1.5970 C.ar    1  P9J1        0.0015
     14  C14       -7.0120   28.4720   -2.5080 C.ar    1  P9J1        0.0001
     15  C15       -6.5740   28.5790   -3.8200 C.ar    1  P9J1        0.0015
     16  C16       -5.8410   29.6900   -4.2170 C.ar    1  P9J1        0.0193
     17  N17       -3.4610   33.0220   -6.6490 N.pl3   1  P9J1        0.0144
     18  C18       -3.9380   32.2420   -7.6230 C.2     1  P9J1        0.3761
     19  C19       -4.7010   31.1590   -7.5050 C.3     1  P9J1        0.1690
     20  C20       -4.9170   30.8030   -8.7680 C.2     1  P9J1        0.0959
     21  N21       -4.3380   31.6670   -9.5930 N.2     1  P9J1       -0.0426
     22  N22       -3.7710   32.5290   -8.9150 N.2     1  P9J1        0.0793
     23  C23       -5.7110   29.5880   -9.2360 C.3     1  P9J1        0.0520
     24  O24       -4.3720   32.4190   -1.5080 O.2     1  P9J1       -0.2652
@<TRIPOS>BOND
     1    21    22    1
     2    21    20    2
     3    23    20    1
     4    22    18    2
     5    20    19    1
     6    18    19    1
     7    18    17    1
     8    17     9    1
     9     9    10   ar
    10     9     8   ar
    11     7     8   ar
    12     7     6   ar
    13    10     2   ar
    14     8     3   ar
    15    16    15   ar
    16    16    11   ar
    17     6     5   ar
    18    15    14   ar
    19     2    11    1
    20     2     1   ar
    21    11    12   ar
    22     3     1   ar
    23     3     4   ar
    24     1    24    2
    25     5     4   ar
    26    14    13   ar
    27    12    13   ar
