@<TRIPOS>MOLECULE
3p9p_HDE_A_1.pdb
 44 52 0 0 0
SMALL
GASTEIGER

@<TRIPOS>ATOM
      1 FE         -1.3220   -1.4690   21.3710 Fe    761  HDE761      0.0000
      2  NA         0.1620   -1.3370   20.0630 N.pl3 761  HDE761      0.0000
      3  NB        -2.0600    0.2270   20.6430 N.2   761  HDE761      0.0000
      4  NC        -2.7780   -1.5740   22.7660 N.ar  761  HDE761      0.0000
      5  ND        -0.5010   -3.2030   22.1770 N.2   761  HDE761      0.0000
      6  C1A        1.2720   -2.2480   19.9560 C.2   761  HDE761      0.0000
      7  O1A        2.3270   -3.1560   17.9720 O.3   761  HDE761      0.0000
      8  C1B       -1.8530    0.7390   19.3420 C.2   761  HDE761      0.0000
      9  C1C       -3.9670   -0.7640   22.8730 C.ar  761  HDE761      0.0000
     10  C1D       -0.9630   -4.0560   23.1300 C.2   761  HDE761      0.0000
     11  O1D        4.3920   -7.5730   20.8210 O.co2 761  HDE761      0.0000
     12  C2A        2.1540   -1.9770   18.7610 C.2   761  HDE761      0.0000
     13  O2A        3.9600   -4.6030   17.2050 O.2   761  HDE761      0.0000
     14  C2B       -2.8460    1.6730   18.9900 C.2   761  HDE761      0.0000
     15  C2C       -5.0030   -1.3080   23.6650 C.ar  761  HDE761      0.0000
     16  C2D       -0.1500   -5.1200   23.4770 C.2   761  HDE761      0.0000
     17  O2D        3.7320   -8.0840   22.8280 O.co2 761  HDE761      0.0000
     18  C3A        1.4340   -0.8300   18.0460 C.2   761  HDE761      0.0000
     19  C3B       -3.7840    1.7230   20.1200 C.2   761  HDE761      0.0000
     20  C3C       -4.4350   -2.6080   24.0390 C.ar  761  HDE761      0.0000
     21  C3D        1.0350   -4.9230   22.6240 C.2   761  HDE761      0.0000
     22  C4A        0.2030   -0.5550   18.8640 C.2   761  HDE761      0.0000
     23  C4B       -3.3120    0.8020   21.0170 C.2   761  HDE761      0.0000
     24  C4C       -3.1150   -2.7580   23.4420 C.ar  761  HDE761      0.0000
     25  C4D        0.7110   -3.7030   21.8830 C.2   761  HDE761      0.0000
     26  CAA        3.5810   -1.6930   19.2380 C.2   761  HDE761      0.0000
     27  CAB       -5.0690    2.4830   20.3330 C.3   761  HDE761      0.0000
     28  CAC       -5.0300   -3.7040   24.8780 C.3   761  HDE761      0.0000
     29  CAD        2.3190   -5.6530   22.4800 C.3   761  HDE761      0.0000
     30  CBA        4.5790   -2.6490   18.5690 C.2   761  HDE761      0.0000
     31  CBB       -5.6850    2.7180   19.0120 C.3   761  HDE761      0.0000
     32  CBC       -6.4740   -3.9540   24.7740 C.3   761  HDE761      0.0000
     33  CBD        2.2420   -6.7950   21.4600 C.3   761  HDE761      0.0000
     34  CGA        3.6720   -3.5900   17.8420 C.2   761  HDE761      0.0000
     35  CGD        3.5330   -7.5540   21.7230 C.2   761  HDE761      0.0000
     36  CHA        1.6460   -3.1000   20.9130 C.2   761  HDE761      0.0000
     37  CHB       -0.6740    0.4150   18.5190 C.2   761  HDE761      0.0000
     38  CHC       -3.9990    0.5750   22.2760 C.2   761  HDE761      0.0000
     39  CHD       -2.2660   -3.9110   23.7320 C.2   761  HDE761      0.0000
     40  CMA        2.2600    0.4640   17.9310 C.3   761  HDE761      0.0000
     41  CMB       -2.9320    2.4700   17.7210 C.3   761  HDE761      0.0000
     42  CMC       -6.3530   -0.7940   24.0510 C.3   761  HDE761      0.0000
     43  CMD       -0.5090   -6.1740   24.4730 C.3   761  HDE761      0.0000
     44  ONA        0.9960   -1.2810   16.7750 O.2   761  HDE761      0.0000
@<TRIPOS>BOND
     1    44    18    1
     2    13    34    2
     3    41    14    1
     4    34     7    1
     5    34    30    1
     6    40    18    1
     7     7    12    1
     8    18    12    2
     9    18    22    1
    10    37    22    2
    11    37     8    1
    12    30    26    2
    13    12    26    1
    14    12     6    1
    15    22     2    1
    16    14     8    1
    17    14    19    2
    18    31    27    1
    19     8     3    2
    20     6     2    1
    21     6    36    2
    22     2     1    1
    23    19    27    1
    24    19    23    1
    25     3    23    1
    26     3     1    1
    27    11    35   ar
    28    36    25    1
    29    23    38    2
    30     1     5    1
    31     1     4    1
    32    33    35    1
    33    33    29    1
    34    35    17   ar
    35    25     5    2
    36    25    21    1
    37     5    10    1
    38    38     9    1
    39    29    21    1
    40    21    16    2
    41     4     9   ar
    42     4    24   ar
    43     9    15   ar
    44    10    16    1
    45    10    39    2
    46    24    39    1
    47    24    20   ar
    48    16    43    1
    49    15    20   ar
    50    15    42    1
    51    20    28    1
    52    32    28    1
