@<TRIPOS>MOLECULE
3p9p_HDD_A_1.pdb
 44 52 0 0 0
SMALL
GASTEIGER

@<TRIPOS>ATOM
      1 FE         -1.5650   -1.7560   21.3580 Fe    760  HDD760      0.0000
      2  CHA        1.6640   -3.0870   21.1360 C.2   760  HDD760      0.0000
      3  CHB       -2.3220   -3.8670   23.9400 C.2   760  HDD760      0.0000
      4  CHC       -4.4040    0.1480   22.0530 C.2   760  HDD760      0.0000
      5  CHD       -0.8740    0.3470   18.6990 C.2   760  HDD760      0.0000
      6  NA        -0.5210   -3.1400   22.3640 N.2   760  HDD760      0.0000
      7  C1A        0.7580   -3.6310   22.0590 C.2   760  HDD760      0.0000
      8  C2A        0.9760   -4.7910   22.9170 C.2   760  HDD760      0.0000
      9  C3A       -0.1100   -4.9600   23.6700 C.2   760  HDD760      0.0000
     10  C4A       -1.0820   -3.9450   23.3590 C.2   760  HDD760      0.0000
     11  CMA       -0.3830   -6.0380   24.7170 C.3   760  HDD760      0.0000
     12  CAA        2.2470   -5.6860   22.9720 C.3   760  HDD760      0.0000
     13  CBA        2.1960   -6.8760   21.9820 C.3   760  HDD760      0.0000
     14  CGA        3.5460   -7.5740   22.0980 C.2   760  HDD760      0.0000
     15  O1A        4.4000   -7.5290   21.1620 O.co2 760  HDD760      0.0000
     16  O2A        3.7670   -8.1570   23.1750 O.co2 760  HDD760      0.0000
     17  NB        -3.1010   -1.9090   22.7020 N.ar  760  HDD760      0.0000
     18  C1B       -3.1950   -2.8330   23.7040 C.ar  760  HDD760      0.0000
     19  C2B       -4.4140   -2.5570   24.4180 C.ar  760  HDD760      0.0000
     20  C3B       -4.9830   -1.4590   23.9210 C.ar  760  HDD760      0.0000
     21  C4B       -4.1430   -0.9740   22.8490 C.ar  760  HDD760      0.0000
     22  CMB       -4.9510   -3.4290   25.5520 C.3   760  HDD760      0.0000
     23  CAB       -6.2740   -0.7920   24.3850 C.2   760  HDD760      0.0000
     24  CBB       -7.4280   -1.4180   24.6090 C.2   760  HDD760      0.0000
     25  NC        -2.5020   -0.1550   20.5010 N.2   760  HDD760      0.0000
     26  C1C       -3.6180    0.5420   20.9990 C.2   760  HDD760      0.0000
     27  C2C       -3.7170    1.8090   20.3030 C.2   760  HDD760      0.0000
     28  C3C       -2.8940    1.7180   19.2700 C.2   760  HDD760      0.0000
     29  C4C       -1.9780    0.6180   19.4780 C.2   760  HDD760      0.0000
     30  CMC       -5.0210    2.6420   20.3770 C.3   760  HDD760      0.0000
     31  CAC       -2.6740    2.7530   18.1610 C.3   760  HDD760      0.0000
     32  CBC       -3.7970    3.2920   17.6870 C.3   760  HDD760      0.0000
     33  ND         0.2080   -1.4080   20.0730 N.pl3 760  HDD760      0.0000
     34  C1D        0.1910   -0.5080   19.0010 C.2   760  HDD760      0.0000
     35  C2D        1.3910   -0.7010   18.2270 C.2   760  HDD760      0.0000
     36  C3D        2.2270   -1.7700   18.9640 C.2   760  HDD760      0.0000
     37  C4D        1.4010   -2.1490   20.1210 C.2   760  HDD760      0.0000
     38  CMD        2.1460    0.6420   18.0170 C.3   760  HDD760      0.0000
     39  CAD        3.7120   -1.5160   19.3010 C.3   760  HDD760      0.0000
     40  CBD        4.3860   -2.0080   18.0230 C.3   760  HDD760      0.0000
     41  CGD        3.5380   -3.2430   17.8530 C.2   760  HDD760      0.0000
     42  O1D        2.3030   -2.8870   18.2040 O.3   760  HDD760      0.0000
     43  O2D        3.7020   -4.1880   17.0770 O.2   760  HDD760      0.0000
     44  OND        1.0380   -1.2570   16.9270 O.2   760  HDD760      0.0000
@<TRIPOS>BOND
     1    44    35    1
     2    43    41    2
     3    32    31    1
     4    41    40    1
     5    41    42    1
     6    38    35    1
     7    40    39    1
     8    31    28    1
     9    42    36    1
    10    35    36    2
    11    35    34    1
    12     5    34    2
    13     5    29    1
    14    36    39    1
    15    36    37    1
    16    34    33    1
    17    28    29    1
    18    28    27    2
    19    29    25    2
    20    33    37    1
    21    33     1    1
    22    37     2    2
    23    27    30    1
    24    27    26    1
    25    25    26    1
    26    25     1    1
    27    26     4    2
    28     2     7    1
    29    15    14   ar
    30     1     6    1
    31     1    17    1
    32    13    14    1
    33    13    12    1
    34     4    21    1
    35     7     6    2
    36     7     8    1
    37    14    16   ar
    38     6    10    1
    39    17    21   ar
    40    17    18   ar
    41    21    20   ar
    42     8    12    1
    43     8     9    2
    44    10     9    1
    45    10     3    2
    46     9    11    1
    47    18     3    1
    48    18    19   ar
    49    20    23    1
    50    20    19   ar
    51    23    24    2
    52    19    22    1
