@<TRIPOS>MOLECULE
3p9p_HEM_A_1.pdb
 43 50 0 0 0
SMALL
GASTEIGER

@<TRIPOS>ATOM
      1  CHA        1.6110   -3.1750   20.9730 C.2   754  HEM754      0.0000
      2  CHB       -2.3340   -3.8650   23.7480 C.2   754  HEM754      0.0000
      3  CHC       -4.1860    0.2870   21.8820 C.2   754  HEM754      0.0000
      4  CHD       -0.7420    0.4230   18.4480 C.2   754  HEM754      0.0000
      5  C1A        0.7520   -3.6880   21.9230 C.2   754  HEM754      0.0000
      6  C2A        1.0030   -4.7650   22.8710 C.2   754  HEM754      0.0000
      7  C3A       -0.0860   -4.9200   23.6190 C.2   754  HEM754      0.0000
      8  C4A       -1.0800   -3.9580   23.2010 C.2   754  HEM754      0.0000
      9  CMA       -0.3270   -5.9310   24.7470 C.3   754  HEM754      0.0000
     10  CAA        2.3000   -5.6050   23.0020 C.3   754  HEM754      0.0000
     11  CBA        2.1680   -6.8920   22.1600 C.3   754  HEM754      0.0000
     12  CGA        3.5120   -7.6030   22.1830 C.2   754  HEM754      0.0000
     13  O1A        3.7450   -8.2770   23.2050 O.co2 754  HEM754      0.0000
     14  O2A        4.3270   -7.4890   21.2180 O.co2 754  HEM754      0.0000
     15  C1B       -3.1890   -2.8160   23.4990 C.ar  754  HEM754      0.0000
     16  C2B       -4.4720   -2.5670   24.1160 C.ar  754  HEM754      0.0000
     17  C3B       -4.9720   -1.4280   23.6060 C.ar  754  HEM754      0.0000
     18  C4B       -4.0210   -0.8850   22.6510 C.ar  754  HEM754      0.0000
     19  CMB       -5.1700   -3.4610   25.1470 C.3   754  HEM754      0.0000
     20  CAB       -6.3080   -0.7910   24.0110 C.2   754  HEM754      0.0000
     21  CBB       -7.3590   -1.5390   24.3330 C.2   754  HEM754      0.0000
     22  C1C       -3.4330    0.6730   20.7890 C.2   754  HEM754      0.0000
     23  C2C       -3.7050    1.8090   19.9170 C.2   754  HEM754      0.0000
     24  C3C       -2.7760    1.8280   18.9700 C.2   754  HEM754      0.0000
     25  C4C       -1.8430    0.7370   19.2100 C.2   754  HEM754      0.0000
     26  CMC       -4.9160    2.7620   20.0820 C.3   754  HEM754      0.0000
     27  CAC       -2.6030    2.8370   17.8140 C.2   754  HEM754      0.0000
     28  CBC       -3.6010    3.0890   16.9480 C.2   754  HEM754      0.0000
     29  C1D        0.2510   -0.4800   18.8440 C.ar  754  HEM754      0.0000
     30  C2D        1.5300   -0.6670   18.2170 C.ar  754  HEM754      0.0000
     31  C3D        2.2220   -1.7590   19.0170 C.ar  754  HEM754      0.0000
     32  C4D        1.3120   -2.1810   20.0360 C.ar  754  HEM754      0.0000
     33  CMD        2.1330    0.0710   17.0090 C.3   754  HEM754      0.0000
     34  CAD        3.6020   -2.3910   18.8230 C.3   754  HEM754      0.0000
     35  CBD        3.2740   -3.5020   17.8320 C.3   754  HEM754      0.0000
     36  CGD        4.4710   -4.1870   17.2010 C.2   754  HEM754      0.0000
     37  O1D        5.5070   -3.5820   16.8620 O.co2 754  HEM754      0.0000
     38  O2D        4.3600   -5.3980   16.9710 O.co2 754  HEM754      0.0000
     39  NA        -0.5310   -3.2150   22.1430 N.2   754  HEM754      0.0000
     40  NB        -2.9850   -1.8270   22.5730 N.ar  754  HEM754      0.0000
     41  NC        -2.3070    0.0030   20.2840 N.2   754  HEM754      0.0000
     42  ND         0.1350   -1.4280   19.8780 N.ar  754  HEM754      0.0000
     43 FE         -1.4580   -1.7060   21.1280 Fe    754  HEM754      0.0000
@<TRIPOS>BOND
     1    37    36   ar
     2    28    27    2
     3    38    36   ar
     4    33    30    1
     5    36    35    1
     6    27    24    1
     7    35    34    1
     8    30    29   ar
     9    30    31   ar
    10     4    29    2
    11     4    25    1
    12    34    31    1
    13    29    42   ar
    14    24    25    1
    15    24    23    2
    16    31    32   ar
    17    25    41    2
    18    42    32   ar
    19    42    43    1
    20    23    26    1
    21    23    22    1
    22    32     1    2
    23    41    22    1
    24    41    43    1
    25    22     3    2
    26     1     5    1
    27    43    39    1
    28    43    40    1
    29    14    12   ar
    30     3    18    1
    31     5    39    2
    32     5     6    1
    33    39     8    1
    34    11    12    1
    35    11    10    1
    36    12    13   ar
    37    40    18   ar
    38    40    15   ar
    39    18    17   ar
    40     6    10    1
    41     6     7    2
    42     8     7    1
    43     8     2    2
    44    15     2    1
    45    15    16   ar
    46    17    20    1
    47    17    16   ar
    48     7     9    1
    49    20    21    2
    50    16    19    1
