@<TRIPOS>MOLECULE
3p9q_HDD_A_1.pdb
 44 52 0 0 0
SMALL
GASTEIGER

@<TRIPOS>ATOM
      1 FE         -1.6480   -1.7650   21.5950 Fe    760  HDD760      0.0000
      2  CHA        1.4690   -3.1770   21.2470 C.2   760  HDD760      0.0000
      3  CHB       -2.3620   -3.9780   24.1870 C.2   760  HDD760      0.0000
      4  CHC       -4.5720   -0.0190   22.3890 C.2   760  HDD760      0.0000
      5  CHD       -1.0070    0.3930   19.0380 C.2   760  HDD760      0.0000
      6  NA        -0.6030   -3.2250   22.5280 N.2   760  HDD760      0.0000
      7  C1A        0.6540   -3.7390   22.2210 C.2   760  HDD760      0.0000
      8  C2A        0.9020   -4.9120   23.0070 C.2   760  HDD760      0.0000
      9  C3A       -0.1650   -5.0930   23.8240 C.2   760  HDD760      0.0000
     10  C4A       -1.1510   -4.0650   23.5350 C.2   760  HDD760      0.0000
     11  CMA       -0.3380   -6.2030   24.8720 C.3   760  HDD760      0.0000
     12  CAA        2.2250   -5.7230   22.9930 C.3   760  HDD760      0.0000
     13  CBA        2.1340   -6.9440   22.0650 C.3   760  HDD760      0.0000
     14  CGA        3.4890   -7.5680   22.1460 C.2   760  HDD760      0.0000
     15  O1A        4.2480   -7.4930   21.1410 O.co2 760  HDD760      0.0000
     16  O2A        3.7200   -8.2090   23.1850 O.co2 760  HDD760      0.0000
     17  NB        -3.1930   -2.0240   23.0130 N.ar  760  HDD760      0.0000
     18  C1B       -3.2360   -2.9350   24.0400 C.ar  760  HDD760      0.0000
     19  C2B       -4.4300   -2.6870   24.8300 C.ar  760  HDD760      0.0000
     20  C3B       -4.9670   -1.5370   24.3450 C.ar  760  HDD760      0.0000
     21  C4B       -4.2660   -1.1050   23.1500 C.ar  760  HDD760      0.0000
     22  CMB       -5.0380   -3.3920   26.1130 C.3   760  HDD760      0.0000
     23  CAB       -6.2820   -0.9110   24.8080 C.3   760  HDD760      0.0000
     24  CBB       -7.3000   -1.5730   24.2250 C.3   760  HDD760      0.0000
     25  NC        -2.6360   -0.1600   20.8250 N.2   760  HDD760      0.0000
     26  C1C       -3.8280    0.4460   21.2890 C.2   760  HDD760      0.0000
     27  C2C       -4.0580    1.6470   20.4980 C.2   760  HDD760      0.0000
     28  C3C       -3.1340    1.6810   19.5150 C.2   760  HDD760      0.0000
     29  C4C       -2.1620    0.5920   19.7470 C.2   760  HDD760      0.0000
     30  CMC       -5.3570    2.5230   20.5340 C.3   760  HDD760      0.0000
     31  CAC       -3.0200    2.6930   18.3710 C.2   760  HDD760      0.0000
     32  CBC       -4.1560    3.0520   17.6990 C.2   760  HDD760      0.0000
     33  ND         0.0460   -1.3810   20.2640 N.pl3 760  HDD760      0.0000
     34  C1D        0.0550   -0.4700   19.2690 C.2   760  HDD760      0.0000
     35  C2D        1.2020   -0.6980   18.4640 C.2   760  HDD760      0.0000
     36  C3D        2.0190   -1.8170   19.1870 C.2   760  HDD760      0.0000
     37  C4D        1.2020   -2.1770   20.3330 C.2   760  HDD760      0.0000
     38  CMD        2.0330    0.6210   18.3350 C.3   760  HDD760      0.0000
     39  CAD        3.5320   -1.5390   19.4370 C.3   760  HDD760      0.0000
     40  CBD        4.2120   -2.0450   18.1790 C.3   760  HDD760      0.0000
     41  CGD        3.3170   -3.2620   18.0540 C.2   760  HDD760      0.0000
     42  O1D        2.0590   -2.9390   18.3540 O.3   760  HDD760      0.0000
     43  O2D        3.5960   -4.2380   17.3090 O.2   760  HDD760      0.0000
     44  OND        0.8430   -1.1390   17.0590 O.2   760  HDD760      0.0000
@<TRIPOS>BOND
     1    44    35    1
     2    43    41    2
     3    32    31    2
     4    41    40    1
     5    41    42    1
     6    40    39    1
     7    38    35    1
     8    42    36    1
     9    31    28    1
    10    35    36    2
    11    35    34    1
    12     5    34    2
    13     5    29    1
    14    36    39    1
    15    36    37    1
    16    34    33    1
    17    28    29    1
    18    28    27    2
    19    29    25    2
    20    33    37    1
    21    33     1    1
    22    37     2    2
    23    27    30    1
    24    27    26    1
    25    25    26    1
    26    25     1    1
    27    15    14   ar
    28     2     7    1
    29    26     4    2
    30     1     6    1
    31     1    17    1
    32    13    14    1
    33    13    12    1
    34    14    16   ar
    35     7     6    2
    36     7     8    1
    37     4    21    1
    38     6    10    1
    39    12     8    1
    40     8     9    2
    41    17    21   ar
    42    17    18   ar
    43    21    20   ar
    44    10     9    1
    45    10     3    2
    46     9    11    1
    47    18     3    1
    48    18    19   ar
    49    24    23    1
    50    20    23    1
    51    20    19   ar
    52    19    22    1
