@<TRIPOS>MOLECULE
3p9q_HDE_A_1.pdb
 44 52 0 0 0
SMALL
GASTEIGER

@<TRIPOS>ATOM
      1 FE         -1.2870   -1.6040   21.4150 Fe    761  HDE761      0.0000
      2  NA         0.1900   -1.4220   20.0660 N.pl3 761  HDE761      0.0000
      3  NB        -2.0440    0.1040   20.7480 N.2   761  HDE761      0.0000
      4  NC        -2.7420   -1.7830   22.8630 N.ar  761  HDE761      0.0000
      5  ND        -0.4630   -3.3410   22.1590 N.2   761  HDE761      0.0000
      6  C1A        1.3270   -2.3180   19.9420 C.2   761  HDE761      0.0000
      7  O1A        2.3640   -3.2640   17.9990 O.3   761  HDE761      0.0000
      8  C1B       -1.8320    0.6500   19.4750 C.2   761  HDE761      0.0000
      9  C1C       -3.9820   -1.0310   22.9770 C.ar  761  HDE761      0.0000
     10  C1D       -0.9140   -4.1860   23.1500 C.2   761  HDE761      0.0000
     11  O1D        4.3670   -7.5180   20.8040 O.co2 761  HDE761      0.0000
     12  C2A        2.2140   -2.0370   18.7620 C.2   761  HDE761      0.0000
     13  O2A        4.0840   -4.7800   17.1370 O.2   761  HDE761      0.0000
     14  C2B       -2.7950    1.6500   19.1800 C.2   761  HDE761      0.0000
     15  C2C       -5.0290   -1.6120   23.7930 C.ar  761  HDE761      0.0000
     16  C2D       -0.0890   -5.2690   23.4610 C.2   761  HDE761      0.0000
     17  O2D        3.8690   -8.2350   22.8060 O.co2 761  HDE761      0.0000
     18  C3A        1.3910   -0.9060   18.0310 C.2   761  HDE761      0.0000
     19  C3B       -3.7540    1.6270   20.3430 C.2   761  HDE761      0.0000
     20  C3C       -4.4500   -2.9240   24.1970 C.ar  761  HDE761      0.0000
     21  C3D        1.1240   -5.0410   22.6310 C.2   761  HDE761      0.0000
     22  C4A        0.2200   -0.6400   18.9060 C.2   761  HDE761      0.0000
     23  C4B       -3.2930    0.6220   21.1470 C.2   761  HDE761      0.0000
     24  C4C       -3.1000   -2.9840   23.5800 C.ar  761  HDE761      0.0000
     25  C4D        0.7760   -3.8170   21.8870 C.2   761  HDE761      0.0000
     26  CAA        3.6580   -1.7960   19.1930 C.2   761  HDE761      0.0000
     27  CAB       -5.0270    2.3780   20.7020 C.3   761  HDE761      0.0000
     28  CAC       -5.0820   -4.0000   25.0460 C.3   761  HDE761      0.0000
     29  CAD        2.4390   -5.7600   22.4850 C.3   761  HDE761      0.0000
     30  CBA        4.6280   -2.7550   18.4740 C.2   761  HDE761      0.0000
     31  CBB       -5.6330    2.9080   19.4820 C.3   761  HDE761      0.0000
     32  CBC       -6.5270   -3.8200   24.8730 C.3   761  HDE761      0.0000
     33  CBD        2.2530   -7.0150   21.6330 C.3   761  HDE761      0.0000
     34  CGA        3.7260   -3.7540   17.7830 C.2   761  HDE761      0.0000
     35  CGD        3.5930   -7.6530   21.7520 C.2   761  HDE761      0.0000
     36  CHA        1.6830   -3.2220   20.8670 C.2   761  HDE761      0.0000
     37  CHB       -0.6350    0.3780   18.6490 C.2   761  HDE761      0.0000
     38  CHC       -3.9400    0.3020   22.4130 C.2   761  HDE761      0.0000
     39  CHD       -2.2100   -4.0980   23.8220 C.2   761  HDE761      0.0000
     40  CMA        2.0430    0.4470   17.7520 C.3   761  HDE761      0.0000
     41  CMB       -2.6880    2.5100   17.9380 C.3   761  HDE761      0.0000
     42  CMC       -6.4160   -1.1040   24.1590 C.3   761  HDE761      0.0000
     43  CMD       -0.3680   -6.3200   24.5200 C.3   761  HDE761      0.0000
     44  ONA        0.9200   -1.3120   16.7360 O.2   761  HDE761      0.0000
@<TRIPOS>BOND
     1    44    18    1
     2    13    34    2
     3    40    18    1
     4    34     7    1
     5    34    30    1
     6    41    14    1
     7     7    12    1
     8    18    12    2
     9    18    22    1
    10    30    26    2
    11    37    22    2
    12    37     8    1
    13    12    26    1
    14    12     6    1
    15    22     2    1
    16    14     8    1
    17    14    19    2
    18     8     3    2
    19    31    27    1
    20     6     2    1
    21     6    36    2
    22     2     1    1
    23    19    27    1
    24    19    23    1
    25     3    23    1
    26     3     1    1
    27    11    35   ar
    28    36    25    1
    29    23    38    2
    30     1     5    1
    31     1     4    1
    32    33    35    1
    33    33    29    1
    34    35    17   ar
    35    25     5    2
    36    25    21    1
    37     5    10    1
    38    38     9    1
    39    29    21    1
    40    21    16    2
    41     4     9   ar
    42     4    24   ar
    43     9    15   ar
    44    10    16    1
    45    10    39    2
    46    16    43    1
    47    24    39    1
    48    24    20   ar
    49    15    42    1
    50    15    20   ar
    51    20    28    1
    52    32    28    1
