@<TRIPOS>MOLECULE
3p9r_HDD_A_1.pdb
 44 52 0 0 0
SMALL
GASTEIGER

@<TRIPOS>ATOM
      1 FE         -1.5520   -1.7080   21.4800 Fe    760  HDD760      0.0000
      2  CHA        1.4980   -3.1820   21.1310 C.2   760  HDD760      0.0000
      3  CHB       -2.3730   -3.9440   23.9540 C.2   760  HDD760      0.0000
      4  CHC       -4.4360    0.0480   22.0870 C.2   760  HDD760      0.0000
      5  CHD       -0.8070    0.4270   18.8900 C.2   760  HDD760      0.0000
      6  NA        -0.6040   -3.2450   22.3730 N.2   760  HDD760      0.0000
      7  C1A        0.6250   -3.7020   22.0640 C.2   760  HDD760      0.0000
      8  C2A        0.8850   -4.9070   22.9090 C.2   760  HDD760      0.0000
      9  C3A       -0.2080   -5.1340   23.6560 C.2   760  HDD760      0.0000
     10  C4A       -1.1420   -4.0740   23.3770 C.2   760  HDD760      0.0000
     11  CMA       -0.4190   -6.1980   24.7730 C.3   760  HDD760      0.0000
     12  CAA        2.1860   -5.7280   22.8780 C.3   760  HDD760      0.0000
     13  CBA        2.1490   -6.9030   21.8530 C.3   760  HDD760      0.0000
     14  CGA        3.5140   -7.5930   22.0010 C.2   760  HDD760      0.0000
     15  O1A        4.3590   -7.5230   21.0850 O.co2 760  HDD760      0.0000
     16  O2A        3.7500   -8.2170   23.0730 O.co2 760  HDD760      0.0000
     17  NB        -3.0980   -1.8940   22.8030 N.ar  760  HDD760      0.0000
     18  C1B       -3.2950   -2.9430   23.7070 C.ar  760  HDD760      0.0000
     19  C2B       -4.6150   -2.7350   24.3490 C.ar  760  HDD760      0.0000
     20  C3B       -5.1740   -1.6380   23.8010 C.ar  760  HDD760      0.0000
     21  C4B       -4.2130   -1.0860   22.8460 C.ar  760  HDD760      0.0000
     22  CMB       -5.3280   -3.7000   25.3730 C.3   760  HDD760      0.0000
     23  CAB       -6.5780   -1.0380   24.1140 C.2   760  HDD760      0.0000
     24  CBB       -7.4860   -1.6460   24.8860 C.2   760  HDD760      0.0000
     25  NC        -2.4550   -0.0850   20.6280 N.2   760  HDD760      0.0000
     26  C1C       -3.6500    0.5120   21.0650 C.2   760  HDD760      0.0000
     27  C2C       -3.9300    1.6560   20.2190 C.2   760  HDD760      0.0000
     28  C3C       -2.9360    1.6780   19.3140 C.2   760  HDD760      0.0000
     29  C4C       -1.9390    0.6600   19.6100 C.2   760  HDD760      0.0000
     30  CMC       -5.1720    2.6560   20.2710 C.3   760  HDD760      0.0000
     31  CAC       -2.7080    2.7410   18.2550 C.2   760  HDD760      0.0000
     32  CBC       -3.8030    3.1330   17.5570 C.2   760  HDD760      0.0000
     33  ND         0.1790   -1.4180   20.2120 N.pl3 760  HDD760      0.0000
     34  C1D        0.1700   -0.5300   19.1460 C.2   760  HDD760      0.0000
     35  C2D        1.3090   -0.8050   18.2990 C.2   760  HDD760      0.0000
     36  C3D        2.1240   -1.9540   18.9610 C.2   760  HDD760      0.0000
     37  C4D        1.2810   -2.2280   20.1490 C.2   760  HDD760      0.0000
     38  CMD        1.9600    0.5750   18.1350 C.3   760  HDD760      0.0000
     39  CAD        3.5870   -1.6600   19.3180 C.3   760  HDD760      0.0000
     40  CBD        4.3770   -2.3780   18.2590 C.3   760  HDD760      0.0000
     41  CGD        3.5320   -3.5400   17.8700 C.2   760  HDD760      0.0000
     42  O1D        2.2780   -3.1160   18.1700 O.3   760  HDD760      0.0000
     43  O2D        3.9230   -4.5420   17.1880 O.2   760  HDD760      0.0000
     44  OND        0.8590   -1.2660   16.9730 O.2   760  HDD760      0.0000
@<TRIPOS>BOND
     1    44    35    1
     2    43    41    2
     3    32    31    2
     4    41    42    1
     5    41    40    1
     6    38    35    1
     7    42    36    1
     8    31    28    1
     9    40    39    1
    10    35    36    2
    11    35    34    1
    12     5    34    2
    13     5    29    1
    14    36    39    1
    15    36    37    1
    16    34    33    1
    17    28    29    1
    18    28    27    2
    19    29    25    2
    20    37    33    1
    21    37     2    2
    22    33     1    1
    23    27    30    1
    24    27    26    1
    25    25    26    1
    26    25     1    1
    27    26     4    2
    28    15    14   ar
    29     2     7    1
    30     1     6    1
    31     1    17    1
    32    13    14    1
    33    13    12    1
    34    14    16   ar
    35     7     6    2
    36     7     8    1
    37     4    21    1
    38     6    10    1
    39    17    21   ar
    40    17    18   ar
    41    21    20   ar
    42    12     8    1
    43     8     9    2
    44    10     9    1
    45    10     3    2
    46     9    11    1
    47    18     3    1
    48    18    19   ar
    49    20    23    1
    50    20    19   ar
    51    23    24    2
    52    19    22    1
