@<TRIPOS>MOLECULE
3p9s_HDE_A_1.pdb
 44 52 0 0 0
SMALL
GASTEIGER

@<TRIPOS>ATOM
      1 FE         -1.2990   -1.5940   21.5330 Fe    761  HDE761      0.0000
      2  NA         0.2350   -1.3910   20.2360 N.pl3 761  HDE761      0.0000
      3  NB        -2.0740    0.0910   20.7880 N.2   761  HDE761      0.0000
      4  NC        -2.7780   -1.7710   22.9030 N.ar  761  HDE761      0.0000
      5  ND        -0.4410   -3.3120   22.3370 N.2   761  HDE761      0.0000
      6  C1A        1.3300   -2.2750   20.0810 C.2   761  HDE761      0.0000
      7  O1A        2.2710   -3.2220   17.9510 O.3   761  HDE761      0.0000
      8  C1B       -1.8230    0.6530   19.5270 C.2   761  HDE761      0.0000
      9  C1C       -3.9940   -1.0300   22.9840 C.ar  761  HDE761      0.0000
     10  C1D       -0.8570   -4.1400   23.3320 C.2   761  HDE761      0.0000
     11  O1D        4.3930   -7.5380   20.9030 O.co2 761  HDE761      0.0000
     12  C2A        2.1520   -2.0300   18.8100 C.2   761  HDE761      0.0000
     13  O2A        3.8890   -4.7640   17.1920 O.2   761  HDE761      0.0000
     14  C2B       -2.7730    1.6200   19.1780 C.2   761  HDE761      0.0000
     15  C2C       -4.9810   -1.5280   23.8890 C.ar  761  HDE761      0.0000
     16  C2D        0.0010   -5.1650   23.6730 C.2   761  HDE761      0.0000
     17  O2D        3.8420   -8.3410   22.9270 O.co2 761  HDE761      0.0000
     18  C3A        1.3940   -0.9020   18.1100 C.2   761  HDE761      0.0000
     19  C3B       -3.7690    1.5630   20.2690 C.2   761  HDE761      0.0000
     20  C3C       -4.3830   -2.7880   24.3360 C.ar  761  HDE761      0.0000
     21  C3D        1.1730   -4.9660   22.8030 C.2   761  HDE761      0.0000
     22  C4A        0.2540   -0.6040   19.0430 C.2   761  HDE761      0.0000
     23  C4B       -3.3250    0.5850   21.1200 C.2   761  HDE761      0.0000
     24  C4C       -3.0590   -2.9190   23.6840 C.ar  761  HDE761      0.0000
     25  C4D        0.8050   -3.7570   22.0540 C.2   761  HDE761      0.0000
     26  CAA        3.6210   -1.6790   19.0790 C.2   761  HDE761      0.0000
     27  CAB       -5.0940    2.2670   20.4890 C.3   761  HDE761      0.0000
     28  CAC       -4.9820   -3.8610   25.2600 C.3   761  HDE761      0.0000
     29  CAD        2.4620   -5.7390   22.7250 C.3   761  HDE761      0.0000
     30  CBA        4.5250   -2.7850   18.4930 C.2   761  HDE761      0.0000
     31  CBB       -5.4310    3.1200   19.3610 C.3   761  HDE761      0.0000
     32  CBC       -6.4350   -4.0310   25.0960 C.3   761  HDE761      0.0000
     33  CBD        2.2430   -7.0190   21.8950 C.3   761  HDE761      0.0000
     34  CGA        3.5820   -3.7310   17.8030 C.2   761  HDE761      0.0000
     35  CGD        3.6050   -7.6990   21.8860 C.2   761  HDE761      0.0000
     36  CHA        1.6910   -3.1880   21.0230 C.2   761  HDE761      0.0000
     37  CHB       -0.5910    0.4140   18.7630 C.2   761  HDE761      0.0000
     38  CHC       -4.0250    0.2780   22.3580 C.2   761  HDE761      0.0000
     39  CHD       -2.1500   -4.0220   23.9660 C.2   761  HDE761      0.0000
     40  CMA        2.1570    0.4050   17.9150 C.3   761  HDE761      0.0000
     41  CMB       -2.7590    2.4590   17.9250 C.3   761  HDE761      0.0000
     42  CMC       -6.3520   -1.0220   24.2500 C.3   761  HDE761      0.0000
     43  CMD       -0.2310   -6.2400   24.6920 C.3   761  HDE761      0.0000
     44  ONA        0.9120   -1.3120   16.7990 O.2   761  HDE761      0.0000
@<TRIPOS>BOND
     1    44    18    1
     2    13    34    2
     3    34     7    1
     4    34    30    1
     5    40    18    1
     6    41    14    1
     7     7    12    1
     8    18    12    2
     9    18    22    1
    10    30    26    2
    11    37    22    2
    12    37     8    1
    13    12    26    1
    14    12     6    1
    15    22     2    1
    16    14     8    1
    17    14    19    2
    18    31    27    1
    19     8     3    2
    20     6     2    1
    21     6    36    2
    22     2     1    1
    23    19    27    1
    24    19    23    1
    25     3    23    1
    26     3     1    1
    27    11    35   ar
    28    36    25    1
    29    23    38    2
    30     1     5    1
    31     1     4    1
    32    35    33    1
    33    35    17   ar
    34    33    29    1
    35    25     5    2
    36    25    21    1
    37     5    10    1
    38    38     9    1
    39    29    21    1
    40    21    16    2
    41     4     9   ar
    42     4    24   ar
    43     9    15   ar
    44    10    16    1
    45    10    39    2
    46    16    43    1
    47    24    39    1
    48    24    20   ar
    49    15    42    1
    50    15    20   ar
    51    20    28    1
    52    32    28    1
