@<TRIPOS>MOLECULE
3p9s_HDD_A_1.pdb
 44 52 0 0 0
SMALL
GASTEIGER

@<TRIPOS>ATOM
      1 FE         -1.6350   -1.7710   21.4700 Fe    760  HDD760      0.0000
      2  CHA        1.5130   -3.1990   21.2400 C.2   760  HDD760      0.0000
      3  CHB       -2.4650   -4.0190   23.9710 C.2   760  HDD760      0.0000
      4  CHC       -4.4140    0.0590   22.1510 C.2   760  HDD760      0.0000
      5  CHD       -0.8690    0.3390   18.8090 C.2   760  HDD760      0.0000
      6  NA        -0.6890   -3.3130   22.4070 N.2   760  HDD760      0.0000
      7  C1A        0.6230   -3.7130   22.1570 C.2   760  HDD760      0.0000
      8  C2A        0.9200   -4.8310   23.0230 C.2   760  HDD760      0.0000
      9  C3A       -0.1590   -5.0530   23.7810 C.2   760  HDD760      0.0000
     10  C4A       -1.2010   -4.1100   23.4230 C.2   760  HDD760      0.0000
     11  CMA       -0.2730   -6.1500   24.8470 C.3   760  HDD760      0.0000
     12  CAA        2.2690   -5.6020   23.0760 C.3   760  HDD760      0.0000
     13  CBA        2.2630   -6.8010   22.1160 C.3   760  HDD760      0.0000
     14  CGA        3.5980   -7.5090   22.2520 C.2   760  HDD760      0.0000
     15  O1A        4.3940   -7.5530   21.2730 O.co2 760  HDD760      0.0000
     16  O2A        3.8540   -8.0090   23.3700 O.co2 760  HDD760      0.0000
     17  NB        -3.1780   -1.9740   22.7970 N.ar  760  HDD760      0.0000
     18  C1B       -3.3200   -2.9440   23.7840 C.ar  760  HDD760      0.0000
     19  C2B       -4.5280   -2.6370   24.5480 C.ar  760  HDD760      0.0000
     20  C3B       -5.0480   -1.5290   24.0430 C.ar  760  HDD760      0.0000
     21  C4B       -4.2200   -1.0680   22.9320 C.ar  760  HDD760      0.0000
     22  CMB       -5.1620   -3.4590   25.7120 C.3   760  HDD760      0.0000
     23  CAB       -6.3360   -0.8950   24.5810 C.2   760  HDD760      0.0000
     24  CBB       -7.3970   -1.6780   24.7990 C.2   760  HDD760      0.0000
     25  NC        -2.5050   -0.1290   20.5920 N.2   760  HDD760      0.0000
     26  C1C       -3.6290    0.4990   21.0920 C.2   760  HDD760      0.0000
     27  C2C       -3.7520    1.7700   20.3930 C.2   760  HDD760      0.0000
     28  C3C       -2.9030    1.7330   19.3790 C.2   760  HDD760      0.0000
     29  C4C       -1.9990    0.6160   19.5530 C.2   760  HDD760      0.0000
     30  CMC       -5.0130    2.6830   20.3770 C.3   760  HDD760      0.0000
     31  CAC       -2.8130    2.8280   18.3130 C.2   760  HDD760      0.0000
     32  CBC       -3.9530    3.0880   17.6660 C.2   760  HDD760      0.0000
     33  ND         0.0930   -1.4750   20.2040 N.pl3 760  HDD760      0.0000
     34  C1D        0.1450   -0.5470   19.1710 C.2   760  HDD760      0.0000
     35  C2D        1.4040   -0.7060   18.4990 C.2   760  HDD760      0.0000
     36  C3D        2.1610   -1.7890   19.2550 C.2   760  HDD760      0.0000
     37  C4D        1.2710   -2.1880   20.3240 C.2   760  HDD760      0.0000
     38  CMD        2.1140    0.6620   18.4490 C.3   760  HDD760      0.0000
     39  CAD        3.5820   -1.4290   19.6710 C.3   760  HDD760      0.0000
     40  CBD        4.2070   -1.6050   18.2990 C.3   760  HDD760      0.0000
     41  CGD        3.5560   -2.9070   17.8920 C.2   760  HDD760      0.0000
     42  O1D        2.3410   -2.9040   18.4860 O.3   760  HDD760      0.0000
     43  O2D        4.1430   -3.9380   17.5090 O.2   760  HDD760      0.0000
     44  OND        1.2370   -1.2460   17.1620 O.2   760  HDD760      0.0000
@<TRIPOS>BOND
     1    44    35    1
     2    43    41    2
     3    32    31    2
     4    41    40    1
     5    41    42    1
     6    40    39    1
     7    31    28    1
     8    38    35    1
     9    42    36    1
    10    35    34    1
    11    35    36    2
    12     5    34    2
    13     5    29    1
    14    34    33    1
    15    36    39    1
    16    36    37    1
    17    28    29    1
    18    28    27    2
    19    29    25    2
    20    33    37    1
    21    33     1    1
    22    37     2    2
    23    30    27    1
    24    27    26    1
    25    25    26    1
    26    25     1    1
    27    26     4    2
    28     2     7    1
    29    15    14   ar
    30     1     6    1
    31     1    17    1
    32    13    14    1
    33    13    12    1
    34     4    21    1
    35     7     6    2
    36     7     8    1
    37    14    16   ar
    38     6    10    1
    39    17    21   ar
    40    17    18   ar
    41    21    20   ar
    42     8    12    1
    43     8     9    2
    44    10     9    1
    45    10     3    2
    46     9    11    1
    47    18     3    1
    48    18    19   ar
    49    20    19   ar
    50    20    23    1
    51    19    22    1
    52    23    24    2
