@<TRIPOS>MOLECULE
3p9t_TCL_A_1.pdb
 17 18 0 0 0
SMALL
GASTEIGER

@<TRIPOS>ATOM
      1  C1       -22.2890   -3.4620   27.3350 C.ar  221  TCL221      0.0566
      2  C2       -22.6800   -2.3600   28.0440 C.ar  221  TCL221      0.0611
      3  C6       -21.2270   -4.2110   27.7930 C.ar  221  TCL221      0.2307
      4  C5       -20.5570   -3.7980   29.0600 C.ar  221  TCL221      0.1840
      5  C4       -20.9960   -2.6810   29.7340 C.ar  221  TCL221      0.0417
      6  C3       -22.0610   -1.9750   29.2190 C.ar  221  TCL221      0.0147
      7  C11      -15.5710   -3.9230   28.6410 C.ar  221  TCL221      0.0587
      8  C10      -15.9070   -4.9940   29.4910 C.ar  221  TCL221      0.0259
      9  C9       -17.2420   -5.1490   29.8060 C.ar  221  TCL221      0.0929
     10  C8       -18.2410   -4.2160   29.2640 C.ar  221  TCL221      0.1559
     11  C12      -16.5180   -3.0290   28.1240 C.ar  221  TCL221      0.0146
     12  C13      -17.8670   -3.1680   28.4300 C.ar  221  TCL221      0.0392
     13  O7       -19.5170   -4.4780   29.6260 O.3   221  TCL221     -0.4494
     14 CL14      -24.0480   -1.3970   27.4300 Cl    221  TCL221     -0.0821
     15 CL15      -13.8530   -3.7250   28.2060 Cl    221  TCL221     -0.0822
     16 CL16      -17.8770   -6.4320   30.8640 Cl    221  TCL221     -0.0790
     17  O17      -20.8990   -5.3190   27.0480 O.3   221  TCL221     -0.2833
@<TRIPOS>BOND
     1    17     3    1
     2     1     3   ar
     3     1     2   ar
     4    14     2    1
     5     3     4   ar
     6     2     6   ar
     7    11    12   ar
     8    11     7   ar
     9    15     7    1
    10    12    10   ar
    11     7     8   ar
    12     4    13    1
    13     4     5   ar
    14     6     5   ar
    15    10    13    1
    16    10     9   ar
    17     8     9   ar
    18     9    16    1
