@<TRIPOS>MOLECULE
3pa1_FUC_A_1.pdb
 10 10 0 0 0
SMALL
GASTEIGER

@<TRIPOS>ATOM
      1  C1         3.1050    5.5430   40.3720 C.3     1  FUC1        0.1776
      2  C2         2.5820    6.7090   39.5400 C.3     1  FUC1        0.2141
      3  C3         2.4450    7.9380   40.4380 C.3     1  FUC1        0.2172
      4  C4         3.7650    8.2140   41.1670 C.3     1  FUC1        0.2116
      5  C5         4.2500    6.9530   41.8780 C.3     1  FUC1        0.1483
      6  C6         5.6230    7.1680   42.5210 C.3     1  FUC1        0.0349
      7  O2         1.3620    6.3330   38.9360 O.3     1  FUC1       -0.2176
      8  O3         2.0860    9.0440   39.6590 O.3     1  FUC1       -0.2175
      9  O4         4.7420    8.6740   40.2490 O.3     1  FUC1       -0.2177
     10  O5         4.3390    5.9230   40.9160 O.3     1  FUC1       -0.3508
@<TRIPOS>BOND
     1     7     2    1
     2     2     1    1
     3     2     3    1
     4     8     3    1
     5     9     4    1
     6     1    10    1
     7     3     4    1
     8    10     5    1
     9     4     5    1
    10     5     6    1
