@<TRIPOS>MOLECULE
3pa2_FUC_A_1.pdb
 10 10 0 0 0
SMALL
GASTEIGER

@<TRIPOS>ATOM
      1  C1         3.7700    5.6390   40.5730 C.3     1  FUC1        0.1776
      2  C2         3.2360    6.8020   39.7460 C.3     1  FUC1        0.2141
      3  C3         3.3350    8.1130   40.5260 C.3     1  FUC1        0.2172
      4  C4         4.7360    8.3030   41.1010 C.3     1  FUC1        0.2116
      5  C5         5.1620    7.0550   41.8620 C.3     1  FUC1        0.1483
      6  C6         6.5910    7.1810   42.3920 C.3     1  FUC1        0.0349
      7  O2         1.8770    6.5370   39.4640 O.3     1  FUC1       -0.2176
      8  O3         3.0280    9.2160   39.6820 O.3     1  FUC1       -0.2175
      9  O4         5.6750    8.5660   40.0660 O.3     1  FUC1       -0.2177
     10  O5         5.0800    5.9410   40.9910 O.3     1  FUC1       -0.3508
@<TRIPOS>BOND
     1     7     2    1
     2     8     3    1
     3     2     3    1
     4     2     1    1
     5     9     4    1
     6     3     4    1
     7     1    10    1
     8    10     5    1
     9     4     5    1
    10     5     6    1
