@<TRIPOS>MOLECULE
3pa3_C70_A_1.pdb
 26 29 0 0 0
SMALL
GASTEIGER

@<TRIPOS>ATOM
      1  C01       18.7050   -2.9680   10.4390 C.ar    1  C701        0.0099
      2  C02       19.2210   -2.0430    9.5330 C.ar    1  C701        0.0296
      3  S03       18.0400   -0.9130    9.0410 S.2     1  C701       -0.0851
      4  C04       16.8210   -1.6100   10.0370 C.ar    1  C701        0.0562
      5  C05       17.3370   -2.7040   10.7400 C.ar    1  C701        0.0429
      6  C06       15.5540   -1.2230   10.1960 C.ar    1  C701        0.1653
      7  N07       14.7480   -1.9080   11.0650 N.ar    1  C701       -0.1415
      8  N08       15.2300   -2.9480   11.7760 N.ar    1  C701       -0.1313
      9  C09       16.4750   -3.3750   11.6670 C.ar    1  C701        0.1697
     10  N10       16.9490   -4.4260   12.4280 N.pl3   1  C701       -0.2191
     11  C11       20.5390   -2.0440    8.9380 C.ar    1  C701        0.0061
     12  C12       15.0550   -0.0500    9.5550 C.2     1  C701        0.3042
     13  C13       16.2100   -4.8510   13.6030 C.3     1  C701        0.1115
     14  C14       16.6070   -3.9230   14.8040 C.3     1  C701        0.1102
     15  N15       15.9710   -4.3760   16.0760 N.3     1  C701       -0.2162
     16  C16       16.4140   -5.7440   16.4020 C.3     1  C701        0.0888
     17  C17       15.9740   -6.7040   15.2750 C.3     1  C701        0.0206
     18  C18       16.6550   -6.2700   13.9550 C.3     1  C701        0.0246
     19  C19       21.3840   -3.1770    9.0300 C.ar    1  C701        0.0014
     20  C20       22.6200   -3.1730    8.3830 C.ar    1  C701        0.0114
     21  C21       23.0060   -2.0450    7.6780 C.ar    1  C701        0.0577
     22  C22       22.1760   -0.9210    7.5720 C.ar    1  C701        0.0114
     23  C23       20.9270   -0.9130    8.2080 C.ar    1  C701        0.0014
     24 CL24       24.5510   -2.0560    6.8360 Cl      1  C701       -0.0822
     25  N25       13.8320    0.3670    9.8990 N.am    1  C701       -0.0823
     26  O26       15.7310    0.5900    8.7360 O.2     1  C701       -0.2649
@<TRIPOS>BOND
     1    24    21    1
     2    22    21   ar
     3    22    23   ar
     4    21    20   ar
     5    23    11   ar
     6    20    19   ar
     7    26    12    2
     8    11    19   ar
     9    11     2    1
    10     3     2   ar
    11     3     4   ar
    12     2     1   ar
    13    12    25   am
    14    12     6    1
    15     4     6   ar
    16     4     5   ar
    17     6     7   ar
    18     1     5   ar
    19     5     9   ar
    20     7     8   ar
    21     9     8   ar
    22     9    10    1
    23    10    13    1
    24    13    18    1
    25    13    14    1
    26    18    17    1
    27    14    15    1
    28    17    16    1
    29    15    16    1
