@<TRIPOS>MOLECULE
3pa4_C72_A_1.pdb
 26 29 0 0 0
SMALL
GASTEIGER

@<TRIPOS>ATOM
      1  C01       18.3630   -2.9740   10.4180 C.ar    1  C721        0.0098
      2  C02       18.8580   -2.0370    9.5150 C.ar    1  C721        0.0296
      3  S03       17.6570   -0.9360    9.0660 S.2     1  C721       -0.0866
      4  C04       16.4680   -1.6520   10.0720 C.ar    1  C721        0.0382
      5  C05       16.9860   -2.7550   10.7430 C.ar    1  C721        0.0397
      6  C06       15.1290   -1.2360   10.2720 C.ar    1  C721        0.0818
      7  C07       14.3710   -1.9810   11.1150 C.ar    1  C721        0.1054
      8  N08       14.8120   -3.0400   11.7490 N.ar    1  C721       -0.2275
      9  C09       16.1060   -3.4400   11.6610 C.ar    1  C721        0.1479
     10  N10       16.5340   -4.5270   12.3870 N.pl3   1  C721       -0.2206
     11  C11       20.2200   -1.9700    8.9360 C.ar    1  C721        0.0060
     12  C12       14.5930   -0.0750    9.5780 C.2     1  C721        0.2862
     13  C13       15.8280   -4.8960   13.6230 C.3     1  C721        0.1114
     14  C14       16.2220   -3.9310   14.7840 C.3     1  C721        0.1102
     15  N15       15.6350   -4.4330   16.0700 N.3     1  C721       -0.2162
     16  C16       16.1170   -5.7830   16.4050 C.3     1  C721        0.0888
     17  C17       15.6750   -6.7890   15.3280 C.3     1  C721        0.0206
     18  C18       16.2700   -6.3380   13.9760 C.3     1  C721        0.0246
     19  C19       20.6320   -0.8450    8.2190 C.ar    1  C721        0.0014
     20  C20       21.9090   -0.7930    7.6750 C.ar    1  C721        0.0114
     21  C21       22.7670   -1.8730    7.8620 C.ar    1  C721        0.0577
     22  C22       22.3730   -3.0020    8.5630 C.ar    1  C721        0.0114
     23  C23       21.0900   -3.0440    9.1150 C.ar    1  C721        0.0014
     24 CL24       24.3620   -1.8100    7.1740 Cl      1  C721       -0.0822
     25  N25       13.3450    0.3870    9.9930 N.am    1  C721       -0.0836
     26  O26       15.2350    0.4800    8.6620 O.2     1  C721       -0.2666
@<TRIPOS>BOND
     1    24    21    1
     2    20    21   ar
     3    20    19   ar
     4    21    22   ar
     5    19    11   ar
     6    22    23   ar
     7    26    12    2
     8    11    23   ar
     9    11     2    1
    10     3     2   ar
    11     3     4   ar
    12     2     1   ar
    13    12    25   am
    14    12     6    1
    15     4     6   ar
    16     4     5   ar
    17     6     7   ar
    18     1     5   ar
    19     5     9   ar
    20     7     8   ar
    21     9     8   ar
    22     9    10    1
    23    10    13    1
    24    13    18    1
    25    13    14    1
    26    18    17    1
    27    14    15    1
    28    17    16    1
    29    15    16    1
