@<TRIPOS>MOLECULE
3pa5_C73_A_1.pdb
 25 27 0 0 0
SMALL
GASTEIGER

@<TRIPOS>ATOM
      1  S01       17.5890   -0.9460    9.0380 S.2     1  C731       -0.0702
      2  C02       16.3890   -1.5600   10.0860 C.ar    1  C731        0.1088
      3  C03       16.8590   -2.5890   10.8490 C.ar    1  C731        0.0770
      4  C04       18.1950   -2.9040   10.5270 C.ar    1  C731        0.0129
      5  C05       18.7240   -2.0730    9.5300 C.ar    1  C731        0.0309
      6  N06       15.1170   -1.0140   10.1860 N.am    1  C731       -0.1529
      7  C07       14.6720    0.0380    9.4820 C.2     1  C731        0.3637
      8  N08       13.3840    0.3810    9.7940 N.am    1  C731       -0.0676
      9  O09       15.3170    0.6450    8.6030 O.2     1  C731       -0.2470
     10  C10       15.9870   -3.2120   11.8270 C.2     1  C731        0.2666
     11  O11       14.8510   -2.8400   11.9220 O.2     1  C731       -0.2683
     12  N12       16.5340   -4.2490   12.5440 N.am    1  C731       -0.2019
     13  C13       15.7620   -4.8940   13.6280 C.3     1  C731        0.1130
     14  C14       16.1180   -3.9770   14.8780 C.3     1  C731        0.1103
     15  N15       15.5520   -4.4760   16.1660 N.3     1  C731       -0.2162
     16  C16       16.0320   -5.8270   16.4700 C.3     1  C731        0.0888
     17  C17       15.7490   -6.8040   15.3200 C.3     1  C731        0.0206
     18  C18       16.3030   -6.2790   13.9590 C.3     1  C731        0.0246
     19  C19       20.0670   -2.0670    8.9800 C.ar    1  C731        0.0061
     20  C20       20.5480   -0.9530    8.2740 C.ar    1  C731        0.0014
     21  C21       21.8320   -0.9380    7.7770 C.ar    1  C731        0.0114
     22  C22       22.6780   -2.0220    8.0010 C.ar    1  C731        0.0577
     23  C23       22.2260   -3.1240    8.7170 C.ar    1  C731        0.0114
     24  C24       20.9230   -3.1360    9.2130 C.ar    1  C731        0.0014
     25 CL25       24.2940   -2.0100    7.3690 Cl      1  C731       -0.0822
@<TRIPOS>BOND
     1    25    22    1
     2    21    22   ar
     3    21    20   ar
     4    22    23   ar
     5    20    19   ar
     6     9     7    2
     7    23    24   ar
     8    19    24   ar
     9    19     5    1
    10     1     5   ar
    11     1     2   ar
    12     7     8   am
    13     7     6   am
    14     5     4   ar
    15     2     6    1
    16     2     3   ar
    17     4     3   ar
    18     3    10    1
    19    10    11    2
    20    10    12   am
    21    12    13    1
    22    13    18    1
    23    13    14    1
    24    18    17    1
    25    14    15    1
    26    17    16    1
    27    15    16    1
