@<TRIPOS>MOLECULE
3pa7_III_D_1.pdb
 32 33 0 0 0
SMALL
GASTEIGER

@<TRIPOS>ATOM
      1  N          3.9730   15.2430  -29.4050 N.3     1  ALA1       -0.1231
      2  CA         5.1460   15.1020  -28.4910 C.3     1  ALA1        0.1694
      3  C          4.9300   15.7450  -27.1210 C.2     1  ALA1        0.2592
      4  O          4.5300   16.9100  -27.0160 O.2     1  ALA1       -0.2718
      5  CB         6.4000   15.6460  -29.1420 C.3     1  ALA1        0.0304
      6  N          5.2320   14.9540  -26.0900 N.am    2  LEU2       -0.1966
      7  CA         4.9960   15.2620  -24.6650 C.3     2  LEU2        0.1713
      8  C          3.5990   15.7930  -24.2800 C.2     2  LEU2        0.2458
      9  O          3.3800   17.0080  -24.2230 O.2     2  LEU2       -0.2730
     10  CB         6.1200   16.1210  -24.0560 C.3     2  LEU2        0.0310
     11  CG         6.2520   16.1570  -22.5180 C.3     2  LEU2        0.0022
     12  CD1        5.9240   14.8130  -21.8620 C.3     2  LEU2        0.0001
     13  CD2        7.6490   16.6270  -22.0770 C.3     2  LEU2        0.0001
     14  N          2.6430   14.8720  -24.0560 N.am    3  PRO3       -0.2716
     15  CA         2.6710   13.5090  -24.5830 C.3     3  PRO3        0.1536
     16  C          1.6360   13.4300  -25.6930 C.2     3  PRO3        0.2599
     17  O          1.2310   14.4720  -26.2040 O.2     3  PRO3       -0.2715
     18  CB         2.2750   12.6470  -23.3770 C.3     3  PRO3        0.0310
     19  CG         1.9400   13.6170  -22.2560 C.3     3  PRO3        0.0237
     20  CD         1.7580   14.9640  -22.8880 C.3     3  PRO3        0.0939
     21  N          1.2110   12.2260  -26.0710 N.am    4  PHE4       -0.1938
     22  CA         0.2230   12.0690  -27.1450 C.3     4  PHE4        0.2021
     23  C         -1.1560   11.5940  -26.6870 C.2     4  PHE4        0.3845
     24  O         -1.9740   11.1530  -27.5010 O.co2   4  PHE4       -0.2437
     25  CB         0.7530   11.2000  -28.2990 C.3     4  PHE4        0.0596
     26  CG         2.0430   10.4680  -28.0000 C.ar    4  PHE4       -0.0199
     27  CD1        3.0930   10.5210  -28.9080 C.ar    4  PHE4       -0.0042
     28  CD2        2.1990    9.7100  -26.8400 C.ar    4  PHE4       -0.0042
     29  CE1        4.2750    9.8480  -28.6740 C.ar    4  PHE4       -0.0003
     30  CE2        3.3830    9.0360  -26.5910 C.ar    4  PHE4       -0.0003
     31  CZ         4.4230    9.1090  -27.5160 C.ar    4  PHE4       -0.0000
     32  OXT       -1.4940   11.6530  -25.5080 O.co2   4  PHE4       -0.2437
@<TRIPOS>BOND
     1     1     2    1
     2     5     2    1
     3    27    29   ar
     4    27    26   ar
     5    29    31   ar
     6     2     3    1
     7    25    26    1
     8    25    22    1
     9    26    28   ar
    10    31    30   ar
    11    24    23   ar
    12    22    23    1
    13    22    21    1
    14     3     4    2
    15     3     6   am
    16    28    30   ar
    17    23    32   ar
    18    17    16    2
    19     6     7    1
    20    21    16   am
    21    16    15    1
    22     7     8    1
    23     7    10    1
    24    15    14    1
    25    15    18    1
    26     8     9    2
    27     8    14   am
    28    14    20    1
    29    10    11    1
    30    18    19    1
    31    20    19    1
    32    11    13    1
    33    11    12    1
