@<TRIPOS>MOLECULE
3pa9_PMP_A_1.pdb
 16 16 0 0 0
SMALL
GASTEIGER

@<TRIPOS>ATOM
      1  N1        26.3990    4.9830  -14.3280 N.ar  600  PMP600     -0.2452
      2  C2        26.0160    6.0250  -15.1470 C.ar  600  PMP600      0.0978
      3  C2A       26.6590    6.1670  -16.5020 C.3   600  PMP600      0.0555
      4  C3        25.0640    6.9390  -14.6870 C.ar  600  PMP600      0.2063
      5  O3        24.6790    7.9880  -15.4730 O.3   600  PMP600     -0.2856
      6  C4        24.4880    6.7510  -13.4240 C.ar  600  PMP600      0.0369
      7  C4A       23.3760    7.6660  -12.9700 C.3   600  PMP600      0.1386
      8  N4A       22.0810    7.0610  -13.3150 N.3   600  PMP600     -0.1261
      9  C5        24.9170    5.6950  -12.6070 C.ar  600  PMP600      0.0275
     10  C6        25.7900    4.7490  -13.1290 C.ar  600  PMP600      0.0965
     11  C5A       24.4680    5.5530  -11.1600 C.3   600  PMP600      0.1816
     12  O4P       23.1620    4.9920  -11.1450 O.3   600  PMP600     -0.2653
     13  P         22.3800    4.9060   -9.7480 P.3   600  PMP600      0.5329
     14  O1P       23.3670    4.5610   -8.6490 O.3   600  PMP600     -0.1145
     15  O2P       21.3530    3.8130   -9.8990 O.2   600  PMP600     -0.2224
     16  O3P       21.7440    6.2460   -9.4700 O.3   600  PMP600     -0.1145
@<TRIPOS>BOND
     1     3     2    1
     2     5     4    1
     3     2     4   ar
     4     2     1   ar
     5     4     6   ar
     6     1    10   ar
     7     6     7    1
     8     6     9   ar
     9     8     7    1
    10    10     9   ar
    11     9    11    1
    12    11    12    1
    13    12    13    1
    14    15    13    2
    15    13    16    1
    16    13    14    1
