@<TRIPOS>MOLECULE
3paa_PMP_A_1.pdb
 16 16 0 0 0
SMALL
GASTEIGER

@<TRIPOS>ATOM
      1  N1        26.5590    5.0230  -14.3000 N.2   600  PMP600     -0.2711
      2  C2        26.2100    6.0650  -15.1300 C.2   600  PMP600      0.0922
      3  C2A       26.8740    6.2130  -16.4650 C.3   600  PMP600      0.0550
      4  C3        25.2500    6.9750  -14.7020 C.2   600  PMP600      0.2023
      5  O3        24.8780    7.9890  -15.5290 O.2   600  PMP600     -0.2859
      6  C4        24.6490    6.8010  -13.4490 C.2   600  PMP600      0.0189
      7  C4A       23.5450    7.7190  -12.9980 C.3   600  PMP600      0.1347
      8  N4A       22.2780    7.0330  -13.2740 N.3   600  PMP600     -0.1265
      9  C5        25.0220    5.7220  -12.6380 C.3   600  PMP600      0.0774
     10  C6        25.8310    4.7450  -13.1870 C.3   600  PMP600      0.1319
     11  C5A       24.5700    5.5840  -11.1890 C.3   600  PMP600      0.1598
     12  O4P       23.2540    5.0450  -11.1480 O.3   600  PMP600     -0.2698
     13  P         22.4950    4.9020   -9.7430 P.3   600  PMP600      0.5326
     14  O1P       23.4800    4.6090   -8.6360 O.3   600  PMP600     -0.1145
     15  O2P       21.5320    3.7620   -9.9430 O.2   600  PMP600     -0.2224
     16  O3P       21.8310    6.2040   -9.4260 O.3   600  PMP600     -0.1145
@<TRIPOS>BOND
     1     3     2    1
     2     5     4    1
     3     2     4    1
     4     2     1    2
     5     4     6    2
     6     1    10    1
     7     6     7    1
     8     6     9    1
     9     8     7    1
    10    10     9    1
    11     9    11    1
    12    11    12    1
    13    12    13    1
    14    15    13    2
    15    13    16    1
    16    13    14    1
