@<TRIPOS>MOLECULE
3pae_DRW_A_1.pdb
 27 28 0 0 0
SMALL
GASTEIGER

@<TRIPOS>ATOM
      1  CAA       29.2620  -53.5940    5.6200 C.3   300  DRW300      0.0356
      2  CAB       33.5650  -52.3660    7.1970 C.3   300  DRW300      0.0033
      3  NAC       36.8640  -47.3220   14.9200 N.3   300  DRW300      0.0528
      4  OAD       29.8380  -49.8820    6.6360 O.3   300  DRW300     -0.2203
      5  OAE       33.7890  -49.1140   11.2700 O.co2 300  DRW300     -0.2392
      6  OAF       36.3130  -47.9290   12.4810 O.2   300  DRW300     -0.1371
      7  OAG       38.5970  -48.1880   13.2670 O.2   300  DRW300     -0.1371
      8  OAH       31.9990  -48.3170   10.3480 O.co2 300  DRW300     -0.2392
      9  OAI       31.1380  -54.4100    6.9210 O.3   300  DRW300     -0.2230
     10  CAJ       29.5830  -51.1120    7.0500 C.3   300  DRW300      0.1865
     11  CAK       34.0710  -52.8290   12.2940 C.3   300  DRW300      0.0995
     12  CAL       36.9760  -50.8210   12.9490 C.3   300  DRW300      0.1340
     13  CAM       36.4120  -53.1270   12.0340 C.3   300  DRW300      0.0312
     14  NAN       31.4070  -50.6890    8.9140 N.2   300  DRW300     -0.2692
     15  NAO       34.7110  -51.8550   13.2030 N.3   300  DRW300     -0.2170
     16  NAP       36.8340  -49.8780   14.1030 N.3   300  DRW300     -0.0626
     17  SAQ       35.1510  -51.7190   10.0380 S.3   300  DRW300     -0.1341
     18  CAR       32.8120  -49.2590   10.5090 C.2   300  DRW300      0.4014
     19  CAS       32.5950  -50.5320    9.6980 C.2   300  DRW300      0.1428
     20  CAT       30.0490  -53.5160    6.9340 C.3   300  DRW300      0.1564
     21  CAU       32.8190  -52.5270    8.5270 C.3   300  DRW300      0.0384
     22  CAV       36.1740  -52.1330   13.1840 C.3   300  DRW300      0.0930
     23  CAW       35.1160  -53.0870   11.2370 C.3   300  DRW300      0.0668
     24  CAX       30.6730  -52.1550    7.1370 C.3   300  DRW300      0.0858
     25  CAY       31.3280  -52.0880    8.4970 C.3   300  DRW300      0.1093
     26  CAZ       33.3980  -51.6160    9.5910 C.3   300  DRW300      0.0957
     27  SBA       37.1540  -48.3000   13.6580 S.O2  300  DRW300      0.1465
@<TRIPOS>BOND
     1     1    20    1
     2     4    10    1
     3     9    20    1
     4    20    24    1
     5    10    24    1
     6    24    25    1
     7     2    21    1
     8    25    21    1
     9    25    14    1
    10    21    26    1
    11    14    19    2
    12    26    19    1
    13    26    17    1
    14    19    18    1
    15    17    23    1
    16     8    18   ar
    17    18     5   ar
    18    23    13    1
    19    23    11    1
    20    13    22    1
    21    11    15    1
    22     6    27    2
    23    12    22    1
    24    12    16    1
    25    22    15    1
    26     7    27    2
    27    27    16    1
    28    27     3    1
