@<TRIPOS>MOLECULE
3pag_DRW_A_1.pdb
 27 28 0 0 0
SMALL
GASTEIGER

@<TRIPOS>ATOM
      1  CAA       28.9210   53.4690   -4.7940 C.3   300  DRW300      0.0356
      2  CAB       33.4230   52.4810   -6.0520 C.3   300  DRW300      0.0033
      3  NAC       36.7680   47.4510  -14.0030 N.3   300  DRW300      0.0528
      4  OAD       29.7230   50.0050   -5.6990 O.3   300  DRW300     -0.2203
      5  OAE       31.6120   48.5810   -9.3330 O.co2 300  DRW300     -0.2392
      6  OAF       36.2960   48.0260  -11.5410 O.2   300  DRW300     -0.1371
      7  OAG       38.5710   48.2840  -12.3990 O.2   300  DRW300     -0.1371
      8  OAH       33.4530   49.2720  -10.3220 O.co2 300  DRW300     -0.2392
      9  OAI       31.0630   54.4600   -5.2090 O.3   300  DRW300     -0.2230
     10  CAJ       29.5170   51.2670   -6.0130 C.3   300  DRW300      0.1865
     11  CAK       34.1110   52.8420  -11.1580 C.3   300  DRW300      0.0995
     12  CAL       37.0560   50.8730  -11.9800 C.3   300  DRW300      0.1340
     13  CAM       36.4530   53.0290  -10.8000 C.3   300  DRW300      0.0312
     14  NAN       31.1710   50.9730   -7.9870 N.2   300  DRW300     -0.2692
     15  NAO       34.7330   51.7830  -11.9750 N.3   300  DRW300     -0.2170
     16  NAP       36.7700   49.9740  -13.1210 N.3   300  DRW300     -0.0626
     17  SAQ       35.0750   51.6910   -8.8440 S.3   300  DRW300     -0.1341
     18  CAR       32.5120   49.4520   -9.5060 C.2   300  DRW300      0.4014
     19  CAS       32.4000   50.7090   -8.6590 C.2   300  DRW300      0.1428
     20  CAT       30.0230   53.6770   -5.8080 C.3   300  DRW300      0.1564
     21  CAU       32.7560   52.6510   -7.4430 C.3   300  DRW300      0.0384
     22  CAV       36.1740   52.1450  -12.0420 C.3   300  DRW300      0.0930
     23  CAW       35.1330   53.0610  -10.0440 C.3   300  DRW300      0.0668
     24  CAX       30.6150   52.3180   -6.1090 C.3   300  DRW300      0.0858
     25  CAY       31.2360   52.3330   -7.4670 C.3   300  DRW300      0.1093
     26  CAZ       33.3190   51.6760   -8.4240 C.3   300  DRW300      0.0957
     27  SBA       37.1110   48.4050  -12.7340 S.O2  300  DRW300      0.1465
@<TRIPOS>BOND
     1     3    27    1
     2    16    27    1
     3    16    12    1
     4    27     7    2
     5    27     6    2
     6    22    12    1
     7    22    15    1
     8    22    13    1
     9    15    11    1
    10    11    23    1
    11    13    23    1
    12     8    18   ar
    13    23    17    1
    14    18     5   ar
    15    18    19    1
    16    17    26    1
    17    19    26    1
    18    19    14    2
    19    26    21    1
    20    14    25    1
    21    25    21    1
    22    25    24    1
    23    21     2    1
    24    24    10    1
    25    24    20    1
    26    10     4    1
    27    20     9    1
    28    20     1    1
