@<TRIPOS>MOLECULE
3pah_ALE_A_1.pdb
 13 13 0 0 0
SMALL
GASTEIGER

@<TRIPOS>ATOM
      1  C1        -5.1290   25.3450    4.9170 C.ar  700  ALE700      0.0125
      2  C2        -3.8640   24.9550    4.3240 C.ar  700  ALE700      0.0436
      3  C3        -2.6510   25.1960    5.0420 C.ar  700  ALE700      0.2340
      4  C4        -2.7350   25.8180    6.3310 C.ar  700  ALE700      0.2342
      5  C5        -3.9670   26.1990    6.8880 C.ar  700  ALE700      0.0452
      6  C7        -6.4750   25.0710    4.1940 C.3   700  ALE700      0.1916
      7  C6        -5.1460   25.9750    6.2060 C.ar  700  ALE700      0.0017
      8  O1        -1.3790   24.8380    4.5470 O.3   700  ALE700     -0.2832
      9  O2        -1.6050   26.0520    7.0570 O.3   700  ALE700     -0.2831
     10  O3        -6.2890   25.1560    2.7930 O.3   700  ALE700     -0.2167
     11  C8        -7.6140   26.0800    4.6560 C.3   700  ALE700      0.1261
     12  N1        -8.0740   25.8470    6.0950 N.3   700  ALE700     -0.2135
     13  C9        -8.2520   24.4080    6.5930 C.3   700  ALE700      0.1076
@<TRIPOS>BOND
     1    10     6    1
     2     6    11    1
     3     6     1    1
     4     2     1   ar
     5     2     3   ar
     6     8     3    1
     7    11    12    1
     8     1     7   ar
     9     3     4   ar
    10    12    13    1
    11     7     5   ar
    12     4     5   ar
    13     4     9    1
