@<TRIPOS>MOLECULE
3pak_MAN_A_1.pdb
 12 12 0 0 0
SMALL
GASTEIGER

@<TRIPOS>ATOM
      1  C1        82.0590   37.2440   52.3520 C.3   500  MAN500      0.3024
      2  C2        83.0080   37.7490   51.2560 C.3   500  MAN500      0.2434
      3  C3        82.6530   37.0540   49.9350 C.3   500  MAN500      0.2199
      4  C4        82.7270   35.5330   50.1150 C.3   500  MAN500      0.2144
      5  C5        81.8430   35.0820   51.2890 C.3   500  MAN500      0.1836
      6  C6        82.0290   33.6010   51.5770 C.3   500  MAN500      0.2142
      7  O1        80.7420   37.5220   52.0040 O.3   500  MAN500     -0.1869
      8  O2        84.3540   37.4440   51.6160 O.3   500  MAN500     -0.2148
      9  O3        83.5630   37.4650   48.9270 O.3   500  MAN500     -0.2174
     10  O4        82.3030   34.8880   48.9270 O.3   500  MAN500     -0.2176
     11  O5        82.1940   35.8110   52.4980 O.3   500  MAN500     -0.3236
     12  O6        81.1940   33.1580   52.6390 O.3   500  MAN500     -0.2176
@<TRIPOS>BOND
     1     9     3    1
     2    10     4    1
     3     3     4    1
     4     3     2    1
     5     4     5    1
     6     2     8    1
     7     2     1    1
     8     5     6    1
     9     5    11    1
    10     6    12    1
    11     7     1    1
    12     1    11    1
