@<TRIPOS>MOLECULE
3pan_HPA_A_1.pdb
 10 11 0 0 0
SMALL
GASTEIGER

@<TRIPOS>ATOM
      1  N1        23.3730   70.3740   59.7150 N.2   328  HPA328     -0.1726
      2  C2        24.1990   70.8350   60.7580 C.3   328  HPA328      0.2725
      3  N3        24.0180   70.4040   62.0230 N.2   328  HPA328     -0.1902
      4  C4        22.9880   69.4860   62.3010 C.1   328  HPA328      0.0598
      5  C5        22.1850   69.0430   61.2750 C.2   328  HPA328      0.2226
      6  C6        22.3540   69.4660   59.9830 C.1   328  HPA328      0.1796
      7  O6        21.6280   69.0830   59.1030 O.2   328  HPA328     -0.2200
      8  N7        21.2260   68.1380   61.7610 N.2   328  HPA328     -0.2230
      9  C8        21.4190   68.0030   63.1060 C.3   328  HPA328      0.2622
     10  N9        22.5280   68.8410   63.4890 N.2   328  HPA328     -0.1910
@<TRIPOS>BOND
     1     7     6    2
     2     1     6    2
     3     1     2    1
     4     6     5    1
     5     2     3    1
     6     5     8    2
     7     5     4    1
     8     8     9    1
     9     3     4    2
    10     4    10    2
    11     9    10    1
