@<TRIPOS>MOLECULE
3pao_ADE_A_1.pdb
 10 11 0 0 0
SMALL
GASTEIGER

@<TRIPOS>ATOM
      1  N9        22.5490   68.7220   63.6020 N.2   328  ADE328     -0.1914
      2  C8        21.4820   67.9420   63.2320 C.3   328  ADE328      0.2618
      3  N7        21.2010   67.9900   61.9460 N.2   328  ADE328     -0.2267
      4  C5        22.1510   68.8570   61.4370 C.2   328  ADE328      0.2303
      5  C6        22.4070   69.3290   60.1350 C.2   328  ADE328      0.4393
      6  N6        21.6860   68.9830   59.0630 N.pl3 328  ADE328      0.2185
      7  N1        23.4300   70.1910   59.9780 N.2   328  ADE328     -0.0265
      8  C2        24.1470   70.5500   61.0440 C.3   328  ADE328      0.4008
      9  N3        24.0020   70.1720   62.3060 N.2   328  ADE328     -0.1640
     10  C4        22.9790   69.3200   62.4400 C.1   328  ADE328      0.0579
@<TRIPOS>BOND
     1     6     5    1
     2     7     5    2
     3     7     8    1
     4     5     4    1
     5     8     9    1
     6     4     3    2
     7     4    10    1
     8     3     2    1
     9     9    10    2
    10    10     1    2
    11     2     1    1
