@<TRIPOS>MOLECULE
3paq_MMA_A_1.pdb
 13 13 0 0 0
SMALL
GASTEIGER

@<TRIPOS>ATOM
      1  C1        82.2770   35.0910   52.7500 C.3   501  MMA501      0.2695
      2  C2        81.8730   34.4690   51.4040 C.3   501  MMA501      0.2406
      3  C3        82.6270   35.1430   50.2510 C.3   501  MMA501      0.2198
      4  C4        82.3640   36.6420   50.2970 C.3   501  MMA501      0.2144
      5  C5        82.7950   37.1980   51.6520 C.3   501  MMA501      0.1835
      6  C6        82.4780   38.6740   51.7400 C.3   501  MMA501      0.2142
      7  C7        83.7950   33.9320   54.1830 C.3   501  MMA501      0.1769
      8  O1        83.6070   34.8040   53.0470 O.3   501  MMA501     -0.3259
      9  O2        80.4770   34.6360   51.2130 O.3   501  MMA501     -0.2149
     10  O3        82.1690   34.6270   49.0150 O.3   501  MMA501     -0.2174
     11  O4        83.0640   37.3100   49.2500 O.3   501  MMA501     -0.2176
     12  O5        82.0870   36.5260   52.7330 O.3   501  MMA501     -0.3256
     13  O6        81.1400   38.8880   52.1510 O.3   501  MMA501     -0.2176
@<TRIPOS>BOND
     1    10     3    1
     2    11     4    1
     3     3     4    1
     4     3     2    1
     5     4     5    1
     6     9     2    1
     7     2     1    1
     8     5     6    1
     9     5    12    1
    10     6    13    1
    11    12     1    1
    12     1     8    1
    13     8     7    1
