@<TRIPOS>MOLECULE
3pax_3MB_A_1.pdb
 11 11 0 0 0
SMALL
GASTEIGER

@<TRIPOS>ATOM
      1  C3        39.6170   22.1600   22.0970 C.ar    1  3MB1        0.1389
      2  O3        38.3090   21.7930   21.7350 O.3     1  3MB1       -0.4714
      3  C7        37.7000   22.2580   20.5070 C.3     1  3MB1        0.2525
      4  C2        40.5300   22.7300   21.1720 C.ar    1  3MB1        0.0415
      5  C1        41.8440   23.0820   21.5820 C.ar    1  3MB1        0.0597
      6  C         42.8110   23.6850   20.5890 C.2     1  3MB1        0.2843
      7  O         43.9680   23.9310   20.9360 O.2     1  3MB1       -0.2667
      8  N         42.4050   23.9540   19.3400 N.am    1  3MB1       -0.0837
      9  C6        42.2430   22.8600   22.9280 C.ar    1  3MB1        0.0048
     10  C5        41.3340   22.3030   23.8440 C.ar    1  3MB1        0.0033
     11  C4        40.0310   21.9570   23.4280 C.ar    1  3MB1        0.0369
@<TRIPOS>BOND
     1     8     6   am
     2     3     2    1
     3     6     7    2
     4     6     5    1
     5     4     5   ar
     6     4     1   ar
     7     5     9   ar
     8     2     1    1
     9     1    11   ar
    10     9    10   ar
    11    11    10   ar
