@<TRIPOS>MOLECULE
3pb3_SAH_A_1.pdb
 26 28 0 0 0
SMALL
GASTEIGER

@<TRIPOS>ATOM
      1  N          8.7710   10.0240   20.9790 N.3   6732  SAH6732    -0.1208
      2  CA         9.5830   11.1810   21.4540 C.3   6732  SAH6732     0.1952
      3  CB        10.8240   10.6930   22.2110 C.3   6732  SAH6732     0.0422
      4  CG        11.2600   11.7080   23.2710 C.3   6732  SAH6732     0.0597
      5  SD        12.6930   11.1910   24.1790 S.3   6732  SAH6732    -0.1375
      6  C          9.9860   12.0330   20.2810 C.2   6732  SAH6732     0.3819
      7  O         10.2430   13.2140   20.4890 O.co2 6732  SAH6732    -0.2441
      8  OXT       10.0690   11.6090   19.1210 O.co2 6732  SAH6732    -0.2441
      9  C5'       12.2260    9.6800   24.9600 C.3   6732  SAH6732     0.0899
     10  C4'       10.9330    9.7880   25.7730 C.3   6732  SAH6732     0.1630
     11  O4'       10.5740    8.4710   26.2040 O.3   6732  SAH6732    -0.3153
     12  C3'       11.0220   10.6590   27.0280 C.3   6732  SAH6732     0.2168
     13  O3'       10.0010   11.6650   26.9920 O.3   6732  SAH6732    -0.2175
     14  C2'       10.7660    9.6930   28.1780 C.3   6732  SAH6732     0.2569
     15  O2'       10.0220   10.2530   29.2760 O.3   6732  SAH6732    -0.2130
     16  C1'       10.0320    8.5390   27.5170 C.3   6732  SAH6732     0.3185
     17  N9        10.2510    7.2780   28.2680 N.pl3 6732  SAH6732    -0.1439
     18  C8        11.4320    6.8120   28.7280 C.3   6732  SAH6732     0.3377
     19  N7        11.2650    5.6380   29.3870 N.2   6732  SAH6732    -0.2095
     20  C5         9.9510    5.3460   29.3600 C.2   6732  SAH6732     0.2526
     21  C6         9.0900    4.2530   29.8620 C.2   6732  SAH6732     0.4393
     22  N6         9.6180    3.2130   30.5510 N.pl3 6732  SAH6732     0.2180
     23  N1         7.7600    4.3290   29.6080 N.2   6732  SAH6732     0.0021
     24  C2         7.2170    5.3550   28.9210 C.3   6732  SAH6732     0.5254
     25  N3         7.9410    6.3780   28.4320 N.2   6732  SAH6732    -0.0055
     26  C4         9.2860    6.4320   28.6190 C.2   6732  SAH6732     0.3518
@<TRIPOS>BOND
     1     8     6   ar
     2     6     7   ar
     3     6     2    1
     4     1     2    1
     5     2     3    1
     6     3     4    1
     7     4     5    1
     8     5     9    1
     9     9    10    1
    10    10    11    1
    11    10    12    1
    12    11    16    1
    13    13    12    1
    14    12    14    1
    15    16    14    1
    16    16    17    1
    17    14    15    1
    18    17    26    1
    19    17    18    1
    20    25    26    2
    21    25    24    1
    22    26    20    1
    23    18    19    1
    24    24    23    1
    25    20    19    2
    26    20    21    1
    27    23    21    2
    28    21    22    1
