@<TRIPOS>MOLECULE
3pb5_F63_A_1.pdb
 15 16 0 0 0
SMALL
GASTEIGER

@<TRIPOS>ATOM
      1  O1        -1.8300    0.6830   10.9580 O.3   1001  F631001    -0.4219
      2  N2        -0.1510    3.5890    9.5800 N.ar  1001  F631001    -0.2391
      3  C3        -0.4200    2.4520   10.2690 C.ar  1001  F631001     0.1363
      4  C4        -1.7030    1.9190   10.3810 C.ar  1001  F631001     0.1677
      5  C5        -2.7560    2.5600    9.7300 C.ar  1001  F631001     0.0408
      6  C6        -2.5100    3.7610    9.0620 C.ar  1001  F631001     0.0238
      7  C7        -1.2060    4.2410    9.0280 C.ar  1001  F631001     0.0991
      8  C8        -2.9760    0.0080   10.8830 C.ar  1001  F631001     0.3010
      9  O9        -4.0400    0.5530   11.5470 O.2   1001  F631001    -0.4264
     10  C10       -5.1100   -0.2640   11.2880 C.ar  1001  F631001     0.1438
     11  C11       -4.7110   -1.3590   10.5450 C.ar  1001  F631001     0.0411
     12  C12       -3.3270   -1.1850   10.2870 C.ar  1001  F631001     0.0812
     13  C13       -6.3660    0.0940   12.0000 C.3   1001  F631001     0.1530
     14  N14       -7.3010    0.7430   11.0840 N.3   1001  F631001    -0.2085
     15  C15       -7.7620   -0.2050   10.0670 C.3   1001  F631001     0.1080
@<TRIPOS>BOND
     1     7     6   ar
     2     7     2   ar
     3     6     5   ar
     4     2     3   ar
     5     5     4   ar
     6    15    14    1
     7     3     4   ar
     8    12    11   ar
     9    12     8   ar
    10     4     1    1
    11    11    10   ar
    12     8     1    1
    13     8     9   ar
    14    14    13    1
    15    10     9   ar
    16    10    13    1
