@<TRIPOS>MOLECULE
3pb7_PBD_X_1.pdb
 22 23 0 0 0
SMALL
GASTEIGER

@<TRIPOS>ATOM
      1  CAA        0.7170   51.0540   21.9440 C.3   390  PBD390      0.2526
      2  CAB        1.7390   46.9840   18.2750 C.3   390  PBD390      0.2526
      3  SAC        8.1040   49.6840   17.1240 S.2   390  PBD390     -0.0152
      4  CAD        8.4590   47.0570   25.4860 C.ar  390  PBD390      0.1193
      5  CAE        4.2220   51.2760   19.5070 C.ar  390  PBD390      0.0199
      6  CAF        3.0220   51.2880   20.2740 C.ar  390  PBD390      0.0414
      7  CAG        8.6820   46.9550   24.1640 C.ar  390  PBD390      0.0980
      8  CAH        8.8000   49.0370   24.6940 C.ar  390  PBD390      0.1786
      9  CAI        3.5280   49.1630   18.4620 C.ar  390  PBD390      0.0566
     10  CAJ        7.9920   48.7920   21.5390 C.3   390  PBD390      0.0479
     11  CAK        8.2810   49.2810   20.1530 C.3   390  PBD390      0.1162
     12  CAL        9.2550   48.5950   22.3120 C.3   390  PBD390      0.1095
     13  NAM        8.4510   48.3650   25.8190 N.ar  390  PBD390     -0.2223
     14  NAN        6.9750   49.6240   19.5500 N.am  390  PBD390     -0.2164
     15  NAO        5.5620   50.1180   17.8580 N.am  390  PBD390     -0.1905
     16  OAP        0.9140   50.0700   20.8630 O.3   390  PBD390     -0.4684
     17  OAQ        1.4390   48.1300   19.1260 O.3   390  PBD390     -0.4683
     18  CAR        6.7900   49.8200   18.2690 C.2   390  PBD390      0.1745
     19  CAS        4.4440   50.1970   18.6240 C.ar  390  PBD390      0.0756
     20  CAT        2.0870   50.2270   20.1090 C.ar  390  PBD390      0.1725
     21  CAU        2.3870   49.1460   19.2600 C.ar  390  PBD390      0.1737
     22  NAV        8.9530   48.1610   23.6980 N.ar  390  PBD390     -0.3078
@<TRIPOS>BOND
     1     3    18    2
     2    15    18    1
     3    15    19    1
     4    18    14    1
     5     2    17    1
     6     9    19   ar
     7     9    21   ar
     8    19     5   ar
     9    17    21    1
    10    21    20   ar
    11     5     6   ar
    12    14    11    1
    13    20     6   ar
    14    20    16    1
    15    11    10    1
    16    16     1    1
    17    10    12    1
    18    12    22    1
    19    22     7   ar
    20    22     8   ar
    21     7     4   ar
    22     8    13   ar
    23     4    13   ar
