@<TRIPOS>MOLECULE
3pb8_AHN_X_1.pdb
 11 11 0 0 0
SMALL
GASTEIGER

@<TRIPOS>ATOM
      1  C        -18.3450  -14.9810   18.6880 C.2   390  AHN390      0.2419
      2  O        -18.8750  -15.7380   17.8180 O.2   390  AHN390     -0.2733
      3  CT       -18.3810  -15.2390   20.2340 C.3   390  AHN390      0.0964
      4  N        -17.7070  -13.8830   18.3250 N.am  390  AHN390     -0.2050
      5  CA       -17.5180  -13.6490   16.9360 C.3   390  AHN390      0.1211
      6  CB       -18.5570  -12.6130   16.3630 C.3   390  AHN390      0.0668
      7  CG       -18.4420  -12.6120   14.8300 C.2   390  AHN390      0.0648
      8  CD2      -18.6660  -13.6240   13.9610 C.3   390  AHN390      0.1683
      9  ND1      -18.0020  -11.5980   14.0870 N.2   390  AHN390     -0.2310
     10  CE1      -18.0250  -11.9410   12.8340 C.2   390  AHN390      0.1939
     11  NE2      -18.4060  -13.2110   12.7010 N.2   390  AHN390     -0.2440
@<TRIPOS>BOND
     1    11    10    2
     2    11     8    1
     3    10     9    1
     4     8     7    1
     5     9     7    2
     6     7     6    1
     7     6     5    1
     8     5     4    1
     9     2     1    2
    10     4     1   am
    11     1     3    1
