@<TRIPOS>MOLECULE
3pb9_1BN_X_1.pdb
 12 13 0 0 0
SMALL
GASTEIGER

@<TRIPOS>ATOM
      1  C1         8.6630   11.9590  -14.6690 C.ar  390  1BN390      0.0983
      2  C2         8.3320   12.0650  -13.3690 C.ar  390  1BN390      0.1193
      3  N1         8.9190   13.1740  -15.1450 N.ar  390  1BN390     -0.3036
      4  C3         8.7760   14.0350  -14.1160 C.ar  390  1BN390      0.1789
      5  N2         8.3840   13.3990  -13.0380 N.ar  390  1BN390     -0.2223
      6  C4         9.4620   13.4600  -16.5180 C.3   390  1BN390      0.1343
      7  C5         8.6620   14.4450  -17.2510 C.ar  390  1BN390      0.0004
      8  C6         7.3100   14.4530  -17.2390 C.ar  390  1BN390     -0.0024
      9  C7         9.3770   15.3400  -18.0310 C.ar  390  1BN390     -0.0024
     10  C8         6.5680   15.3750  -17.9880 C.ar  390  1BN390     -0.0003
     11  C9         8.7020   16.3220  -18.7500 C.ar  390  1BN390     -0.0003
     12  C10        7.2940   16.3020  -18.6880 C.ar  390  1BN390     -0.0000
@<TRIPOS>BOND
     1    11    12   ar
     2    11     9   ar
     3    12    10   ar
     4     9     7   ar
     5    10     8   ar
     6     7     8   ar
     7     7     6    1
     8     6     3    1
     9     3     1   ar
    10     3     4   ar
    11     1     2   ar
    12     4     5   ar
    13     2     5   ar
