@<TRIPOS>MOLECULE
3pba_ZXG_A_1.pdb
 25 26 0 0 0
SMALL
GASTEIGER

@<TRIPOS>ATOM
      1  CAA       18.2510   17.7820    9.8560 C.3     1  ZXG1        0.0088
      2  CAB       16.5820   15.9300    9.9890 C.3     1  ZXG1        0.0088
      3  OAC       19.5000   15.8060   16.5810 O.2     1  ZXG1       -0.3360
      4  OAD       19.4480   18.2690   16.8220 O.2     1  ZXG1       -0.3360
      5  OAE       12.8200   20.9260    9.0890 O.3     1  ZXG1       -0.2855
      6  OAF       18.3340   16.8460   18.3570 O.3     1  ZXG1       -0.2589
      7 BRAG       15.5470   22.3280    9.3370 Br      1  ZXG1       -0.0457
      8 BRAH       11.7130   18.0760    9.3970 Br      1  ZXG1       -0.0457
      9 BRAI       20.3840   17.0690   14.5430 Br      1  ZXG1       -0.0457
     10 BRAJ       14.5900   17.1200   15.2830 Br      1  ZXG1       -0.0457
     11  CAK       16.1160   19.6100    9.9380 C.ar    1  ZXG1        0.0060
     12  CAL       14.5140   17.8040    9.9650 C.ar    1  ZXG1        0.0060
     13  CAM       18.3860   17.1890   12.5940 C.ar    1  ZXG1        0.0059
     14  CAN       16.0140   17.2150   12.8550 C.ar    1  ZXG1        0.0059
     15  OAO       17.4440   17.0370   16.2030 O.3     1  ZXG1       -0.3582
     16  CAP       15.1080   20.5000    9.5900 C.ar    1  ZXG1        0.0736
     17  CAQ       13.5000   18.6960    9.6160 C.ar    1  ZXG1        0.0736
     18  CAR       18.5680   17.1220   13.9750 C.ar    1  ZXG1        0.0714
     19  CAS       16.1710   17.1460   14.2330 C.ar    1  ZXG1        0.0714
     20  CAT       13.8010   20.0460    9.4290 C.ar    1  ZXG1        0.2079
     21  CAU       15.8200   18.2680   10.1290 C.ar    1  ZXG1       -0.0178
     22  CAV       17.1220   17.2400   12.0270 C.ar    1  ZXG1       -0.0178
     23  CAW       17.4400   17.1010   14.8240 C.ar    1  ZXG1        0.1836
     24  CAX       16.9500   17.3100   10.5040 C.3     1  ZXG1        0.0378
     25  SAY       18.6690   16.9940   16.9740 S.3     1  ZXG1        0.0425
@<TRIPOS>BOND
     1     5    20    1
     2     7    16    1
     3     8    17    1
     4    20    16   ar
     5    20    17   ar
     6    16    11   ar
     7    17    12   ar
     8     1    24    1
     9    11    21   ar
    10    12    21   ar
    11     2    24    1
    12    21    24    1
    13    24    22    1
    14    22    13   ar
    15    22    14   ar
    16    13    18   ar
    17    14    19   ar
    18    18     9    1
    19    18    23   ar
    20    19    23   ar
    21    19    10    1
    22    23    15    1
    23    15    25    1
    24     3    25    2
    25     4    25    2
    26    25     6    1
