@<TRIPOS>MOLECULE
3pbb_PBD_A_1.pdb
 22 23 0 0 0
SMALL
GASTEIGER

@<TRIPOS>ATOM
      1  CAA        3.4040   76.5310    1.0340 C.3   380  PBD380      0.2526
      2  CAB        3.6190   71.6740    3.2840 C.3   380  PBD380      0.2526
      3  SAC        0.9770   74.8840    9.2290 S.2   380  PBD380     -0.0152
      4  CAD       -5.6270   75.3090    3.6370 C.ar  380  PBD380      0.1193
      5  CAE        2.4050   76.2670    4.9990 C.ar  380  PBD380      0.0199
      6  CAF        2.6980   76.4120    3.6430 C.ar  380  PBD380      0.0414
      7  CAG       -4.9940   74.8750    4.7410 C.ar  380  PBD380      0.0980
      8  CAH       -4.7710   77.1000    4.6120 C.ar  380  PBD380      0.1786
      9  CAI        2.9570   73.8860    4.8680 C.ar  380  PBD380      0.0566
     10  CAJ       -2.2660   75.6210    6.0550 C.3   380  PBD380      0.0479
     11  CAK       -1.3710   75.6170    7.2960 C.3   380  PBD380      0.1162
     12  CAL       -3.6630   76.0000    6.5410 C.3   380  PBD380      0.1095
     13  NAM       -5.5210   76.6730    3.6200 N.ar  380  PBD380     -0.2223
     14  NAN       -0.0120   75.4610    6.7550 N.am  380  PBD380     -0.2164
     15  NAO        2.2970   74.9180    6.9080 N.am  380  PBD380     -0.1905
     16  OAP        3.3840   75.2600    1.6160 O.3   380  PBD380     -0.4684
     17  OAQ        3.6610   73.0250    2.6410 O.3   380  PBD380     -0.4683
     18  CAR        1.0860   75.1130    7.4940 C.2   380  PBD380      0.1745
     19  CAS        2.5420   75.0160    5.6160 C.ar  380  PBD380      0.0756
     20  CAT        3.0920   75.2720    2.9330 C.ar  380  PBD380      0.1725
     21  CAU        3.2390   74.0320    3.5050 C.ar  380  PBD380      0.1737
     22  NAV       -4.5070   75.9950    5.3300 N.ar  380  PBD380     -0.3078
@<TRIPOS>BOND
     1     1    16    1
     2    16    20    1
     3    17     2    1
     4    17    21    1
     5    20    21   ar
     6    20     6   ar
     7    21     9   ar
     8    13     4   ar
     9    13     8   ar
    10     4     7   ar
    11     6     5   ar
    12     8    22   ar
    13     7    22   ar
    14     9    19   ar
    15     5    19   ar
    16    22    12    1
    17    19    15    1
    18    10    12    1
    19    10    11    1
    20    14    11    1
    21    14    18    1
    22    15    18    1
    23    18     3    2
