@<TRIPOS>MOLECULE
3pbd_F05_A_1.pdb
 10 11 0 0 0
SMALL
GASTEIGER

@<TRIPOS>ATOM
      1  C1        -2.7980    2.0130   11.4770 C.ar  1001  F051001    -0.0002
      2  C2        -1.5060    1.6220   11.8540 C.ar  1001  F051001     0.0002
      3  C3        -0.3550    2.0770   11.2010 C.ar  1001  F051001     0.0075
      4  C4        -0.5580    2.9600   10.1330 C.ar  1001  F051001     0.0904
      5  C5        -1.8340    3.3840    9.7940 C.ar  1001  F051001     0.0382
      6  C6        -2.9950    2.9280   10.4300 C.ar  1001  F051001     0.0003
      7  C7        -1.7330    4.3310    8.5950 C.3   1001  F051001     0.2902
      8  N8        -0.3050    4.3530    8.3130 N.2   1001  F051001    -0.0532
      9  C9         0.3520    3.6560    9.1700 C.2   1001  F051001     0.4106
     10  N10        1.7090    3.6050    9.2070 N.pl3 1001  F051001     0.2159
@<TRIPOS>BOND
     1     8     7    1
     2     8     9    2
     3     7     5    1
     4     9    10    1
     5     9     4    1
     6     5     4   ar
     7     5     6   ar
     8     4     3   ar
     9     6     1   ar
    10     3     2   ar
    11     1     2   ar
