@<TRIPOS>MOLECULE
3pbk_1ZZ_A_1.pdb
 36 38 0 0 0
SMALL
GASTEIGER

@<TRIPOS>ATOM
      1  P         27.7210   26.7180   34.2450 P.3     1  1ZZ1        0.2722
      2  C1        14.1240   32.6430   35.1160 C.3     1  1ZZ1        0.0000
      3  N1        29.5950   31.0150   30.0780 N.pl3   1  1ZZ1       -0.1439
      4  O1        25.6340   28.3050   32.1790 O.2     1  1ZZ1       -0.2498
      5  C2        15.5860   32.9060   35.3590 C.3     1  1ZZ1        0.0000
      6  N2        27.7470   32.2350   29.9850 N.2     1  1ZZ1       -0.2095
      7  O2        26.3390   27.6180   34.2950 O.3     1  1ZZ1       -0.4101
      8  C3        16.5950   32.2540   34.4180 C.3     1  1ZZ1        0.0000
      9  N3        30.7970   32.2820   28.2130 N.2     1  1ZZ1       -0.0055
     10  O3        28.6220   26.6820   35.5550 O.3     1  1ZZ1       -0.4273
     11  C4        18.0490   32.7240   34.6100 C.3     1  1ZZ1        0.0000
     12  N4        29.5610   34.0100   27.2850 N.2     1  1ZZ1        0.0021
     13  O4        27.4420   25.4060   33.9470 O.2     1  1ZZ1       -0.5082
     14  C5        19.1200   32.5350   33.5300 C.3     1  1ZZ1        0.0000
     15  N5        27.3260   34.4870   28.1310 N.pl3   1  1ZZ1        0.2180
     16  O5        28.6510   27.3340   33.1030 O.3     1  1ZZ1       -0.3024
     17  C6        20.5070   32.4680   34.1150 C.3     1  1ZZ1        0.0000
     18  O6        29.8210   29.1400   31.3320 O.3     1  1ZZ1       -0.3135
     19  C7        21.6910   33.0350   33.3750 C.3     1  1ZZ1        0.0000
     20  O7        33.0960   30.4000   30.9190 O.3     1  1ZZ1       -0.2130
     21  C8        23.0320   32.3780   33.6140 C.3     1  1ZZ1        0.0000
     22  O8        32.1870   30.5370   33.6250 O.3     1  1ZZ1       -0.2174
     23  C9        23.8470   31.8510   32.4240 C.3     1  1ZZ1        0.0006
     24  C10       24.4560   30.4720   32.4620 C.3     1  1ZZ1        0.0117
     25  C11       25.0210   29.7810   33.6250 C.3     1  1ZZ1        0.1098
     26  C12       25.8200   28.6050   33.3130 C.2     1  1ZZ1        0.3210
     27  C13       29.7050   28.1420   33.5600 C.3     1  1ZZ1        0.1823
     28  C14       30.5930   28.8110   32.5030 C.3     1  1ZZ1        0.1822
     29  C15       31.2680   30.1870   32.6520 C.3     1  1ZZ1        0.2184
     30  C16       31.7380   30.4000   31.2750 C.3     1  1ZZ1        0.2570
     31  C17       30.5660   29.9660   30.4640 C.3     1  1ZZ1        0.3186
     32  C18       28.3860   31.1860   30.6100 C.3     1  1ZZ1        0.3377
     33  C19       28.6380   32.7270   29.0300 C.2     1  1ZZ1        0.2526
     34  C20       29.7370   32.0140   29.0600 C.2     1  1ZZ1        0.3518
     35  C21       30.6560   33.3000   27.3270 C.3     1  1ZZ1        0.5254
     36  C22       28.5060   33.7180   28.1620 C.2     1  1ZZ1        0.4393
@<TRIPOS>BOND
     1    12    35    1
     2    12    36    2
     3    35     9    1
     4    15    36    1
     5    36    33    1
     6     9    34    2
     7    33    34    1
     8    33     6    2
     9    34     3    1
    10     6    32    1
    11     3    31    1
    12     3    32    1
    13    31    30    1
    14    31    18    1
    15    20    30    1
    16    30    29    1
    17    18    28    1
    18     4    26    2
    19    23    24    1
    20    23    21    1
    21    24    25    1
    22    28    29    1
    23    28    27    1
    24    29    22    1
    25    16    27    1
    26    16     1    1
    27    26    25    1
    28    26     7    1
    29    19    21    1
    30    19    17    1
    31    14    17    1
    32    14    11    1
    33    13     1    2
    34     1     7    1
    35     1    10    1
    36     8    11    1
    37     8     5    1
    38     2     5    1
