@<TRIPOS>MOLECULE
3pbl_MAL_A_1.pdb
 23 24 0 0 0
SMALL
GASTEIGER

@<TRIPOS>ATOM
      1  C1         9.4330   10.7150  -43.9880 C.3   1500  MAL1500     0.2695
      2  C2         8.2010   11.5890  -44.3000 C.3   1500  MAL1500     0.2406
      3  C3         6.9950   10.7140  -44.6340 C.3   1500  MAL1500     0.2198
      4  C4         7.3230    9.8150  -45.8250 C.3   1500  MAL1500     0.2144
      5  C5         8.6850    9.1290  -45.6390 C.3   1500  MAL1500     0.1835
      6  C6         9.1020    8.4550  -46.9410 C.3   1500  MAL1500     0.2142
      7  O1         9.2300    9.8360  -42.8390 O.3   1500  MAL1500    -0.3257
      8  O2         7.8840   12.4630  -43.2180 O.3   1500  MAL1500    -0.2149
      9  O3         5.8710   11.5410  -44.9520 O.3   1500  MAL1500    -0.2174
     10  O4         6.3010    8.8280  -45.9720 O.3   1500  MAL1500    -0.2176
     11  O5         9.7520   10.0050  -45.2020 O.3   1500  MAL1500    -0.3256
     12  O6        10.3170    7.7260  -46.7380 O.3   1500  MAL1500    -0.2176
     13  C1'       12.2220    7.5250  -40.8420 C.3   1500  MAL1500     0.3023
     14  C2'       12.4530    8.8980  -41.4880 C.3   1500  MAL1500     0.2433
     15  C3'       11.6730    9.0680  -42.8010 C.3   1500  MAL1500     0.2168
     16  C4'       10.1850    8.7380  -42.6470 C.3   1500  MAL1500     0.1804
     17  C5'        9.8320    7.9620  -41.3720 C.3   1500  MAL1500     0.1804
     18  C6'        8.6990    7.0990  -41.8860 C.3   1500  MAL1500     0.2141
     19  O1'       12.9430    6.4990  -41.5300 O.3   1500  MAL1500    -0.1869
     20  O2'       12.1550    9.9500  -40.5510 O.3   1500  MAL1500    -0.2148
     21  O3'       12.2320    8.1990  -43.7910 O.3   1500  MAL1500    -0.2175
     22  O5'       10.8430    7.1300  -40.7020 O.3   1500  MAL1500    -0.3237
     23  O6'        8.9820    5.7260  -41.6390 O.3   1500  MAL1500    -0.2176
@<TRIPOS>BOND
     1     6    12    1
     2     6     5    1
     3    10     4    1
     4     4     5    1
     5     4     3    1
     6     5    11    1
     7    11     1    1
     8     9     3    1
     9     3     2    1
    10     2     1    1
    11     2     8    1
    12     1     7    1
    13    21    15    1
    14     7    16    1
    15    15    16    1
    16    15    14    1
    17    16    17    1
    18    18    23    1
    19    18    17    1
    20    19    13    1
    21    14    13    1
    22    14    20    1
    23    17    22    1
    24    13    22    1
