@<TRIPOS>MOLECULE
3pbl_ETQ_A_1.pdb
 23 24 0 0 0
SMALL
GASTEIGER

@<TRIPOS>ATOM
      1  C1        -0.8080  -12.3360   10.5520 C.ar  1200  ETQ1200     0.1991
      2  N1         1.1690  -15.2760   11.4810 N.am  1200  ETQ1200    -0.2001
      3  O1        -1.5290  -12.2300   11.6990 O.3   1200  ETQ1200    -0.2866
      4 CL1         1.6090  -12.6560    6.7620 Cl    1200  ETQ1200    -0.0791
      5  C2        -0.8770  -11.3050    9.6070 C.ar  1200  ETQ1200     0.0179
      6  N2         0.6270  -18.2630   11.1450 N.3   1200  ETQ1200    -0.2723
      7  O2         1.5050  -14.6500    8.8870 O.3   1200  ETQ1200    -0.4703
      8  C3        -0.1100  -11.4090    8.4450 C.ar  1200  ETQ1200     0.0134
      9  O3        -0.8960  -14.7200   12.2060 O.2   1200  ETQ1200    -0.2681
     10  C4         0.6880  -12.5280    8.2200 C.ar  1200  ETQ1200     0.0916
     11  C5         0.7350  -13.5620    9.1540 C.ar  1200  ETQ1200     0.1566
     12  C6         0.7760  -15.5290    8.0190 C.3   1200  ETQ1200     0.2525
     13  C7        -0.0250  -13.4780   10.3280 C.ar  1200  ETQ1200     0.1282
     14  C8         0.0360  -14.5730   11.4180 C.2   1200  ETQ1200     0.2709
     15  C9         1.4140  -16.3390   12.4760 C.3   1200  ETQ1200     0.1313
     16  C10        0.3760  -17.4610   12.3600 C.3   1200  ETQ1200     0.0793
     17  C11        0.5220  -18.4140   13.5440 C.3   1200  ETQ1200     0.0192
     18  C12        1.5090  -19.4450   13.0220 C.3   1200  ETQ1200     0.0188
     19  C13        1.0590  -19.6070   11.5780 C.3   1200  ETQ1200     0.0721
     20  C14       -0.6220  -18.3630   10.3780 C.3   1200  ETQ1200     0.0721
     21  C15       -0.3200  -18.6260    8.9100 C.3   1200  ETQ1200     0.0188
     22  C16       -1.6890  -10.0110    9.7860 C.3   1200  ETQ1200     0.0296
     23  C17       -3.1870  -10.2710    9.9600 C.3   1200  ETQ1200     0.0051
@<TRIPOS>BOND
     1     4    10    1
     2    12     7    1
     3    10     8   ar
     4    10    11   ar
     5     8     5   ar
     6     7    11    1
     7    21    20    1
     8    11    13   ar
     9     5    22    1
    10     5     1   ar
    11    22    23    1
    12    13     1   ar
    13    13    14    1
    14    20     6    1
    15     1     3    1
    16     6    19    1
    17     6    16    1
    18    14     2   am
    19    14     9    2
    20     2    15    1
    21    19    18    1
    22    16    15    1
    23    16    17    1
    24    18    17    1
