@<TRIPOS>MOLECULE
3pbm_ES4_A_1.pdb
 10 11 0 0 0
SMALL
GASTEIGER

@<TRIPOS>ATOM
      1  C10       22.2570   69.0710   61.6200 C.2   328  ES4328      0.1675
      2 CL01       21.7390   69.1110   59.0680 Cl    328  ES4328     -0.0594
      3  C02       22.6080   69.5800   60.4080 C.2   328  ES4328      0.1620
      4  N03       23.6400   70.4840   60.2810 N.2   328  ES4328     -0.2298
      5  C04       24.3510   70.8770   61.4290 C.3   328  ES4328      0.2618
      6  N05       24.0010   70.3580   62.6200 N.2   328  ES4328     -0.1916
      7  C06       22.9500   69.4480   62.7390 C.1   328  ES4328      0.0505
      8  N07       22.3890   68.7590   63.8870 N.2   328  ES4328     -0.1916
      9  C08       21.3010   67.9320   63.4170 C.3   328  ES4328      0.2617
     10  N09       21.2110   68.1220   61.9870 N.2   328  ES4328     -0.2311
@<TRIPOS>BOND
     1     2     3    1
     2     4     3    2
     3     4     5    1
     4     3     1    1
     5     5     6    1
     6     1    10    2
     7     1     7    1
     8    10     9    1
     9     6     7    2
    10     7     8    2
    11     9     8    1
