@<TRIPOS>MOLECULE
3pbo_CAZ_A_1.pdb
 31 32 0 0 0
SMALL
GASTEIGER

@<TRIPOS>ATOM
      1  S1         4.7070   -1.0490   18.1360 S.3   999  CAZ999     -0.1100
      2  C2         3.0340   -1.0420   18.8870 C.3   999  CAZ999      0.0873
      3  C3         2.0550   -1.7660   17.9660 C.2   999  CAZ999      0.0125
      4  C3'        0.8130   -1.2970   17.8080 C.2   999  CAZ999     -0.0020
      5  C4         2.5000   -2.9980   17.2750 C.2   999  CAZ999      0.1534
      6  C4'        1.4900   -3.8720   16.6140 C.2   999  CAZ999      0.4044
      7  O4A        0.7650   -4.5370   17.3370 O.co2 999  CAZ999     -0.2389
      8  O4B        1.3830   -3.9760   15.4080 O.co2 999  CAZ999     -0.2389
      9  N5         3.6950   -3.4260   17.2670 N.2   999  CAZ999     -0.2528
     10  C6         4.8200   -2.8470   17.9710 C.3   999  CAZ999      0.1784
     11  C7         6.1620   -3.3360   17.4660 C.3   999  CAZ999      0.1923
     12  C8         5.9480   -4.7770   17.0320 C.2   999  CAZ999      0.2316
     13  O9         5.8670   -5.0440   15.8590 O.2   999  CAZ999     -0.2863
     14  N10        6.7670   -2.6550   16.3140 N.am  999  CAZ999     -0.1910
     15  C11        7.8440   -1.8440   16.4320 C.2   999  CAZ999      0.2884
     16  O12        8.2710   -1.4580   17.5180 O.2   999  CAZ999     -0.2665
     17  C13        8.4850   -1.3590   15.1850 C.2   999  CAZ999      0.2002
     18  N16        8.2320   -0.1640   14.7480 N.2   999  CAZ999     -0.0757
     19  O17        7.2780    0.6400   15.4180 O.2   999  CAZ999     -0.3735
     20  C18        6.6890    1.6710   14.6010 C.3   999  CAZ999      0.2530
     21  C14        9.4720   -2.2390   14.5200 C.2   999  CAZ999      0.1478
     22  C15        9.7910   -3.4420   15.0620 C.3   999  CAZ999      0.1266
     23  S16       10.9850   -4.2140   14.0290 S.3   999  CAZ999     -0.0564
     24  C17       10.9940   -2.8020   12.9710 C.2   999  CAZ999      0.2461
     25  N18       11.8250   -2.7000   11.8690 N.pl3 999  CAZ999     -0.0867
     26  N19       10.1620   -1.9120   13.4090 N.2   999  CAZ999     -0.3794
     27  C19        5.6590    2.4300   15.4310 C.3   999  CAZ999      0.0583
     28  C20        5.9520    1.0610   13.4010 C.3   999  CAZ999      0.0583
     29  C21        7.7870    2.6240   14.1580 C.2   999  CAZ999      0.4027
     30  O2A        8.8650    2.6440   14.7350 O.co2 999  CAZ999     -0.2417
     31  O2B        7.6080    3.3730   13.2180 O.co2 999  CAZ999     -0.2417
@<TRIPOS>BOND
     1    25    24    1
     2    24    26    2
     3    24    23    1
     4    31    29   ar
     5    28    20    1
     6    26    21    2
     7    23    22    1
     8    29    20    1
     9    29    30   ar
    10    21    22    1
    11    21    17    1
    12    20    19    1
    13    20    27    1
    14    18    17    2
    15    18    19    1
    16    17    15    1
    17     8     6   ar
    18    13    12    2
    19    14    15   am
    20    14    11    1
    21    15    16    2
    22     6     5    1
    23     6     7   ar
    24    12    11    1
    25     9     5    2
    26     9    10    1
    27     5     3    1
    28    11    10    1
    29     4     3    2
    30     3     2    1
    31    10     1    1
    32     1     2    1
