@<TRIPOS>MOLECULE
3pbq_IM2_A_1.pdb
 20 20 0 0 0
SMALL
GASTEIGER

@<TRIPOS>ATOM
      1  C7        -6.7820   -4.4080  -16.5930 C.2   999  IM2999      0.2118
      2  C2        -3.6510   -1.4350  -17.4010 C.2   999  IM2999      0.0466
      3  C6        -6.9180   -2.9940  -17.0840 C.3   999  IM2999      0.1217
      4  C5        -5.6060   -2.7750  -17.6890 C.3   999  IM2999      0.1358
      5  C3        -3.3290   -2.7300  -17.0900 C.2   999  IM2999      0.1614
      6  O7        -6.7790   -4.7830  -15.4570 O.2   999  IM2999     -0.2881
      7  C61       -8.2050   -2.8480  -17.9430 C.3   999  IM2999      0.1616
      8  O62       -8.1670   -1.3480  -18.3010 O.3   999  IM2999     -0.2226
      9  C62       -9.4750   -3.3410  -17.2460 C.3   999  IM2999      0.0360
     10  N4        -4.4450   -3.4030  -17.2680 N.2   999  IM2999     -0.2605
     11  C31       -2.1740   -3.4110  -16.6650 C.2   999  IM2999      0.4052
     12  O31       -2.0570   -3.7430  -15.4820 O.co2 999  IM2999     -0.2388
     13  O32       -1.3050   -3.6330  -17.5520 O.co2 999  IM2999     -0.2388
     14  S21       -2.4870   -0.1750  -17.2490 S.3   999  IM2999     -0.1107
     15  C22       -1.6080    0.4190  -18.9290 C.3   999  IM2999      0.0810
     16  C23       -0.8310   -0.7830  -19.6470 C.3   999  IM2999      0.1023
     17  N24       -0.3370   -0.4720  -21.0870 N.3   999  IM2999     -0.1975
     18  C25        0.9720   -0.8090  -21.6650 C.3   999  IM2999      0.1982
     19  N26        2.2550   -0.8160  -21.0950 N.3   999  IM2999     -0.1105
     20  C1        -5.1870   -1.2040  -17.8850 C.2   999  IM2999      0.0060
@<TRIPOS>BOND
     1    18    19    1
     2    18    17    1
     3    17    16    1
     4    16    15    1
     5    15    14    1
     6     8     7    1
     7     7     9    1
     8     7     3    1
     9    20     4    1
    10    20     2    2
    11     4    10    1
    12     4     3    1
    13    13    11   ar
    14     2    14    1
    15     2     5    1
    16    10     5    2
    17     5    11    1
    18     3     1    1
    19    11    12   ar
    20     1     6    2
