@<TRIPOS>MOLECULE
3pbr_MER_A_1.pdb
 26 27 0 0 0
SMALL
GASTEIGER

@<TRIPOS>ATOM
      1  C1         6.9870   -4.5990   16.5610 C.2   999  MER999      0.2115
      2  C2         3.7140   -1.6990   17.3300 C.3   999  MER999      0.0957
      3  C3         7.0860   -3.1520   16.9880 C.3   999  MER999      0.1175
      4  C4         5.7910   -2.7690   17.7090 C.3   999  MER999      0.1141
      5  C5         3.6010   -3.0260   17.2210 C.2   999  MER999      0.1428
      6  O6         6.8810   -5.0260   15.4180 O.2   999  MER999     -0.2882
      7  C7         8.2830   -2.9350   17.9190 C.3   999  MER999      0.1613
      8  O8         8.4900   -1.5580   18.1420 O.3   999  MER999     -0.2226
      9  C9         9.5820   -3.5080   17.3930 C.3   999  MER999      0.0360
     10  N10        4.7490   -3.7180   17.3800 N.2   999  MER999     -0.2688
     11  C11        2.2830   -3.7190   17.0340 C.2   999  MER999      0.4014
     12  O12        1.6750   -4.0110   18.0860 O.co2 999  MER999     -0.2392
     13  O13        2.0000   -3.9930   15.8430 O.co2 999  MER999     -0.2392
     14  S14        2.4660   -0.5030   17.0760 S.3   999  MER999     -0.1341
     15  C15        2.0020    0.1480   18.7020 C.3   999  MER999      0.0673
     16  C16        1.0360    1.2620   18.3630 C.3   999  MER999      0.0389
     17  C17       -0.3710    0.7390   18.5470 C.3   999  MER999      0.1498
     18  C18        5.1690   -1.3790   17.4290 C.3   999  MER999      0.0387
     19  N19       -0.2040   -0.6160   19.1350 N.3   999  MER999     -0.2094
     20  C20        5.5200   -0.8610   16.0340 C.3   999  MER999      0.0033
     21  C21        1.2170   -0.8780   19.4910 C.3   999  MER999      0.1000
     22  C22       -1.0920    0.6410   17.2220 C.2   999  MER999      0.2416
     23  N23       -1.5760    1.8330   16.6930 N.am  999  MER999     -0.2749
     24  O24       -1.2300   -0.4460   16.6730 O.2   999  MER999     -0.2734
     25  C25       -1.8590    3.0200   17.4670 C.3   999  MER999      0.1149
     26  C26       -2.2560    1.8030   15.4310 C.3   999  MER999      0.1149
@<TRIPOS>BOND
     1     6     1    2
     2    26    23    1
     3    13    11   ar
     4    20    18    1
     5     1     3    1
     6    24    22    2
     7    23    22   am
     8    23    25    1
     9     3     4    1
    10     3     7    1
    11    11     5    1
    12    11    12   ar
    13    14     2    1
    14    14    15    1
    15     5     2    1
    16     5    10    2
    17    22    17    1
    18     2    18    1
    19    10     4    1
    20     9     7    1
    21    18     4    1
    22     7     8    1
    23    16    17    1
    24    16    15    1
    25    17    19    1
    26    15    21    1
    27    19    21    1
