@<TRIPOS>MOLECULE
3pbs_AZR_A_1.pdb
 28 28 0 0 0
SMALL
GASTEIGER

@<TRIPOS>ATOM
      1  C7         4.4890    3.6550  -18.0300 C.3   999  AZR999      0.0230
      2  S8        10.9680    6.6720  -14.5020 S.3   999  AZR999     -0.0564
      3  O9         5.5080    7.5320  -15.9450 O.2   999  AZR999     -0.2864
      4  O10        7.8140    3.6740  -17.9880 O.2   999  AZR999     -0.2665
      5  O11        7.0090    1.8780  -15.4240 O.2   999  AZR999     -0.3735
      6  N12        3.3730    5.7780  -17.8120 N.3   999  AZR999     -0.1187
      7  N13        6.7240    5.0180  -16.5520 N.am  999  AZR999     -0.1925
      8  N14        8.3430    2.5030  -15.1160 N.2   999  AZR999     -0.0757
      9  N15       10.2840    4.1720  -13.8410 N.2   999  AZR999     -0.3794
     10  N16       11.9750    5.2560  -12.4730 N.pl3 999  AZR999     -0.0867
     11  S17        1.8450    6.1130  -17.1480 S.3   999  AZR999     -0.1290
     12  C18        4.4090    4.9900  -17.2150 C.3   999  AZR999      0.1215
     13  C19        5.7850    5.5720  -17.5470 C.3   999  AZR999      0.1775
     14  C20        5.7920    7.1130  -17.1210 C.2   999  AZR999      0.2302
     15  C21        7.6910    4.1120  -16.8450 C.2   999  AZR999      0.2884
     16  C22        8.5180    3.7050  -15.6440 C.2   999  AZR999      0.2002
     17  C23        6.4670    0.8070  -14.5320 C.3   999  AZR999      0.2530
     18  C24        9.5230    4.5870  -14.9950 C.2   999  AZR999      0.1478
     19  C25        9.7750    5.8730  -15.4830 C.3   999  AZR999      0.1266
     20  C26       11.0920    5.2100  -13.5070 C.2   999  AZR999      0.2461
     21  C27        5.3540    0.0580  -15.2270 C.3   999  AZR999      0.0583
     22  C28        5.7810    1.3900  -13.3170 C.3   999  AZR999      0.0583
     23  C29        7.4590   -0.3800  -14.3010 C.2   999  AZR999      0.4027
     24  O30        8.2960   -0.5310  -15.1950 O.co2 999  AZR999     -0.2417
     25  O31        7.4100   -1.1940  -13.2950 O.co2 999  AZR999     -0.2417
     26  O32        1.1250    4.8170  -17.3160 O.3   999  AZR999     -0.2919
     27  O33        1.9690    6.3400  -15.7160 O.3   999  AZR999     -0.2919
     28  O34        1.2030    7.1620  -17.8720 O.3   999  AZR999     -0.2919
@<TRIPOS>BOND
     1     1    12    1
     2     4    15    2
     3    28    11    1
     4     6    12    1
     5     6    11    1
     6    13    12    1
     7    13    14    1
     8    13     7    1
     9    26    11    1
    10    11    27    1
    11    14     3    2
    12    15     7   am
    13    15    16    1
    14    16     8    2
    15    16    18    1
    16    19    18    1
    17    19     2    1
    18     5     8    1
    19     5    17    1
    20    21    17    1
    21    24    23   ar
    22    18     9    2
    23    17    23    1
    24    17    22    1
    25     2    20    1
    26    23    25   ar
    27     9    20    2
    28    20    10    1
