@<TRIPOS>MOLECULE
3pbt_UE1_A_1.pdb
 48 50 0 0 0
SMALL
GASTEIGER

@<TRIPOS>ATOM
      1  N1        33.9860    5.1020   16.7140 N.ar    1  UE11       -0.0574
      2  C2        35.2500    5.0550   16.3450 C.ar    1  UE11        0.3697
      3  N3        35.8740    4.0700   16.9880 N.ar    1  UE11       -0.2584
      4  C4        34.9500    3.4890   17.7890 C.ar    1  UE11        0.1866
      5  N5        33.7420    4.1010   17.6530 N.ar    1  UE11       -0.1237
      6  N6        23.5660    4.4630   13.4610 N.2     1  UE11       -0.3794
      7  C7        22.7110    5.4430   13.1460 C.2     1  UE11        0.2461
      8  S8        22.6400    6.8000   14.2210 S.3     1  UE11       -0.0564
      9  C9        23.8580    5.9940   15.1570 C.3     1  UE11        0.1266
     10  C10       27.5460    5.6110   17.5910 C.3     1  UE11        0.1815
     11  C11       28.1360    6.9810   17.3460 C.2     1  UE11        0.2305
     12  N12       29.5590    4.3790   16.9550 N.am    1  UE11       -0.1835
     13  C13       28.6070    4.6010   18.0360 C.3     1  UE11        0.1464
     14  O14       28.3070    7.3490   16.1910 O.2     1  UE11       -0.2864
     15  N15       26.8660    5.1220   16.3920 N.am    1  UE11       -0.1921
     16  C16       25.8360    4.2860   16.4870 C.2     1  UE11        0.2884
     17  O17       25.3880    3.8560   17.5410 O.2     1  UE11       -0.2665
     18  C18       25.2410    3.9020   15.2140 C.2     1  UE11        0.2002
     19  N19       25.5910    2.8320   14.6600 N.2     1  UE11       -0.0757
     20  O20       26.5190    2.1030   15.3110 O.2     1  UE11       -0.3735
     21  C21       27.1250    1.0020   14.6450 C.3     1  UE11        0.2530
     22  C22       26.0500    0.0010   14.3050 C.2     1  UE11        0.4027
     23  C23       27.7530    1.5280   13.3610 C.3     1  UE11        0.0583
     24  C24       28.1500    0.3870   15.5930 C.3     1  UE11        0.0583
     25  O25       26.2170   -0.7290   13.3030 O.co2   1  UE11       -0.2417
     26  O26       25.0300   -0.0540   15.0280 O.co2   1  UE11       -0.2417
     27  C27       24.2260    4.7760   14.5980 C.2     1  UE11        0.1478
     28  N28       21.9240    5.3880   12.0450 N.pl3   1  UE11       -0.0867
     29  C29       30.7370    5.2180   16.9220 C.2     1  UE11        0.3617
     30  O30       31.0610    6.0650   18.0040 O.2     1  UE11       -0.2474
     31  N31       31.6260    5.2280   15.7800 N.am    1  UE11       -0.0227
     32  S32       32.8280    6.1460   16.1960 S.O2    1  UE11        0.1792
     33  O33       32.5270    6.9280   17.3980 O.2     1  UE11       -0.1293
     34  O34       33.2350    6.9840   15.0600 O.2     1  UE11       -0.1293
     35  O35       35.7820    5.8480   15.4910 O.2     1  UE11       -0.2429
     36  C36       37.2890    3.7300   16.8280 C.3     1  UE11        0.1476
     37  C37       38.0970    4.8080   17.5410 C.3     1  UE11        0.2073
     38  C38       39.5420    4.8250   17.0500 C.3     1  UE11        0.2168
     39  O39       38.0470    4.5570   18.9510 O.3     1  UE11       -0.2182
     40  O40       40.2290    5.9740   17.5630 O.3     1  UE11       -0.2175
     41  C41       35.1400    2.3420   18.7260 C.ar    1  UE11        0.1206
     42  N42       35.8520    2.5310   19.8600 N.ar    1  UE11       -0.2372
     43  C43       36.0430    1.5410   20.7410 C.ar    1  UE11        0.1442
     44  C44       35.5010    0.2830   20.5060 C.ar    1  UE11        0.2532
     45  C45       34.7620    0.0610   19.3590 C.ar    1  UE11        0.2374
     46  C46       34.5730    1.1020   18.4560 C.ar    1  UE11        0.0676
     47  O47       34.2310   -1.1720   19.1300 O.3     1  UE11       -0.2830
     48  O48       35.6930   -0.7290   21.3970 O.3     1  UE11       -0.2815
@<TRIPOS>BOND
     1    28     7    1
     2     7     6    2
     3     7     8    1
     4    25    22   ar
     5    23    21    1
     6     6    27    2
     7     8     9    1
     8    22    21    1
     9    22    26   ar
    10    27     9    1
    11    27    18    1
    12    21    20    1
    13    21    24    1
    14    19    18    2
    15    19    20    1
    16    34    32    2
    17    18    16    1
    18    35     2    2
    19    31    32    1
    20    31    29   am
    21    14    11    2
    22    32     1    1
    23    32    33    2
    24     2     1   ar
    25     2     3   ar
    26    15    16   am
    27    15    10    1
    28    16    17    2
    29     1     5   ar
    30    36     3    1
    31    36    37    1
    32    29    12   am
    33    29    30    2
    34    12    13    1
    35     3     4   ar
    36    38    37    1
    37    38    40    1
    38    11    10    1
    39    37    39    1
    40    10    13    1
    41     5     4   ar
    42     4    41    1
    43    46    41   ar
    44    46    45   ar
    45    41    42   ar
    46    47    45    1
    47    45    44   ar
    48    42    43   ar
    49    44    43   ar
    50    44    48    1
