@<TRIPOS>MOLECULE
3pbu_UP6_A_1.pdb
 21 22 0 0 0
SMALL
GASTEIGER

@<TRIPOS>ATOM
      1  N1        19.0900    0.1390    8.6910 N.am  229  UP6229     -0.0968
      2  C2        18.0910    1.0320    8.6100 C.1   229  UP6229      0.3005
      3  N3        17.2880    1.0780    7.5320 N.2   229  UP6229     -0.2426
      4  C4        17.5170    0.2090    6.5440 C.1   229  UP6229      0.2380
      5  C5        18.6080   -0.7620    6.6400 C.2   229  UP6229      0.2253
      6  N6        19.3860   -0.7790    7.6850 N.2   229  UP6229     -0.1496
      7  O2        17.9070    1.8350    9.5020 O.2   229  UP6229     -0.1905
      8  O4        16.7910    0.2450    5.5690 O.2   229  UP6229     -0.2069
      9  C1'       19.9350    0.1610    9.8690 C.3   229  UP6229      0.2577
     10  C2'       20.2360   -1.2360   10.4400 C.3   229  UP6229      0.2334
     11  C3'       21.6650   -1.0470   10.9620 C.3   229  UP6229      0.2159
     12  C4'       22.2920   -0.1050    9.9200 C.3   229  UP6229      0.1801
     13  O2'       19.3620   -1.5170   11.5280 O.3   229  UP6229     -0.2157
     14  O3'       21.6060   -0.3990   12.2460 O.3   229  UP6229     -0.2175
     15  O4'       21.2010    0.7250    9.4510 O.3   229  UP6229     -0.3309
     16  C5'       22.9290   -0.8720    8.7520 C.3   229  UP6229      0.1859
     17  O5'       24.0330   -1.5430    9.3590 O.3   229  UP6229     -0.2675
     18  P         25.0350   -2.3370    8.3910 P.3   229  UP6229      0.5327
     19  O1P       24.2420   -3.0770    7.3790 O.2   229  UP6229     -0.2224
     20  O2P       25.8170   -3.2720    9.4240 O.3   229  UP6229     -0.1145
     21  O3P       26.0100   -1.2850    7.6930 O.3   229  UP6229     -0.1145
@<TRIPOS>BOND
     1     8     4    2
     2     4     5    1
     3     4     3    2
     4     5     6    2
     5    19    18    2
     6     3     2    2
     7     6     1    1
     8    21    18    1
     9    18    17    1
    10    18    20    1
    11     2     1   am
    12     2     7    2
    13     1     9    1
    14    16    17    1
    15    16    12    1
    16    15     9    1
    17    15    12    1
    18     9    10    1
    19    12    11    1
    20    10    11    1
    21    10    13    1
    22    11    14    1
