@<TRIPOS>MOLECULE
3pbv_UP6_A_1.pdb
 21 22 0 0 0
SMALL
GASTEIGER

@<TRIPOS>ATOM
      1  N1        19.1190    0.1520    8.7420 N.am  229  UP6229     -0.0968
      2  C2        18.1120    1.0390    8.6590 C.1   229  UP6229      0.3005
      3  N3        17.2970    1.0810    7.5950 N.2   229  UP6229     -0.2426
      4  C4        17.5060    0.2230    6.6000 C.1   229  UP6229      0.2380
      5  C5        18.6120   -0.7300    6.6810 C.2   229  UP6229      0.2253
      6  N6        19.4000   -0.7510    7.7240 N.2   229  UP6229     -0.1496
      7  O2        17.9580    1.8390    9.5480 O.2   229  UP6229     -0.1905
      8  O4        16.7590    0.2490    5.6250 O.2   229  UP6229     -0.2069
      9  C1'       19.9780    0.1840    9.9240 C.3   229  UP6229      0.2577
     10  C2'       20.2480   -1.2270   10.4930 C.3   229  UP6229      0.2334
     11  C3'       21.6780   -1.0790   11.0300 C.3   229  UP6229      0.2159
     12  C4'       22.3090   -0.1600    9.9690 C.3   229  UP6229      0.1801
     13  O2'       19.3550   -1.5280   11.5700 O.3   229  UP6229     -0.2157
     14  O3'       21.6550   -0.4010   12.2850 O.3   229  UP6229     -0.2175
     15  O4'       21.2560    0.7170    9.5100 O.3   229  UP6229     -0.3309
     16  C5'       22.9150   -0.9680    8.8150 C.3   229  UP6229      0.1859
     17  O5'       24.0910   -1.5460    9.3930 O.3   229  UP6229     -0.2675
     18  P         25.1020   -2.3790    8.4410 P.3   229  UP6229      0.5327
     19  O1P       24.3320   -3.1420    7.4320 O.2   229  UP6229     -0.2224
     20  O2P       25.8540   -3.2980    9.4830 O.3   229  UP6229     -0.1145
     21  O3P       26.0980   -1.3590    7.7570 O.3   229  UP6229     -0.1145
@<TRIPOS>BOND
     1     8     4    2
     2     4     5    1
     3     4     3    2
     4     5     6    2
     5    19    18    2
     6     3     2    2
     7     6     1    1
     8    21    18    1
     9    18    17    1
    10    18    20    1
    11     2     1   am
    12     2     7    2
    13     1     9    1
    14    16    17    1
    15    16    12    1
    16    15     9    1
    17    15    12    1
    18     9    10    1
    19    12    11    1
    20    10    11    1
    21    10    13    1
    22    11    14    1
