@<TRIPOS>MOLECULE
3pbw_UP6_A_1.pdb
 21 22 0 0 0
SMALL
GASTEIGER

@<TRIPOS>ATOM
      1  N1        18.9880    0.2670    8.7460 N.am  229  UP6229     -0.0968
      2  C2        18.0170    1.2050    8.6740 C.1   229  UP6229      0.3005
      3  N3        17.2050    1.2910    7.6080 N.2   229  UP6229     -0.2426
      4  C4        17.3750    0.4340    6.6060 C.1   229  UP6229      0.2380
      5  C5        18.4350   -0.5790    6.6740 C.2   229  UP6229      0.2253
      6  N6        19.2280   -0.6350    7.7150 N.2   229  UP6229     -0.1496
      7  O2        17.8980    1.9970    9.5760 O.2   229  UP6229     -0.1905
      8  O4        16.6180    0.5100    5.6380 O.2   229  UP6229     -0.2069
      9  C1'       19.8620    0.2470    9.9150 C.3   229  UP6229      0.2577
     10  C2'       20.1280   -1.1770   10.4450 C.3   229  UP6229      0.2334
     11  C3'       21.5540   -1.0230   11.0040 C.3   229  UP6229      0.2159
     12  C4'       22.2000   -0.0940    9.9570 C.3   229  UP6229      0.1801
     13  O2'       19.2390   -1.5000   11.5150 O.3   229  UP6229     -0.2157
     14  O3'       21.5120   -0.3420   12.2640 O.3   229  UP6229     -0.2175
     15  O4'       21.1390    0.7720    9.4940 O.3   229  UP6229     -0.3309
     16  C5'       22.8240   -0.8680    8.7900 C.3   229  UP6229      0.1859
     17  O5'       23.9750   -1.4900    9.3690 O.3   229  UP6229     -0.2675
     18  P         24.9940   -2.3140    8.4180 P.3   229  UP6229      0.5327
     19  O1P       24.2560   -3.1030    7.4140 O.2   229  UP6229     -0.2224
     20  O2P       25.7350   -3.2340    9.4800 O.3   229  UP6229     -0.1145
     21  O3P       25.9720   -1.2650    7.7570 O.3   229  UP6229     -0.1145
@<TRIPOS>BOND
     1     8     4    2
     2     4     5    1
     3     4     3    2
     4     5     6    2
     5    19    18    2
     6     3     2    2
     7     6     1    1
     8    21    18    1
     9    18    17    1
    10    18    20    1
    11     2     1   am
    12     2     7    2
    13     1     9    1
    14    16    17    1
    15    16    12    1
    16    15     9    1
    17    15    12    1
    18     9    10    1
    19    12    11    1
    20    10    11    1
    21    10    13    1
    22    11    14    1
