@<TRIPOS>MOLECULE
3pby_UP6_A_1.pdb
 21 22 0 0 0
SMALL
GASTEIGER

@<TRIPOS>ATOM
      1  N1        19.0680    0.2630    8.6960 N.am  229  UP6229     -0.0968
      2  C2        18.0880    1.1940    8.5600 C.1   229  UP6229      0.3005
      3  N3        17.3120    1.2310    7.4490 N.2   229  UP6229     -0.2426
      4  C4        17.5690    0.3570    6.4730 C.1   229  UP6229      0.2380
      5  C5        18.6380   -0.6340    6.6090 C.2   229  UP6229      0.2253
      6  N6        19.3590   -0.6600    7.6960 N.2   229  UP6229     -0.1496
      7  O2        17.9200    2.0010    9.4580 O.2   229  UP6229     -0.1905
      8  O4        16.9020    0.3790    5.4530 O.2   229  UP6229     -0.2069
      9  C1'       19.8990    0.2570    9.9000 C.3   229  UP6229      0.2577
     10  C2'       20.1670   -1.1610   10.4480 C.3   229  UP6229      0.2334
     11  C3'       21.5980   -1.0200   10.9900 C.3   229  UP6229      0.2159
     12  C4'       22.2460   -0.0850    9.9560 C.3   229  UP6229      0.1801
     13  O2'       19.2630   -1.4720   11.5120 O.3   229  UP6229     -0.2157
     14  O3'       21.5680   -0.3870   12.2720 O.3   229  UP6229     -0.2175
     15  O4'       21.1890    0.7840    9.5050 O.3   229  UP6229     -0.3309
     16  C5'       22.8660   -0.8520    8.7810 C.3   229  UP6229      0.1859
     17  O5'       23.9850   -1.5320    9.3600 O.3   229  UP6229     -0.2675
     18  P         25.0100   -2.3420    8.4030 P.3   229  UP6229      0.5327
     19  O1P       24.2500   -3.1020    7.3820 O.2   229  UP6229     -0.2224
     20  O2P       25.7580   -3.2790    9.4360 O.3   229  UP6229     -0.1145
     21  O3P       25.9980   -1.3110    7.7410 O.3   229  UP6229     -0.1145
@<TRIPOS>BOND
     1     8     4    2
     2     4     5    1
     3     4     3    2
     4     5     6    2
     5    19    18    2
     6     3     2    2
     7     6     1    1
     8    21    18    1
     9    18    17    1
    10    18    20    1
    11     2     1   am
    12     2     7    2
    13     1     9    1
    14    16    17    1
    15    16    12    1
    16    15     9    1
    17    15    12    1
    18     9    10    1
    19    12    11    1
    20    10    11    1
    21    10    13    1
    22    11    14    1
