@<TRIPOS>MOLECULE
3pbz_F02_A_1.pdb
 15 15 0 0 0
SMALL
GASTEIGER

@<TRIPOS>ATOM
      1  C1        -2.6200    2.8030   10.3940 C.ar  1001  F021001     0.0059
      2  C2        -1.3460    2.3340   10.0930 C.ar  1001  F021001     0.0565
      3  C3        -1.1370    0.9690   10.0290 C.ar  1001  F021001     0.0059
      4  C4        -2.2070    0.1160   10.2500 C.ar  1001  F021001     0.0147
      5  C5        -3.4790    0.5710   10.5560 C.ar  1001  F021001     0.0478
      6  C6        -3.7030    1.9500   10.6270 C.ar  1001  F021001     0.0147
      7  N7        -4.4980   -0.2750   10.7020 N.pl3 1001  F021001    -0.3075
      8  C8        -5.7890    0.2170   11.2430 C.3   1001  F021001     0.0908
      9  C9        -6.7940   -0.9330   11.0840 C.3   1001  F021001     0.0232
     10  C10       -4.3970   -1.6880   10.3150 C.3   1001  F021001     0.0908
     11  C11       -4.5910   -1.8350    8.8020 C.3   1001  F021001     0.0232
     12  C12       -0.2200    3.3160    9.8080 C.2   1001  F021001     0.2822
     13  O13       -0.4990    4.5260    9.8720 O.2   1001  F021001    -0.2669
     14  N14        1.0060    2.8830    9.5020 N.am  1001  F021001    -0.0886
     15  N15        2.0370    3.7790    9.2740 N.3   1001  F021001     0.0074
@<TRIPOS>BOND
     1    11    10    1
     2    15    14    1
     3    14    12   am
     4    12    13    2
     5    12     2    1
     6     3     2   ar
     7     3     4   ar
     8     2     1   ar
     9     4     5   ar
    10    10     7    1
    11     1     6   ar
    12     5     6   ar
    13     5     7    1
    14     7     8    1
    15     9     8    1
