@<TRIPOS>MOLECULE
3pc0_UP6_A_1.pdb
 21 22 0 0 0
SMALL
GASTEIGER

@<TRIPOS>ATOM
      1  N1        19.0320    0.1330    8.7650 N.am  229  UP6229     -0.0968
      2  C2        18.0490    1.0520    8.6280 C.1   229  UP6229      0.3005
      3  N3        17.2720    1.0500    7.5390 N.2   229  UP6229     -0.2426
      4  C4        17.4710    0.1310    6.5840 C.1   229  UP6229      0.2380
      5  C5        18.5480   -0.8550    6.7240 C.2   229  UP6229      0.2253
      6  N6        19.3110   -0.8230    7.7980 N.2   229  UP6229     -0.1496
      7  O2        17.8820    1.8950    9.4800 O.2   229  UP6229     -0.1905
      8  O4        16.7410    0.1270    5.5950 O.2   229  UP6229     -0.2069
      9  C1'       19.8960    0.1650    9.9410 C.3   229  UP6229      0.2577
     10  C2'       20.1690   -1.2560   10.4890 C.3   229  UP6229      0.2334
     11  C3'       21.6020   -1.1210   11.0300 C.3   229  UP6229      0.2159
     12  C4'       22.2470   -0.1980    9.9770 C.3   229  UP6229      0.1801
     13  O2'       19.2900   -1.5920   11.5660 O.3   229  UP6229     -0.2157
     14  O3'       21.5540   -0.4740   12.2950 O.3   229  UP6229     -0.2175
     15  O4'       21.1850    0.6740    9.5030 O.3   229  UP6229     -0.3309
     16  C5'       22.8720   -0.9980    8.8290 C.3   229  UP6229      0.1859
     17  O5'       24.0190   -1.5880    9.4400 O.3   229  UP6229     -0.2675
     18  P         25.0310   -2.4320    8.5060 P.3   229  UP6229      0.5327
     19  O1P       24.2770   -3.1950    7.4890 O.2   229  UP6229     -0.2224
     20  O2P       25.7760   -3.3900    9.5340 O.3   229  UP6229     -0.1145
     21  O3P       26.0210   -1.4050    7.8180 O.3   229  UP6229     -0.1145
@<TRIPOS>BOND
     1     8     4    2
     2     4     5    1
     3     4     3    2
     4     5     6    2
     5    19    18    2
     6     3     2    2
     7     6     1    1
     8    21    18    1
     9    18    17    1
    10    18    20    1
    11     2     1   am
    12     2     7    2
    13     1     9    1
    14    16    17    1
    15    16    12    1
    16    15     9    1
    17    15    12    1
    18     9    10    1
    19    12    11    1
    20    10    11    1
    21    10    13    1
    22    11    14    1
