@<TRIPOS>MOLECULE
3pca_DHB_M_1.pdb
 11 11 0 0 0
SMALL
GASTEIGER

@<TRIPOS>ATOM
      1  C1        14.8890   12.0560   40.6680 C.ar  550  DHB550      0.0832
      2  C2        15.1750   10.7400   40.2400 C.ar  550  DHB550      0.0520
      3  C3        14.3850    9.6780   40.6860 C.ar  550  DHB550      0.2345
      4  O3        14.6470    8.4250   40.2400 O.3   550  DHB550     -0.2831
      5  C4        13.3120    9.9020   41.5180 C.ar  550  DHB550      0.2343
      6  O4        12.5370    8.8210   41.9350 O.3   550  DHB550     -0.2831
      7  C5        12.9740   11.2060   41.9440 C.ar  550  DHB550      0.0456
      8  C6        13.7720   12.2680   41.5290 C.ar  550  DHB550      0.0101
      9  C         15.7570   13.2210   40.2770 C.2   550  DHB550      0.3879
     10  O1        16.7200   13.0420   39.5260 O.co2 550  DHB550     -0.2406
     11  O2        15.5150   14.3780   40.6670 O.co2 550  DHB550     -0.2406
@<TRIPOS>BOND
     1    10     9   ar
     2     2     1   ar
     3     2     3   ar
     4     4     3    1
     5     9    11   ar
     6     9     1    1
     7     1     8   ar
     8     3     5   ar
     9     5     6    1
    10     5     7   ar
    11     8     7   ar
