@<TRIPOS>MOLECULE
3pcb_3HB_M_1.pdb
 10 10 0 0 0
SMALL
GASTEIGER

@<TRIPOS>ATOM
      1  C1'       16.0260   13.6040   40.3710 C.2   550  3HB550      0.3879
      2  O1'       17.0400   13.3720   39.6730 O.co2 550  3HB550     -0.2406
      3  O2'       15.8070   14.7550   40.7850 O.co2 550  3HB550     -0.2406
      4  C1        15.1070   12.4240   40.7050 C.ar  550  3HB550      0.0829
      5  C2        15.4280   11.1420   40.2030 C.ar  550  3HB550      0.0486
      6  C3        14.6230   10.0410   40.4960 C.ar  550  3HB550      0.1960
      7  C4        13.5000   10.2010   41.2850 C.ar  550  3HB550      0.0420
      8  C5        13.1760   11.4900   41.7970 C.ar  550  3HB550      0.0035
      9  C6        13.9570   12.5940   41.5030 C.ar  550  3HB550      0.0068
     10  O3        14.9830    8.8250   39.9790 O.3   550  3HB550     -0.2866
@<TRIPOS>BOND
     1     2     1   ar
     2    10     6    1
     3     5     6   ar
     4     5     4   ar
     5     1     4    1
     6     1     3   ar
     7     6     7   ar
     8     4     9   ar
     9     7     8   ar
    10     9     8   ar
