@<TRIPOS>MOLECULE
3pcc_PHB_M_1.pdb
 10 10 0 0 0
SMALL
GASTEIGER

@<TRIPOS>ATOM
      1  C1'       15.6490   13.8990   40.9310 C.2   550  PHB550      0.3878
      2  O1'       16.5810   14.2470   40.2370 O.co2 550  PHB550     -0.2406
      3  O2'       15.1560   14.7840   41.6340 O.co2 550  PHB550     -0.2406
      4  C1        15.0670   12.4800   40.9640 C.ar  550  PHB550      0.0800
      5  C2        15.6540   11.4820   40.1700 C.ar  550  PHB550      0.0099
      6  C3        15.1510   10.1560   40.2130 C.ar  550  PHB550      0.0422
      7  C4        14.0380    9.8870   41.0150 C.ar  550  PHB550      0.1958
      8  C5        13.4610   10.8760   41.7980 C.ar  550  PHB550      0.0422
      9  C6        13.9480   12.1800   41.7510 C.ar  550  PHB550      0.0099
     10  O4        13.5830    8.6400   41.0400 O.3   550  PHB550     -0.2866
@<TRIPOS>BOND
     1     5     6   ar
     2     5     4   ar
     3     6     7   ar
     4     2     1   ar
     5     1     4    1
     6     1     3   ar
     7     4     9   ar
     8     7    10    1
     9     7     8   ar
    10     9     8   ar
