@<TRIPOS>MOLECULE
3pce_3HP_M_1.pdb
 11 11 0 0 0
SMALL
GASTEIGER

@<TRIPOS>ATOM
      1  C8        13.9860   13.9130   42.1120 C.2   550  3HP550      0.3692
      2  O1        13.3360   14.2050   43.1800 O.co2 550  3HP550     -0.2453
      3  O2        15.0540   14.4680   41.7220 O.co2 550  3HP550     -0.2453
      4  C7        13.2410   12.8990   41.2410 C.3   550  3HP550      0.1405
      5  C1        13.8750   11.5390   41.1770 C.ar  550  3HP550     -0.0078
      6  C2        13.7870   10.5500   42.1660 C.ar  550  3HP550      0.0383
      7  C3        14.3950    9.2930   41.9310 C.ar  550  3HP550      0.1954
      8  C4        15.0840    9.0190   40.7540 C.ar  550  3HP550      0.0420
      9  C5        15.2080    9.9960   39.8000 C.ar  550  3HP550      0.0030
     10  C6        14.5780   11.2600   39.9960 C.ar  550  3HP550     -0.0035
     11  O3        14.3280    8.3260   42.8930 O.3   550  3HP550     -0.2866
@<TRIPOS>BOND
     1     9    10   ar
     2     9     8   ar
     3    10     5   ar
     4     8     7   ar
     5     5     4    1
     6     5     6   ar
     7     4     1    1
     8     3     1   ar
     9     7     6   ar
    10     7    11    1
    11     1     2   ar
