@<TRIPOS>MOLECULE
3pcf_FHB_M_1.pdb
 11 11 0 0 0
SMALL
GASTEIGER

@<TRIPOS>ATOM
      1  C1        14.8930   12.3540   40.6670 C.ar  550  FHB550      0.0822
      2  C2        15.4850   11.3370   39.8780 C.ar  550  FHB550      0.0395
      3  C3        15.0210   10.0430   39.9610 C.ar  550  FHB550      0.1790
      4  F3        15.6060    9.0630   39.2210 F     550  FHB550     -0.2008
      5  C4        13.8990    9.7510   40.7520 C.ar  550  FHB550      0.2229
      6  O4        13.4700    8.4410   40.7650 O.3   550  FHB550     -0.2842
      7  C5        13.3060   10.7350   41.5220 C.ar  550  FHB550      0.0446
      8  C6        13.7930   12.0510   41.4670 C.ar  550  FHB550      0.0100
      9  C7        15.4750   13.7500   40.5900 C.2   550  FHB550      0.3878
     10  O1        16.4050   14.0100   39.8250 O.co2 550  FHB550     -0.2406
     11  O2        14.9870   14.6510   41.2430 O.co2 550  FHB550     -0.2406
@<TRIPOS>BOND
     1     4     3    1
     2    10     9   ar
     3     2     3   ar
     4     2     1   ar
     5     3     5   ar
     6     9     1    1
     7     9    11   ar
     8     1     8   ar
     9     5     6    1
    10     5     7   ar
    11     8     7   ar
