@<TRIPOS>MOLECULE
3pcg_4HP_M_1.pdb
 11 11 0 0 0
SMALL
GASTEIGER

@<TRIPOS>ATOM
      1  C8        15.5990   13.7890   40.4550 C.2   550  4HP550      0.3692
      2  O1        16.7700   13.6750   40.0290 O.co2 550  4HP550     -0.2453
      3  O2        15.3480   14.4780   41.4700 O.co2 550  4HP550     -0.2453
      4  C7        14.4470   12.9200   39.8720 C.3   550  4HP550      0.1404
      5  C1        14.4130   11.5380   40.5330 C.ar  550  4HP550     -0.0107
      6  C2        15.1060   10.4510   39.9400 C.ar  550  4HP550     -0.0004
      7  C3        15.1060    9.1960   40.5500 C.ar  550  4HP550      0.0417
      8  C4        14.4920    9.0650   41.8080 C.ar  550  4HP550      0.1957
      9  C5        13.8350   10.1460   42.4160 C.ar  550  4HP550      0.0417
     10  C6        13.8000   11.3790   41.7800 C.ar  550  4HP550     -0.0004
     11  O4        14.4770    7.9050   42.5200 O.3   550  4HP550     -0.2866
@<TRIPOS>BOND
     1     4     1    1
     2     4     5    1
     3     6     5   ar
     4     6     7   ar
     5     2     1   ar
     6     1     3   ar
     7     5    10   ar
     8     7     8   ar
     9    10     9   ar
    10     8     9   ar
    11     8    11    1
