@<TRIPOS>MOLECULE
3pch_CHB_M_1.pdb
 11 11 0 0 0
SMALL
GASTEIGER

@<TRIPOS>ATOM
      1  C1        14.8430   12.5980   40.6780 C.ar  550  CHB550      0.0808
      2  C2        15.4100   11.5770   39.8710 C.ar  550  CHB550      0.0212
      3  C3        14.9130   10.3000   39.9390 C.ar  550  CHB550      0.0967
      4 CL3        15.6960    9.0590   39.0190 Cl    550  CHB550     -0.0789
      5  C4        13.8720    9.9890   40.8040 C.ar  550  CHB550      0.2061
      6  O4        13.4560    8.6890   40.8550 O.3   550  CHB550     -0.2857
      7  C5        13.3100   10.9840   41.6230 C.ar  550  CHB550      0.0431
      8  C6        13.7880   12.2920   41.5350 C.ar  550  CHB550      0.0099
      9  C7        15.4350   14.0050   40.5530 C.2   550  CHB550      0.3878
     10  O1        16.3830   14.2430   39.7880 O.co2 550  CHB550     -0.2406
     11  O2        14.9320   14.8710   41.2860 O.co2 550  CHB550     -0.2406
@<TRIPOS>BOND
     1     4     3    1
     2    10     9   ar
     3     2     3   ar
     4     2     1   ar
     5     3     5   ar
     6     9     1    1
     7     9    11   ar
     8     1     8   ar
     9     5     6    1
    10     5     7   ar
    11     8     7   ar
