@<TRIPOS>MOLECULE
3pci_IHB_M_1.pdb
 11 11 0 0 0
SMALL
GASTEIGER

@<TRIPOS>ATOM
      1  C1        13.8530   12.3570   42.7730 C.ar  550  IHB550      0.0804
      2  C2        14.4170   11.8550   41.5910 C.ar  550  IHB550      0.0156
      3  C3        14.4310   10.4840   41.3710 C.ar  550  IHB550      0.0691
      4  I3        15.2990    9.7890   39.7010 I     550  IHB550     -0.0392
      5  C4        13.9520    9.6020   42.3250 C.ar  550  IHB550      0.2010
      6  O4        14.0060    8.2680   42.1150 O.3   550  IHB550     -0.2861
      7  C5        13.3600   10.0910   43.4980 C.ar  550  IHB550      0.0427
      8  C6        13.3210   11.4600   43.7290 C.ar  550  IHB550      0.0099
      9  C7        13.8540   13.8840   43.0360 C.2   550  IHB550      0.3878
     10  O1        14.4120   14.6560   42.2720 O.co2 550  IHB550     -0.2406
     11  O2        13.2750   14.2580   44.0820 O.co2 550  IHB550     -0.2406
@<TRIPOS>BOND
     1     4     3    1
     2     3     2   ar
     3     3     5   ar
     4     2     1   ar
     5     6     5    1
     6    10     9   ar
     7     5     7   ar
     8     1     9    1
     9     1     8   ar
    10     9    11   ar
    11     7     8   ar
