@<TRIPOS>MOLECULE
3pcj_INO_M_1.pdb
 11 11 0 0 0
SMALL
GASTEIGER

@<TRIPOS>ATOM
      1  N1        13.3610    9.7970   41.4810 N.am  550  INO550     -0.2574
      2  C2        14.3500    9.5850   40.6410 C.2   550  INO550      0.0954
      3  C3        15.1420   10.6250   40.1820 C.2   550  INO550      0.0298
      4  C4        14.8770   11.9410   40.6080 C.2   550  INO550      0.0829
      5  C5        13.7720   12.1530   41.4500 C.2   550  INO550      0.0232
      6  C6        13.0390   11.0370   41.8950 C.2   550  INO550      0.0718
      7  C7        15.7860   13.1060   40.1640 C.2   550  INO550      0.3879
      8  O1        16.7390   12.8800   39.4340 O.co2 550  INO550     -0.2406
      9  O2        15.5690   14.2670   40.5150 O.co2 550  INO550     -0.2406
     10  O3        14.5980    8.4430   40.2390 O.2   550  INO550     -0.5370
     11  O4        12.6050    8.7900   41.8880 O.co2 550  INO550     -0.4156
@<TRIPOS>UNITY_ATOM_ATTR
1 1
charge 1
11 1
charge -1
@<TRIPOS>BOND
     1     8     7   ar
     2     7     9   ar
     3     7     4    1
     4     3     4    2
     5     3     2    1
     6    10     2    2
     7     4     5    1
     8     2     1    1
     9     5     6    2
    10     1    11    1
    11     1     6    1
