@<TRIPOS>MOLECULE
3pck_NNO_M_1.pdb
 11 11 0 0 0
SMALL
GASTEIGER

@<TRIPOS>ATOM
      1  N1        14.1890    9.4890   40.7470 N.am  550  NNO550     -0.2572
      2  C2        14.9550   10.4550   40.3000 C.2   550  NNO550      0.0781
      3  C3        14.8000   11.8160   40.6900 C.2   550  NNO550      0.0951
      4  C4        13.7500   12.1190   41.5570 C.2   550  NNO550      0.0098
      5  C5        12.9350   11.1110   42.0320 C.2   550  NNO550      0.0234
      6  C6        13.1750    9.7930   41.5940 C.2   550  NNO550      0.0952
      7  C7        15.7760   12.9150   40.2280 C.2   550  NNO550      0.3890
      8  O1        16.6970   12.6030   39.4700 O.co2 550  NNO550     -0.2405
      9  O2        15.6570   14.0890   40.5750 O.co2 550  NNO550     -0.2405
     10  O4        12.3610    8.8800   41.9840 O.2   550  NNO550     -0.5370
     11  O3        14.3270    8.3100   40.3520 O.co2 550  NNO550     -0.4156
@<TRIPOS>UNITY_ATOM_ATTR
1 1
charge 1
11 1
charge -1
@<TRIPOS>BOND
     1     8     7   ar
     2     7     9   ar
     3     7     3    1
     4     2     3    2
     5     2     1    1
     6    11     1    1
     7     3     4    1
     8     1     6    1
     9     4     5    2
    10     6    10    2
    11     6     5    1
