@<TRIPOS>MOLECULE
3pcl_INO_M_1.pdb
 11 11 0 0 0
SMALL
GASTEIGER

@<TRIPOS>ATOM
      1  N1        13.1630    9.9510   41.5320 N.am  550  INO550     -0.2574
      2  C2        14.1520    9.6440   40.6960 C.2   550  INO550      0.0954
      3  C3        15.0230   10.6360   40.1960 C.2   550  INO550      0.0298
      4  C4        14.8210   11.9710   40.6310 C.2   550  INO550      0.0829
      5  C5        13.7750   12.2370   41.5310 C.2   550  INO550      0.0232
      6  C6        12.9710   11.1900   41.9620 C.2   550  INO550      0.0718
      7  C7        15.7670   13.1020   40.1530 C.2   550  INO550      0.3879
      8  O1        16.6700   12.8130   39.3460 O.co2 550  INO550     -0.2406
      9  O2        15.6020   14.2450   40.5560 O.co2 550  INO550     -0.2406
     10  O3        14.3460    8.4810   40.3350 O.2   550  INO550     -0.5370
     11  O4        12.3880    8.9950   41.9690 O.co2 550  INO550     -0.4156
@<TRIPOS>UNITY_ATOM_ATTR
1 1
charge 1
11 1
charge -1
@<TRIPOS>BOND
     1     8     7   ar
     2     7     9   ar
     3     7     4    1
     4     3     4    2
     5     3     2    1
     6    10     2    2
     7     4     5    1
     8     2     1    1
     9     5     6    2
    10     1     6    1
    11     1    11    1
