@<TRIPOS>MOLECULE
3pcm_NNO_M_1.pdb
 11 11 0 0 0
SMALL
GASTEIGER

@<TRIPOS>ATOM
      1  N1        14.2390    9.5300   40.8800 N.am  550  NNO550     -0.2572
      2  C2        15.0420   10.4870   40.4430 C.2   550  NNO550      0.0781
      3  C3        14.8520   11.8490   40.7750 C.2   550  NNO550      0.0951
      4  C4        13.7540   12.1730   41.6020 C.2   550  NNO550      0.0098
      5  C5        12.9210   11.1630   42.0600 C.2   550  NNO550      0.0234
      6  C6        13.2060    9.8440   41.6890 C.2   550  NNO550      0.0952
      7  C7        15.7900   12.9540   40.2760 C.2   550  NNO550      0.3890
      8  O1        16.7570   12.6600   39.5500 O.co2 550  NNO550     -0.2405
      9  O2        15.6020   14.1390   40.5920 O.co2 550  NNO550     -0.2405
     10  O4        12.4460    8.9110   42.1110 O.2   550  NNO550     -0.5370
     11  O3        14.4460    8.3230   40.5610 O.co2 550  NNO550     -0.4156
@<TRIPOS>UNITY_ATOM_ATTR
1 1
charge 1
11 1
charge -1
@<TRIPOS>BOND
     1     8     7   ar
     2     7     9   ar
     3     7     3    1
     4     2     3    2
     5     2     1    1
     6    11     1    1
     7     3     4    1
     8     1     6    1
     9     4     5    2
    10     6     5    1
    11     6    10    2
