@<TRIPOS>MOLECULE
3pcn_DHY_M_1.pdb
 12 12 0 0 0
SMALL
GASTEIGER

@<TRIPOS>ATOM
      1  C1        14.0730   11.5350   40.5930 C.ar  550  DHY550     -0.0076
      2  C2        14.3540   10.1820   40.2180 C.ar  550  DHY550      0.0417
      3  C3        14.1580    9.2130   41.1660 C.ar  550  DHY550      0.2340
      4  C4        13.7400    9.5050   42.4530 C.ar  550  DHY550      0.2342
      5  C5        13.4970   10.8170   42.8440 C.ar  550  DHY550      0.0451
      6  C6        13.6720   11.8540   41.8900 C.ar  550  DHY550     -0.0002
      7  C7        14.4480   12.6880   39.6060 C.3   550  DHY550      0.1405
      8  C8        15.6910   13.5590   40.1290 C.2   550  DHY550      0.3692
      9  O1        16.8150   13.1380   39.7260 O.co2 550  DHY550     -0.2453
     10  O2        15.4930   14.5000   40.8920 O.co2 550  DHY550     -0.2453
     11  O3        14.3350    7.8810   40.8960 O.3   550  DHY550     -0.2832
     12  O4        13.5820    8.3990   43.2670 O.3   550  DHY550     -0.2831
@<TRIPOS>BOND
     1     7     8    1
     2     7     1    1
     3     9     8   ar
     4     8    10   ar
     5     2     1   ar
     6     2     3   ar
     7     1     6   ar
     8    11     3    1
     9     3     4   ar
    10     6     5   ar
    11     4     5   ar
    12     4    12    1
