@<TRIPOS>MOLECULE
3pco_AMP_A_1.pdb
 23 25 0 0 0
SMALL
GASTEIGER

@<TRIPOS>ATOM
      1  P        -23.8830   -7.3780   44.9440 P.3   992  AMP992      0.5327
      2  O1P      -23.2050   -8.4920   43.9570 O.2   992  AMP992     -0.2224
      3  O2P      -23.2590   -6.0410   44.7840 O.3   992  AMP992     -0.1145
      4  O3P      -25.4660   -7.4080   44.5910 O.3   992  AMP992     -0.1145
      5  O5'      -23.9230   -7.9520   46.4900 O.3   992  AMP992     -0.2675
      6  C5'      -22.9730   -8.8860   47.1190 C.3   992  AMP992      0.1860
      7  C4'      -22.1460   -8.1860   48.2450 C.3   992  AMP992      0.1823
      8  O4'      -22.0620   -6.7800   47.8980 O.3   992  AMP992     -0.3135
      9  C3'      -22.6970   -8.1760   49.6680 C.3   992  AMP992      0.2184
     10  O3'      -21.6350   -8.6130   50.4960 O.3   992  AMP992     -0.2174
     11  C2'      -22.9810   -6.6880   49.9240 C.3   992  AMP992      0.2570
     12  O2'      -22.8450   -6.2900   51.2950 O.3   992  AMP992     -0.2130
     13  C1'      -21.8520   -6.0790   49.1270 C.3   992  AMP992      0.3186
     14  N9       -21.8820   -4.5630   48.8970 N.pl3 992  AMP992     -0.1439
     15  C8       -21.0810   -3.8600   48.0640 C.3   992  AMP992      0.3377
     16  N7       -21.3640   -2.5560   48.1220 N.2   992  AMP992     -0.2095
     17  C5       -22.3510   -2.4420   48.9890 C.2   992  AMP992      0.2526
     18  C6       -23.0540   -1.3660   49.4430 C.2   992  AMP992      0.4393
     19  N6       -22.7780   -0.1650   48.9970 N.pl3 992  AMP992      0.2180
     20  N1       -24.0160   -1.5730   50.3450 N.2   992  AMP992      0.0021
     21  C2       -24.3050   -2.7910   50.8160 C.3   992  AMP992      0.5254
     22  N3       -23.6500   -3.8540   50.4010 N.2   992  AMP992     -0.0055
     23  C4       -22.6820   -3.6950   49.4890 C.2   992  AMP992      0.3518
@<TRIPOS>BOND
     1     2     1    2
     2     4     1    1
     3     3     1    1
     4     1     5    1
     5     5     6    1
     6     6     7    1
     7     8     7    1
     8     8    13    1
     9    15    16    1
    10    15    14    1
    11    16    17    2
    12     7     9    1
    13    14    13    1
    14    14    23    1
    15    17    18    1
    16    17    23    1
    17    19    18    1
    18    13    11    1
    19    18    20    2
    20    23    22    2
    21     9    11    1
    22     9    10    1
    23    11    12    1
    24    20    21    1
    25    22    21    1
