@<TRIPOS>MOLECULE
3pco_PHE_A_1.pdb
 12 12 0 0 0
SMALL
GASTEIGER

@<TRIPOS>ATOM
      1  N        -21.1060   -9.6460   52.6930 N.3   980  PHE980     -0.1205
      2  CA       -20.7570  -10.6590   53.7250 C.3   980  PHE980      0.1986
      3  C        -19.3230  -11.0460   53.4580 C.2   980  PHE980      0.3822
      4  O        -18.9370  -11.1850   52.2770 O.co2 980  PHE980     -0.2440
      5  CB       -21.6690  -11.8850   53.6010 C.3   980  PHE980      0.0569
      6  CG       -21.4750  -12.9320   54.6810 C.ar  980  PHE980     -0.0202
      7  CD1      -21.0630  -12.5930   55.9590 C.ar  980  PHE980     -0.0042
      8  CD2      -21.7550  -14.2700   54.4150 C.ar  980  PHE980     -0.0042
      9  CE1      -20.9100  -13.5830   56.9340 C.ar  980  PHE980     -0.0003
     10  CE2      -21.5980  -15.2480   55.3910 C.ar  980  PHE980     -0.0003
     11  CZ       -21.1880  -14.9030   56.6450 C.ar  980  PHE980     -0.0000
     12  OXT      -18.5490  -11.2170   54.4190 O.co2 980  PHE980     -0.2440
@<TRIPOS>BOND
     1     4     3   ar
     2     1     2    1
     3     3     2    1
     4     3    12   ar
     5     5     2    1
     6     5     6    1
     7     8     6   ar
     8     8    10   ar
     9     6     7   ar
    10    10    11   ar
    11     7     9   ar
    12    11     9   ar
