@<TRIPOS>MOLECULE
3pcr_GTP_B_1.pdb
 32 34 0 0 0
SMALL
GASTEIGER

@<TRIPOS>ATOM
      1  PG       -46.4250  -14.9240  -28.6560 P.3   1230  GTP1230     0.5373
      2  O1G      -47.4430  -14.4460  -27.6430 O.3   1230  GTP1230    -0.1143
      3  O2G      -45.0850  -14.3660  -28.2760 O.3   1230  GTP1230    -0.1143
      4  O3G      -46.8500  -14.3720  -29.9920 O.2   1230  GTP1230    -0.2221
      5  O3B      -46.3640  -16.5320  -28.7380 O.3   1230  GTP1230    -0.2258
      6  PB       -45.2130  -17.3540  -29.4980 P.3   1230  GTP1230     0.2277
      7  O1B      -45.7070  -18.3900  -30.4790 O.2   1230  GTP1230    -0.5168
      8  O2B      -44.1780  -16.4400  -30.1260 O.3   1230  GTP1230    -0.4368
      9  O3A      -44.6130  -18.2810  -28.3450 O.3   1230  GTP1230    -0.2700
     10  PA       -43.0320  -18.4800  -28.1880 P.3   1230  GTP1230     0.2189
     11  O1A      -42.2880  -18.7060  -29.4880 O.2   1230  GTP1230    -0.5170
     12  O2A      -42.6190  -17.2250  -27.4480 O.3   1230  GTP1230    -0.4371
     13  O5'      -43.0560  -19.8600  -27.3950 O.3   1230  GTP1230    -0.3112
     14  C5'      -44.0250  -20.0550  -26.3740 C.3   1230  GTP1230     0.1813
     15  C4'      -43.3890  -20.9030  -25.2780 C.3   1230  GTP1230     0.1799
     16  O4'      -43.4080  -22.2400  -25.7500 O.3   1230  GTP1230    -0.3326
     17  C3'      -41.9390  -20.4840  -25.1080 C.3   1230  GTP1230     0.2158
     18  O3'      -41.5950  -20.4530  -23.7430 O.3   1230  GTP1230    -0.2175
     19  C2'      -41.1820  -21.5570  -25.8690 C.3   1230  GTP1230     0.2310
     20  O2'      -39.8930  -21.8190  -25.3580 O.3   1230  GTP1230    -0.2158
     21  C1'      -42.1070  -22.7620  -25.7800 C.3   1230  GTP1230     0.2293
     22  N9       -41.8580  -23.6210  -26.9460 N.pl3 1230  GTP1230    -0.2354
     23  C8       -41.6540  -23.2410  -28.2510 C.3   1230  GTP1230     0.2246
     24  N7       -41.4180  -24.3660  -28.9770 N.2   1230  GTP1230    -0.2322
     25  C5       -41.4610  -25.4470  -28.1590 C.2   1230  GTP1230     0.2182
     26  C6       -41.2950  -26.8210  -28.3610 C.1   1230  GTP1230     0.2372
     27  O6       -41.0590  -27.2900  -29.4710 O.2   1230  GTP1230    -0.2069
     28  N1       -41.4020  -27.6860  -27.2900 N.2   1230  GTP1230    -0.2485
     29  C2       -41.6690  -27.1910  -26.0260 C.1   1230  GTP1230     0.2531
     30  N2       -41.7690  -28.0210  -24.9940 N.pl3 1230  GTP1230    -0.0226
     31  N3       -41.8320  -25.8320  -25.8330 N.2   1230  GTP1230    -0.3074
     32  C4       -41.7300  -24.9800  -26.8790 C.2   1230  GTP1230     0.2300
@<TRIPOS>BOND
     1     7     6    2
     2     8     6    1
     3     4     1    2
     4     6     5    1
     5     6     9    1
     6    11    10    2
     7    27    26    2
     8    24    23    1
     9    24    25    2
    10     5     1    1
    11     1     3    1
    12     1     2    1
    13    26    25    1
    14    26    28    2
    15     9    10    1
    16    23    22    1
    17    10    12    1
    18    10    13    1
    19    25    32    1
    20    13    14    1
    21    28    29    2
    22    22    32    1
    23    22    21    1
    24    32    31    2
    25    14    15    1
    26    29    31    2
    27    29    30    1
    28    19    21    1
    29    19    20    1
    30    19    17    1
    31    21    16    1
    32    16    15    1
    33    15    17    1
    34    17    18    1
