@<TRIPOS>MOLECULE
3pcu_LX8_A_1.pdb
 26 28 0 0 0
SMALL
GASTEIGER

@<TRIPOS>ATOM
      1  CAA      -19.3250   -0.0320    7.4080 C.3     1  LX81        0.0003
      2  CAB      -20.9670    9.7580    2.1320 C.3     1  LX81        0.1212
      3  CAC      -20.6690   -1.7170    5.6440 C.3     1  LX81        0.0046
      4  CAD      -18.4110   -2.7370    5.1910 C.3     1  LX81        0.0046
      5  CAE      -18.8480    7.4990    3.0840 C.3     1  LX81        0.0475
      6  CAF      -17.4100    7.1880    1.0170 C.3     1  LX81        0.0475
      7  OAG      -18.6320   10.0380    1.7100 O.2     1  LX81       -0.2501
      8  OAH      -19.3730   -2.1650    2.5310 O.2     1  LX81       -0.2448
      9  CAI      -18.6070   -0.7860    6.4790 C.3     1  LX81        0.0043
     10  CAJ      -18.7200    2.9780    3.6680 C.ar    1  LX81        0.0019
     11  CAK      -18.9610    2.1960    0.9820 C.ar    1  LX81        0.0741
     12  CAL      -18.8570    0.7780    4.3740 C.ar    1  LX81        0.0051
     13  CAM      -18.6430    5.3690    2.7370 C.3     1  LX81        0.0766
     14  OAN      -19.5860    8.1380    0.8820 O.3     1  LX81       -0.4521
     15  OAO      -18.8170    4.7240    0.5810 O.3     1  LX81       -0.4755
     16  OAP      -19.0840   -0.1010    1.7270 O.2     1  LX81       -0.4212
     17  CAQ      -19.6320    9.3280    1.5620 C.2     1  LX81        0.3174
     18  CAR      -18.7250    3.9010    2.6560 C.ar    1  LX81        0.0157
     19  CAS      -18.8460    3.5550    1.3130 C.ar    1  LX81        0.1377
     20  CAT      -19.0820   -0.5530    4.1280 C.ar    1  LX81        0.0533
     21  CAU      -19.1910   -0.9770    2.7900 C.ar    1  LX81        0.3416
     22  CAV      -18.8120    1.6530    3.3280 C.ar    1  LX81        0.0345
     23  CAW      -18.9600    1.2350    2.0060 C.ar    1  LX81        0.1517
     24  CAX      -19.3690    5.7370    1.4810 C.3     1  LX81        0.2064
     25  CAY      -19.1840   -1.4420    5.3840 C.3     1  LX81        0.0251
     26  CAZ      -18.8170    7.1560    1.5870 C.3     1  LX81        0.1727
@<TRIPOS>BOND
     1    15    19    1
     2    15    24    1
     3    14    17    1
     4    14    26    1
     5    11    19   ar
     6    11    23   ar
     7     6    26    1
     8    19    18   ar
     9    24    26    1
    10    24    13    1
    11    17     7    2
    12    17     2    1
    13    26     5    1
    14    16    23   ar
    15    16    21   ar
    16    23    22   ar
    17     8    21    2
    18    18    13    1
    19    18    10   ar
    20    21    20   ar
    21    22    10   ar
    22    22    12   ar
    23    20    12   ar
    24    20    25    1
    25     4    25    1
    26    25     3    1
    27    25     9    1
    28     9     1    1
