@<TRIPOS>MOLECULE
3pcv_GSH_A_1.pdb
 20 19 0 0 0
SMALL
GASTEIGER

@<TRIPOS>ATOM
      1  N1        34.4500   57.1270   23.9570 N.3   201  GSH201     -0.1208
      2  CA1       35.4700   56.9270   22.9190 C.3   201  GSH201      0.1948
      3  C1        36.6310   56.1190   23.5140 C.2   201  GSH201      0.3819
      4  O11       37.6400   55.8390   22.8560 O.co2 201  GSH201     -0.2441
      5  O12       36.6160   55.7320   24.6950 O.co2 201  GSH201     -0.2441
      6  CB1       35.9320   58.3070   22.4000 C.3   201  GSH201      0.0402
      7  CG1       37.1050   58.3210   21.3890 C.3   201  GSH201      0.0889
      8  CD1       36.8860   57.3440   20.2430 C.2   201  GSH201      0.2418
      9  OE1       35.7260   57.4000   19.4700 O.2   201  GSH201     -0.2733
     10  N2        37.8440   56.4250   19.9980 N.am  201  GSH201     -0.1968
     11  CA2       37.7750   55.4900   18.9000 C.3   201  GSH201      0.1843
     12  C2        37.1320   54.1970   19.3480 C.2   201  GSH201      0.2627
     13  O2        36.8940   53.1970   18.4470 O.2   201  GSH201     -0.2714
     14  CB2       39.1980   55.2250   18.3570 C.3   201  GSH201      0.0997
     15  SG2       40.2430   54.7350   19.7800 S.3   201  GSH201     -0.0797
     16  N3        36.8060   53.9890   20.6120 N.am  201  GSH201     -0.1917
     17  CA3       36.5550   52.6280   21.0620 C.3   201  GSH201      0.2285
     18  C3        35.5030   52.6110   22.1480 C.2   201  GSH201      0.3865
     19  O31       34.8180   53.6520   22.3900 O.co2 201  GSH201     -0.2437
     20  O32       35.2780   51.5530   22.7940 O.co2 201  GSH201     -0.2437
@<TRIPOS>BOND
     1    14    11    1
     2    14    15    1
     3    13    12    2
     4    11    12    1
     5    11    10    1
     6    12    16   am
     7     9     8    2
     8    10     8   am
     9     8     7    1
    10    16    17    1
    11    17    18    1
    12     7     6    1
    13    18    19   ar
    14    18    20   ar
    15     6     2    1
    16     4     3   ar
    17     2     3    1
    18     2     1    1
    19     3     5   ar
