@<TRIPOS>MOLECULE
3pcw_FBF_A_1.pdb
 13 13 0 0 0
SMALL
GASTEIGER

@<TRIPOS>ATOM
      1  C1         0.7700    7.2090   10.5890 C.ar  2001  FBF2001     0.0079
      2  C2         0.5670    8.5670   10.4300 C.ar  2001  FBF2001     0.0041
      3  C3         1.3390    9.3280    9.5290 C.ar  2001  FBF2001     0.0714
      4  C4         2.3540    8.7260    8.7970 C.ar  2001  FBF2001     0.0041
      5  C5         2.5530    7.3720    8.9850 C.ar  2001  FBF2001     0.0079
      6  C6         1.8140    6.6190    9.8690 C.ar  2001  FBF2001     0.0975
      7  C7         2.1360    5.1510   10.0470 C.2   2001  FBF2001     0.4766
      8  N8         2.5130    4.4680    8.9590 N.pl3 2001  FBF2001     0.2047
      9  N9         1.9840    4.6130   11.2020 N.pl3 2001  FBF2001     0.2047
     10  C10        1.1990   10.8620    9.4230 C.3   2001  FBF2001     0.4186
     11  F11        0.1090   11.1880   10.1480 F     2001  FBF2001    -0.1659
     12  F12        2.2830   11.5170    9.9260 F     2001  FBF2001    -0.1659
     13  F13        1.1040   11.2230    8.1360 F     2001  FBF2001    -0.1659
@<TRIPOS>BOND
     1    13    10    1
     2     4     5   ar
     3     4     3   ar
     4     8     7    2
     5     5     6   ar
     6    10     3    1
     7    10    12    1
     8    10    11    1
     9     3     2   ar
    10     6     7    1
    11     6     1   ar
    12     7     9    1
    13     2     1   ar
