@<TRIPOS>MOLECULE
3pcx_III_B_1.pdb
 37 36 0 0 0
SMALL
GASTEIGER

@<TRIPOS>ATOM
      1  C         41.1140   13.8220   74.5620 C.2     1  ACE1        0.2423
      2  O         39.9280   13.7220   74.2510 O.2     1  ACE1       -0.2733
      3  CH3       41.5330   14.0250   76.0190 C.3     1  ACE1        0.0964
      4  N         42.1160   13.7670   73.6890 N.am    2  ASP2       -0.1972
      5  CA        41.8800   13.5790   72.2510 C.3     2  ASP2        0.1839
      6  C         41.4920   12.1280   71.9590 C.2     2  ASP2        0.2622
      7  O         42.1820   11.1930   72.3650 O.2     2  ASP2       -0.2715
      8  CB        43.1390   13.9380   71.4610 C.3     2  ASP2        0.1450
      9  CG        43.4700   15.4240   71.6070 C.2     2  ASP2        0.3671
     10  OD1       42.5050   16.2130   71.7000 O.co2   2  ASP2       -0.2456
     11  OD2       44.6800   15.7350   71.6170 O.co2   2  ASP2       -0.2456
     12  N         40.3790   11.9870   71.2470 N.am    3  GLU3       -0.1963
     13  CA        39.8390   10.6760   70.8550 C.3     3  GLU3        0.1733
     14  C         39.3630   10.7740   69.4040 C.2     3  GLU3        0.2616
     15  O         39.0810   11.8640   68.9100 O.2     3  GLU3       -0.2715
     16  CB        38.6450   10.3300   71.7480 C.3     3  GLU3        0.0429
     17  CG        39.0460   10.2760   73.2240 C.3     3  GLU3        0.1163
     18  CD        37.8600    9.9240   74.1250 C.2     3  GLU3        0.3649
     19  OE1       36.7200    9.9440   73.6120 O.co2   3  GLU3       -0.2457
     20  OE2       38.1190    9.6440   75.3150 O.co2   3  GLU3       -0.2457
     21  N         39.2850    9.6260   68.7370 N.am    4  VAL4       -0.1963
     22  CA        38.8290    9.5970   67.3400 C.3     4  VAL4        0.1727
     23  C         37.4020    9.0480   67.2860 C.2     4  VAL4        0.2616
     24  O         36.9980    8.2560   68.1360 O.2     4  VAL4       -0.2715
     25  CB        39.7610    8.7360   66.4850 C.3     4  VAL4        0.0290
     26  CG1       41.1610    9.3510   66.4320 C.3     4  VAL4        0.0023
     27  CG2       39.8290    7.3000   67.0100 C.3     4  VAL4        0.0023
     28  N         36.6530    9.5030   66.2850 N.am    5  ASP5       -0.1976
     29  CA        35.2600    9.0650   66.1160 C.3     5  ASP5        0.1648
     30  C         35.1660    7.7860   65.2830 C.2     5  ASP5        0.1871
     31  O         34.3880    7.7200   64.3310 O.2     5  ASP5       -0.2929
     32  CB        34.4200   10.1880   65.5020 C.3     5  ASP5        0.1432
     33  CG        33.9820   11.1570   66.6010 C.2     5  ASP5        0.3671
     34  OD1       33.7970   10.6620   67.7340 O.co2   5  ASP5       -0.2456
     35  OD2       33.8130   12.3550   66.2880 O.co2   5  ASP5       -0.2456
     36  C1        36.0420    6.5900   65.6590 C.3     6  0QE6        0.1607
     37 CL1        36.4090    5.5650   64.2470 Cl      6  0QE6       -0.1052
@<TRIPOS>BOND
     1    37    36    1
     2    31    30    2
     3    30    36    1
     4    30    29    1
     5    32    29    1
     6    32    33    1
     7    29    28    1
     8    28    23   am
     9    35    33   ar
    10    26    25    1
    11    25    27    1
    12    25    22    1
    13    33    34   ar
    14    23    22    1
    15    23    24    2
    16    22    21    1
    17    21    14   am
    18    15    14    2
    19    14    13    1
    20    13    12    1
    21    13    16    1
    22    12     6   am
    23     8     9    1
    24     8     5    1
    25     9    11   ar
    26     9    10   ar
    27    16    17    1
    28     6     5    1
    29     6     7    2
    30     5     4    1
    31    17    18    1
    32    19    18   ar
    33     4     1   am
    34    18    20   ar
    35     2     1    2
    36     1     3    1
