@<TRIPOS>MOLECULE
3pd0_III_B_1.pdb
 36 35 0 0 0
SMALL
GASTEIGER

@<TRIPOS>ATOM
      1  C         40.4380   13.7530   74.6180 C.2     1  ACE1        0.2423
      2  O         39.2450   13.6880   74.3250 O.2     1  ACE1       -0.2733
      3  CH3       40.8860   13.9420   76.0680 C.3     1  ACE1        0.0964
      4  N         41.4260   13.6680   73.7320 N.am    2  ASP2       -0.1972
      5  CA        41.1700   13.4900   72.2950 C.3     2  ASP2        0.1839
      6  C         40.7930   12.0390   71.9940 C.2     2  ASP2        0.2622
      7  O         41.4890   11.1010   72.3840 O.2     2  ASP2       -0.2715
      8  CB        42.4080   13.8800   71.4880 C.3     2  ASP2        0.1450
      9  CG        42.7140   15.3730   71.6240 C.2     2  ASP2        0.3671
     10  OD1       41.7390   16.1430   71.7620 O.co2   2  ASP2       -0.2456
     11  OD2       43.9160   15.7140   71.5740 O.co2   2  ASP2       -0.2456
     12  N         39.6720   11.8950   71.2960 N.am    3  GLU3       -0.1963
     13  CA        39.1470   10.5820   70.8960 C.3     3  GLU3        0.1733
     14  C         38.6980   10.6940   69.4370 C.2     3  GLU3        0.2616
     15  O         38.4460   11.7940   68.9480 O.2     3  GLU3       -0.2715
     16  CB        37.9480   10.2270   71.7790 C.3     3  GLU3        0.0429
     17  CG        38.3380   10.2180   73.2580 C.3     3  GLU3        0.1163
     18  CD        37.1540    9.8650   74.1630 C.2     3  GLU3        0.3649
     19  OE1       36.0110    9.8960   73.6550 O.co2   3  GLU3       -0.2457
     20  OE2       37.4160    9.5710   75.3480 O.co2   3  GLU3       -0.2457
     21  N         38.6390    9.5560   68.7510 N.am    4  VAL4       -0.1963
     22  CA        38.2050    9.5450   67.3470 C.3     4  VAL4        0.1727
     23  C         36.7700    9.0170   67.2740 C.2     4  VAL4        0.2616
     24  O         36.3400    8.2470   68.1310 O.2     4  VAL4       -0.2715
     25  CB        39.1320    8.6640   66.5060 C.3     4  VAL4        0.0290
     26  CG1       40.5540    9.2260   66.5080 C.3     4  VAL4        0.0023
     27  CG2       39.1260    7.2180   67.0110 C.3     4  VAL4        0.0023
     28  N         36.0400    9.4770   66.2630 N.am    5  ASP5       -0.1976
     29  CA        34.6480    9.0510   66.0650 C.3     5  ASP5        0.1635
     30  C         34.5900    7.8490   65.1230 C.2     5  ASP5        0.1713
     31  O         35.4170    6.9440   65.2250 O.2     5  ASP5       -0.2942
     32  CB        33.8040   10.1990   65.5040 C.3     5  ASP5        0.1432
     33  CG        33.3570   11.1290   66.6340 C.2     5  ASP5        0.3671
     34  OD1       33.1350   10.5940   67.7420 O.co2   5  ASP5       -0.2456
     35  OD2       33.2320   12.3420   66.3630 O.co2   5  ASP5       -0.2456
     36  C1        33.4900    7.7810   64.0620 C.3     6  0QE6        0.0741
@<TRIPOS>BOND
     1    36    30    1
     2    30    31    2
     3    30    29    1
     4    32    29    1
     5    32    33    1
     6    29    28    1
     7    28    23   am
     8    35    33   ar
     9    25    26    1
    10    25    27    1
    11    25    22    1
    12    33    34   ar
    13    23    22    1
    14    23    24    2
    15    22    21    1
    16    21    14   am
    17    15    14    2
    18    14    13    1
    19    13    12    1
    20    13    16    1
    21    12     6   am
    22     8     9    1
    23     8     5    1
    24    11     9   ar
    25     9    10   ar
    26    16    17    1
    27     6     5    1
    28     6     7    2
    29     5     4    1
    30    17    18    1
    31    19    18   ar
    32     4     1   am
    33    18    20   ar
    34     2     1    2
    35     1     3    1
