@<TRIPOS>MOLECULE
3pd1_III_B_1.pdb
 37 36 0 0 0
SMALL
GASTEIGER

@<TRIPOS>ATOM
      1  C         41.0030   13.7470   74.5440 C.2     1  ACE1        0.2423
      2  O         39.8180   13.6040   74.2500 O.2     1  ACE1       -0.2733
      3  CH3       41.4360   13.9490   75.9970 C.3     1  ACE1        0.0964
      4  N         41.9940   13.7330   73.6570 N.am    2  ASP2       -0.1972
      5  CA        41.7440   13.5480   72.2200 C.3     2  ASP2        0.1839
      6  C         41.3650   12.0930   71.9350 C.2     2  ASP2        0.2622
      7  O         42.0520   11.1660   72.3610 O.2     2  ASP2       -0.2715
      8  CB        42.9910   13.9230   71.4160 C.3     2  ASP2        0.1450
      9  CG        43.3300   15.4090   71.5580 C.2     2  ASP2        0.3671
     10  OD1       42.3720   16.2080   71.6240 O.co2   2  ASP2       -0.2456
     11  OD2       44.5430   15.7130   71.5840 O.co2   2  ASP2       -0.2456
     12  N         40.2610   11.9400   71.2080 N.am    3  GLU3       -0.1963
     13  CA        39.7270   10.6270   70.8150 C.3     3  GLU3        0.1733
     14  C         39.2410   10.7180   69.3660 C.2     3  GLU3        0.2616
     15  O         38.9860   11.8110   68.8620 O.2     3  GLU3       -0.2715
     16  CB        38.5460   10.2610   71.7170 C.3     3  GLU3        0.0429
     17  CG        38.9630   10.2140   73.1890 C.3     3  GLU3        0.1163
     18  CD        37.7990    9.8360   74.1090 C.2     3  GLU3        0.3649
     19  OE1       36.6480    9.8490   73.6220 O.co2   3  GLU3       -0.2457
     20  OE2       38.0890    9.5480   75.2910 O.co2   3  GLU3       -0.2457
     21  N         39.1300    9.5620   68.7170 N.am    4  VAL4       -0.1963
     22  CA        38.6600    9.5140   67.3250 C.3     4  VAL4        0.1727
     23  C         37.2290    8.9740   67.2830 C.2     4  VAL4        0.2616
     24  O         36.8000    8.2710   68.1960 O.2     4  VAL4       -0.2715
     25  CB        39.5850    8.6300   66.4850 C.3     4  VAL4        0.0290
     26  CG1       40.9780    9.2540   66.3760 C.3     4  VAL4        0.0023
     27  CG2       39.6930    7.2230   67.0740 C.3     4  VAL4        0.0023
     28  N         36.5190    9.3250   66.2140 N.am    5  ASP5       -0.1976
     29  CA        35.1270    8.8860   66.0300 C.3     5  ASP5        0.1648
     30  C         35.0370    7.7210   65.0410 C.2     5  ASP5        0.1871
     31  O         34.0860    7.6590   64.2620 O.2     5  ASP5       -0.2929
     32  CB        34.2640   10.0430   65.5210 C.3     5  ASP5        0.1432
     33  CG        33.8890   11.0100   66.6460 C.2     5  ASP5        0.3671
     34  OD1       33.7670   10.5280   67.7920 O.co2   5  ASP5       -0.2456
     35  OD2       33.6980   12.2040   66.3290 O.co2   5  ASP5       -0.2456
     36  C1        36.1520    6.6750   64.9620 C.3     6  0QE6        0.1607
     37 CL1        36.6120    5.9840   66.5390 Cl      6  0QE6       -0.1052
@<TRIPOS>BOND
     1    31    30    2
     2    36    30    1
     3    36    37    1
     4    30    29    1
     5    32    29    1
     6    32    33    1
     7    29    28    1
     8    28    23   am
     9    35    33   ar
    10    26    25    1
    11    25    27    1
    12    25    22    1
    13    33    34   ar
    14    23    22    1
    15    23    24    2
    16    22    21    1
    17    21    14   am
    18    15    14    2
    19    14    13    1
    20    13    12    1
    21    13    16    1
    22    12     6   am
    23     8     9    1
    24     8     5    1
    25     9    11   ar
    26     9    10   ar
    27    16    17    1
    28     6     5    1
    29     6     7    2
    30     5     4    1
    31    17    18    1
    32    19    18   ar
    33     4     1   am
    34    18    20   ar
    35     2     1    2
    36     1     3    1
