@<TRIPOS>MOLECULE
3pd2_A3S_A_1.pdb
 25 27 0 0 0
SMALL
GASTEIGER

@<TRIPOS>ATOM
      1  O5'        7.7240    8.7410  -15.5640 O.3   500  A3S500     -0.2176
      2  C5'        6.6080    7.9570  -15.9960 C.3   500  A3S500      0.2134
      3  C4'        7.0990    6.7880  -16.8520 C.3   500  A3S500      0.1747
      4  O4'        7.8430    7.2900  -17.9770 O.3   500  A3S500     -0.3143
      5  C1'        9.0900    6.5770  -18.0760 C.3   500  A3S500      0.3177
      6  N9        10.1820    7.5110  -17.7120 N.pl3 500  A3S500     -0.1439
      7  C4        11.4250    7.1940  -17.3550 C.2   500  A3S500      0.3518
      8  N3        12.0500    6.0320  -17.1110 N.2   500  A3S500     -0.0055
      9  C2        13.3250    6.0070  -16.7610 C.3   500  A3S500      0.5254
     10  N1        14.0220    7.1250  -16.6440 N.2   500  A3S500      0.0021
     11  C6        13.4650    8.3230  -16.8750 C.2   500  A3S500      0.4393
     12  N6        14.1860    9.4380  -16.7830 N.pl3 500  A3S500      0.2180
     13  C5        12.1250    8.3860  -17.2390 C.2   500  A3S500      0.2526
     14  N7        11.2880    9.3800  -17.5180 N.2   500  A3S500     -0.2095
     15  C8        10.1050    8.8360  -17.8010 C.3   500  A3S500      0.3377
     16  C2'        8.9600    5.3640  -17.1520 C.3   500  A3S500      0.2466
     17  O2'        8.2510    4.3230  -17.8300 O.3   500  A3S500     -0.2139
     18  C3'        8.0860    5.9460  -16.0450 C.3   500  A3S500      0.1621
     19  N8         7.3600    4.8860  -15.3260 N.am  500  A3S500     -0.2004
     20  N          7.8150    2.1730  -12.9460 N.3   500  A3S500     -0.1202
     21  CA         6.9700    3.1460  -13.6540 C.3   500  A3S500      0.2020
     22  CB         5.9660    3.7650  -12.6790 C.3   500  A3S500      0.2103
     23  OG         5.0980    2.7380  -12.1920 O.3   500  A3S500     -0.2182
     24  C          7.8450    4.2380  -14.2730 C.2   500  A3S500      0.2616
     25  O          9.0580    4.4870  -13.7090 O.2   500  A3S500     -0.2717
@<TRIPOS>BOND
     1     5     4    1
     2     5     6    1
     3     5    16    1
     4     4     3    1
     5    17    16    1
     6    15     6    1
     7    15    14    1
     8     6     7    1
     9    14    13    2
    10     7    13    1
    11     7     8    2
    12    13    11    1
    13    16    18    1
    14     8     9    1
    15    11    12    1
    16    11    10    2
    17     3    18    1
    18     3     2    1
    19     9    10    1
    20    18    19    1
    21     2     1    1
    22    19    24   am
    23    24    25    2
    24    24    21    1
    25    21    20    1
    26    21    22    1
    27    22    23    1
