@<TRIPOS>MOLECULE
3pd3_A3T_A_1.pdb
 26 28 0 0 0
SMALL
GASTEIGER

@<TRIPOS>ATOM
      1  C          7.9710    4.2830  -14.2220 C.2   148  A3T148      0.2615
      2  N          7.9690    2.1420  -13.0520 N.3   148  A3T148     -0.1203
      3  O          9.1750    4.5880  -13.6710 O.2   148  A3T148     -0.2717
      4  N1        14.0130    7.1450  -16.8330 N.2   148  A3T148      0.0021
      5  C2        13.3490    6.0040  -16.8930 C.3   148  A3T148      0.5254
      6  N3        12.0760    5.9550  -17.2430 N.2   148  A3T148     -0.0055
      7  C4        11.4080    7.0770  -17.5480 C.2   148  A3T148      0.3518
      8  C5        12.0710    8.2960  -17.4900 C.2   148  A3T148      0.2526
      9  C6        13.4110    8.3070  -17.1240 C.2   148  A3T148      0.4393
     10  N6        14.0880    9.4520  -17.0860 N.pl3 148  A3T148      0.2180
     11  N7        11.1990    9.2420  -17.8240 N.2   148  A3T148     -0.2095
     12  C8        10.0370    8.6480  -18.0850 C.3   148  A3T148      0.3377
     13  N8         7.4910    4.8310  -15.3360 N.am  148  A3T148     -0.2004
     14  N9        10.1590    7.3320  -17.9270 N.pl3 148  A3T148     -0.1439
     15  CA         7.1040    3.2320  -13.5260 C.3   148  A3T148      0.1993
     16  CB         6.3590    3.8440  -12.3380 C.3   148  A3T148      0.1784
     17  OG         5.3880    2.9000  -11.8760 O.3   148  A3T148     -0.2211
     18  C1'        9.1040    6.3420  -18.2440 C.3   148  A3T148      0.3177
     19  C2'        9.0220    5.1860  -17.2450 C.3   148  A3T148      0.2466
     20  O2'        8.2680    4.1160  -17.8220 O.3   148  A3T148     -0.2139
     21  C3'        8.2120    5.8380  -16.1280 C.3   148  A3T148      0.1621
     22  C4'        7.2070    6.6810  -16.9140 C.3   148  A3T148      0.1747
     23  O4'        7.8270    6.9990  -18.1730 O.3   148  A3T148     -0.3143
     24  C5'        6.8910    7.9530  -16.1240 C.3   148  A3T148      0.2134
     25  O5'        8.1040    8.6350  -15.7950 O.3   148  A3T148     -0.2176
     26  CG2        5.7070    5.1790  -12.7060 C.3   148  A3T148      0.0376
@<TRIPOS>BOND
     1    18    23    1
     2    18    14    1
     3    18    19    1
     4    23    22    1
     5    12    14    1
     6    12    11    1
     7    14     7    1
     8    11     8    2
     9    20    19    1
    10     7     8    1
    11     7     6    2
    12     8     9    1
    13    19    21    1
    14     6     5    1
    15     9    10    1
    16     9     4    2
    17    22    21    1
    18    22    24    1
    19     5     4    1
    20    21    13    1
    21    24    25    1
    22    13     1   am
    23     1     3    2
    24     1    15    1
    25    15     2    1
    26    15    16    1
    27    26    16    1
    28    16    17    1
