@<TRIPOS>MOLECULE
3pd4_A3G_A_1.pdb
 23 25 0 0 0
SMALL
GASTEIGER

@<TRIPOS>ATOM
      1  C         10.2690    2.9110  -13.2890 C.2   500  A3G500      0.2609
      2  N          9.0200    0.7700  -13.0340 N.3   500  A3G500     -0.1210
      3  O         11.5350    3.2640  -12.9790 O.2   500  A3G500     -0.2717
      4  N1        16.3710    5.7050  -16.3700 N.2   500  A3G500      0.0021
      5  C2        15.7270    4.5450  -16.3270 C.3   500  A3G500      0.5254
      6  N3        14.4270    4.4380  -16.6040 N.2   500  A3G500     -0.0055
      7  C4        13.7140    5.5320  -16.9270 C.2   500  A3G500      0.3518
      8  C5        14.3450    6.7620  -16.9960 C.2   500  A3G500      0.2526
      9  C6        15.7090    6.8330  -16.7160 C.2   500  A3G500      0.4393
     10  N6        16.3170    8.0210  -16.7980 N.pl3 500  A3G500      0.2180
     11  N7        13.4470    7.6760  -17.3410 N.2   500  A3G500     -0.2095
     12  C8        12.2930    7.0720  -17.5060 C.3   500  A3G500      0.3377
     13  N8         9.6090    3.3960  -14.3490 N.am  500  A3G500     -0.2005
     14  N9        12.4370    5.7580  -17.2400 N.pl3 500  A3G500     -0.1439
     15  CA         9.6040    1.9180  -12.3400 C.3   500  A3G500      0.1956
     16  C1'       11.3030    4.7540  -17.3560 C.3   500  A3G500      0.3177
     17  C2'       11.1780    3.7030  -16.2720 C.3   500  A3G500      0.2466
     18  O2'       10.4830    2.6080  -16.8570 O.3   500  A3G500     -0.2139
     19  C3'       10.2690    4.3870  -15.2490 C.3   500  A3G500      0.1621
     20  C4'        9.2720    5.1760  -16.1370 C.3   500  A3G500      0.1747
     21  O4'       10.0240    5.5000  -17.3630 O.3   500  A3G500     -0.3143
     22  C5'        8.7410    6.4760  -15.5370 C.3   500  A3G500      0.2134
     23  O5'        9.8240    7.3010  -15.1350 O.3   500  A3G500     -0.2176
@<TRIPOS>BOND
     1    12    11    1
     2    12    14    1
     3    21    16    1
     4    21    20    1
     5    16    14    1
     6    16    17    1
     7    11     8    2
     8    14     7    1
     9     8     7    1
    10     8     9    1
    11     7     6    2
    12    18    17    1
    13    10     9    1
    14     9     4    2
    15     6     5    1
    16     4     5    1
    17    17    19    1
    18    20    22    1
    19    20    19    1
    20    22    23    1
    21    19    13    1
    22    13     1   am
    23     1     3    2
    24     1    15    1
    25     2    15    1
