@<TRIPOS>MOLECULE
3pd5_TSB_A_1.pdb
 30 32 0 0 0
SMALL
GASTEIGER

@<TRIPOS>ATOM
      1  CG2       31.8560    7.4050   -0.3270 C.3   501  TSB501      0.0376
      2  N         29.9450   10.2740   -1.9470 N.3   501  TSB501     -0.1203
      3  CA        30.5100    8.9230   -1.8210 C.3   501  TSB501      0.2010
      4  CB        31.2050    8.7830   -0.4650 C.3   501  TSB501      0.1784
      5  OG1       32.1790    9.8210   -0.3160 O.3   501  TSB501     -0.2211
      6  C         29.3850    7.8910   -1.9200 C.2   501  TSB501      0.2824
      7  O         28.3090    8.1330   -1.3750 O.2   501  TSB501     -0.2700
      8  N8        29.6040    6.7690   -2.6010 N.am  501  TSB501     -0.0576
      9  S1        28.4740    5.6530   -2.2240 S.3   501  TSB501      0.0852
     10  O1S       27.4870    5.9510   -1.1380 O.3   501  TSB501     -0.0508
     11  O2S       29.0000    4.2530   -2.3570 O.3   501  TSB501     -0.0508
     12  O5'       27.6120    5.7130   -3.3660 O.3   501  TSB501     -0.2230
     13  C5'       26.9430    6.9270   -3.7220 C.3   501  TSB501      0.2064
     14  C4'       25.6510    6.6420   -4.4920 C.3   501  TSB501      0.1842
     15  O4'       25.8750    5.9970   -5.7580 O.3   501  TSB501     -0.3135
     16  C3'       24.7330    5.7110   -3.7010 C.3   501  TSB501      0.2185
     17  O3'       23.9330    6.4840   -2.8020 O.3   501  TSB501     -0.2174
     18  C2'       23.8590    5.2080   -4.8470 C.3   501  TSB501      0.2570
     19  O2'       23.0350    6.2710   -5.3330 O.3   501  TSB501     -0.2130
     20  C1'       24.9580    4.8920   -5.8630 C.3   501  TSB501      0.3186
     21  N9        25.6850    3.6620   -5.4740 N.pl3 501  TSB501     -0.1439
     22  C8        27.0010    3.4800   -5.5670 C.3   501  TSB501      0.3377
     23  N7        27.3090    2.2400   -5.1970 N.2   501  TSB501     -0.2095
     24  C5        26.1800    1.6230   -4.8630 C.2   501  TSB501      0.2526
     25  C6        25.8750    0.3440   -4.4140 C.2   501  TSB501      0.4393
     26  N6        26.8330   -0.5660   -4.2610 N.pl3 501  TSB501      0.2180
     27  N1        24.5960    0.0360   -4.1550 N.2   501  TSB501      0.0021
     28  C2        23.6350    0.9280   -4.3250 C.3   501  TSB501      0.5254
     29  N3        23.8880    2.1530   -4.7530 N.2   501  TSB501     -0.0055
     30  C4        25.1440    2.5310   -5.0310 C.2   501  TSB501      0.3518
@<TRIPOS>BOND
     1    20    15    1
     2    20    21    1
     3    20    18    1
     4    15    14    1
     5    22    21    1
     6    22    23    1
     7    21    30    1
     8    19    18    1
     9    23    24    2
    10    30    24    1
    11    30    29    2
    12    24    25    1
    13    18    16    1
    14    29    28    1
    15    14    13    1
    16    14    16    1
    17    25    26    1
    18    25    27    2
    19    28    27    1
    20    13    12    1
    21    16    17    1
    22    12     9    1
    23     8     9    1
    24     8     6   am
    25    11     9    1
    26     9    10    1
    27     2     3    1
    28     6     3    1
    29     6     7    2
    30     3     4    1
    31     4     1    1
    32     4     5    1
