@<TRIPOS>MOLECULE
3pd6_KYN_B_1.pdb
 15 15 0 0 0
SMALL
GASTEIGER

@<TRIPOS>ATOM
      1  C         13.6020   19.6990   45.2510 C.2     1  KYN1        0.3823
      2  N         14.1410   17.3210   45.4630 N.3     1  KYN1       -0.1203
      3  OXT       13.9520   20.3210   46.1890 O.co2   1  KYN1       -0.2440
      4  C1        16.7470   18.6950   45.4520 C.2     1  KYN1        0.1764
      5  N1        18.5180   17.5220   47.4100 N.pl3   1  KYN1       -0.1280
      6  O2        16.6910   19.3670   46.4660 O.2     1  KYN1       -0.2912
      7  CA        14.2860   18.5370   44.6840 C.3     1  KYN1        0.2020
      8  CB        15.7390   18.9310   44.4050 C.3     1  KYN1        0.0997
      9  CG        18.6380   17.1730   46.1180 C.ar    1  KYN1        0.0918
     10  CZ        18.9940   16.4130   43.4870 C.ar    1  KYN1        0.0002
     11  CD1       19.6180   16.2780   45.7380 C.ar    1  KYN1        0.0181
     12  CD2       17.8290   17.6960   45.1610 C.ar    1  KYN1        0.0515
     13  CE1       19.8110   15.8880   44.4340 C.ar    1  KYN1        0.0014
     14  CE2       18.0170   17.2990   43.8550 C.ar    1  KYN1        0.0042
     15  O         12.3990   19.7070   45.2760 O.co2   1  KYN1       -0.2440
@<TRIPOS>BOND
     1    10    14   ar
     2    10    13   ar
     3    14    12   ar
     4     8     7    1
     5     8     4    1
     6    13    11   ar
     7     7     1    1
     8     7     2    1
     9    12     4    1
    10    12     9   ar
    11     1    15   ar
    12     1     3   ar
    13     4     6    2
    14    11     9   ar
    15     9     5    1
