@<TRIPOS>MOLECULE
3pd6_PMP_A_1.pdb
 16 16 0 0 0
SMALL
GASTEIGER

@<TRIPOS>ATOM
      1  N1        15.4090   17.7050   37.3450 N.ar    1  PMP1       -0.2452
      2  C2        14.2070   17.8410   38.0040 C.ar    1  PMP1        0.0978
      3  C2A       12.9970   18.3860   37.2720 C.3     1  PMP1        0.0555
      4  C3        14.1350   17.3770   39.3150 C.ar    1  PMP1        0.2063
      5  O3        12.9650   17.3500   40.0150 O.3     1  PMP1       -0.2856
      6  C4        15.2510   16.9000   39.9440 C.ar    1  PMP1        0.0369
      7  C4A       15.0080   16.4910   41.3830 C.3     1  PMP1        0.1386
      8  N4A       15.6380   17.5260   42.1520 N.3     1  PMP1       -0.1261
      9  C5        16.4810   16.8050   39.2810 C.ar    1  PMP1        0.0275
     10  C6        16.5410   17.2120   37.9760 C.ar    1  PMP1        0.0965
     11  C5A       17.7820   16.3300   39.9030 C.3     1  PMP1        0.1816
     12  O4P       17.8030   15.0040   40.3920 O.3     1  PMP1       -0.2653
     13  P         19.1940   14.3160   40.8520 P.3     1  PMP1        0.5329
     14  O1P       19.0300   13.8690   42.2740 O.3     1  PMP1       -0.1145
     15  O2P       19.3010   13.0720   39.9990 O.2     1  PMP1       -0.2224
     16  O3P       20.4680   15.1000   40.7060 O.3     1  PMP1       -0.1145
@<TRIPOS>BOND
     1     3     2    1
     2     1    10   ar
     3     1     2   ar
     4    10     9   ar
     5     2     4   ar
     6     9    11    1
     7     9     6   ar
     8     4     6   ar
     9     4     5    1
    10    11    12    1
    11     6     7    1
    12    15    13    2
    13    12    13    1
    14    16    13    1
    15    13    14    1
    16     7     8    1
