@<TRIPOS>MOLECULE
3pd8_HA7_A_1.pdb
 13 14 0 0 0
SMALL
GASTEIGER

@<TRIPOS>ATOM
      1  C1        45.0650   27.2480   40.7940 C.1   261  HA7261      0.1880
      2  N1        45.0290   28.4860   41.2780 N.2   261  HA7261     -0.0007
      3  O1        45.8960   28.5100   42.4220 O.2   261  HA7261     -0.3462
      4  C2        45.9020   26.4610   41.5590 C.2   261  HA7261      0.0999
      5  N2        47.8050   25.2590   43.2220 N.3   261  HA7261     -0.2011
      6  O2        45.8670   27.4050   45.2540 O.co2 261  HA7261     -0.2436
      7  C3        46.2170   24.9930   41.3660 C.3   261  HA7261      0.0601
      8  O3        47.4810   26.0150   45.8960 O.co2 261  HA7261     -0.2436
      9  C4        46.6830   24.4470   42.7190 C.3   261  HA7261      0.0953
     10  O4        44.4490   26.8460   39.8120 O.2   261  HA7261     -0.2193
     11  C5        47.4060   26.6370   43.5940 C.3   261  HA7261      0.2362
     12  C6        46.4150   27.2500   42.5780 C.2   261  HA7261      0.1874
     13  C7        46.8580   26.6780   45.0370 C.2   261  HA7261      0.3877
@<TRIPOS>BOND
     1    10     1    2
     2     1     2    2
     3     1     4    1
     4     2     3    1
     5     7     4    1
     6     7     9    1
     7     4    12    2
     8     3    12    1
     9    12    11    1
    10     9     5    1
    11     5    11    1
    12    11    13    1
    13    13     6   ar
    14    13     8   ar
