@<TRIPOS>MOLECULE
3pd9_HA5_A_1.pdb
 13 14 0 0 0
SMALL
GASTEIGER

@<TRIPOS>ATOM
      1  N1        57.2580   27.2210   47.1710 N.2   260  HA5260     -0.0007
      2  O2        58.4660   27.7040   46.4810 O.2   260  HA5260     -0.3467
      3  C3        58.3340   27.3610   45.1770 C.2   260  HA5260      0.1781
      4  C4        59.3880   27.6900   44.1780 C.3   260  HA5260      0.1566
      5  N5        59.2440   26.6440   43.1010 N.3   260  HA5260     -0.1997
      6  C6        57.8430   26.7450   42.5430 C.3   260  HA5260      0.1813
      7  C7        57.8150   26.1130   41.1300 C.2   260  HA5260      0.3806
      8  O8        56.6760   25.7920   40.7560 O.co2 260  HA5260     -0.2441
      9  O9        58.9150   25.9990   40.5230 O.co2 260  HA5260     -0.2441
     10  C10       56.8270   26.1740   43.5650 C.3   260  HA5260      0.0702
     11  C11       57.1940   26.6850   44.9240 C.2   260  HA5260      0.0999
     12  C12       56.5080   26.6020   46.2160 C.1   260  HA5260      0.1880
     13  O13       55.4020   26.0390   46.4390 O.2   260  HA5260     -0.2193
@<TRIPOS>BOND
     1     9     7   ar
     2     8     7   ar
     3     7     6    1
     4     6     5    1
     5     6    10    1
     6     5     4    1
     7    10    11    1
     8     4     3    1
     9    11     3    2
    10    11    12    1
    11     3     2    1
    12    12    13    2
    13    12     1    2
    14     2     1    1
