@<TRIPOS>MOLECULE
3pdb_PMP_B_1.pdb
 16 16 0 0 0
SMALL
GASTEIGER

@<TRIPOS>ATOM
      1  N1       -45.9700  -23.7760  -40.2390 N.ar  432  PMP432     -0.2452
      2  C2       -47.0720  -24.5690  -39.9940 C.ar  432  PMP432      0.0978
      3  C2A      -48.4520  -24.0240  -40.2130 C.3   432  PMP432      0.0555
      4  C3       -46.9000  -25.8980  -39.6240 C.ar  432  PMP432      0.2063
      5  O3       -47.9890  -26.7120  -39.4570 O.3   432  PMP432     -0.2856
      6  C4       -45.6190  -26.3950  -39.4230 C.ar  432  PMP432      0.0369
      7  C4A      -45.4140  -27.8530  -39.0820 C.3   432  PMP432      0.1386
      8  N4A      -45.3700  -28.0120  -37.6420 N.3   432  PMP432     -0.1261
      9  C5       -44.5270  -25.5440  -39.5380 C.ar  432  PMP432      0.0275
     10  C6       -44.7170  -24.2240  -39.9280 C.ar  432  PMP432      0.0965
     11  C5A      -43.1350  -26.0530  -39.2380 C.3   432  PMP432      0.1816
     12  O4P      -42.7480  -26.9760  -40.2310 O.3   432  PMP432     -0.2653
     13  P        -41.2360  -27.5250  -40.2900 P.3   432  PMP432      0.5329
     14  O1P      -41.1540  -28.7840  -39.4590 O.3   432  PMP432     -0.1145
     15  O2P      -40.2950  -26.4850  -39.7320 O.3   432  PMP432     -0.1145
     16  O3P      -40.8620  -27.8350  -41.7200 O.2   432  PMP432     -0.2224
@<TRIPOS>BOND
     1    16    13    2
     2    13    12    1
     3    13    15    1
     4    13    14    1
     5     1     2   ar
     6     1    10   ar
     7    12    11    1
     8     3     2    1
     9     2     4   ar
    10    10     9   ar
    11     4     5    1
    12     4     6   ar
    13     9     6   ar
    14     9    11    1
    15     6     7    1
    16     7     8    1
