@<TRIPOS>MOLECULE
3pdc_ZYI_A_1.pdb
 19 21 0 0 0
SMALL
GASTEIGER

@<TRIPOS>ATOM
      1  N1        12.1640    5.0620   -1.9050 N.2     1  ZYI1       -0.3541
      2  C2        11.0470    4.7220   -1.2900 C.2     1  ZYI1        0.3711
      3  O3        10.9360    5.2690   -0.0340 O.2     1  ZYI1       -0.4128
      4  C4        12.0590    6.0030    0.1260 C.2     1  ZYI1        0.1752
      5  C5        12.4330    6.7600    1.2310 C.2     1  ZYI1        0.0405
      6  C6        13.6690    7.4360    1.1300 C.2     1  ZYI1        0.0107
      7  C7        14.4520    7.3280   -0.0080 C.2     1  ZYI1        0.0427
      8 CL8        15.9870    8.1600   -0.1020 Cl      1  ZYI1       -0.0865
      9  C9        14.0230    6.5460   -1.0930 C.3     1  ZYI1        0.1002
     10  C10       12.8070    5.8720   -1.0060 C.2     1  ZYI1        0.1535
     11  N11       10.0290    3.9040   -1.8050 N.am    1  ZYI1       -0.1152
     12  C12       10.2710    2.6660   -2.4050 C.2     1  ZYI1        0.2501
     13  C13        9.1590    1.6780   -2.0570 C.3     1  ZYI1        0.0873
     14  C14        8.7960    0.7110   -3.1740 C.3     1  ZYI1        0.0092
     15  C15        8.2630    1.3940   -4.4350 C.3     1  ZYI1        0.0005
     16  C16        7.4320    0.3280   -5.1530 C.3     1  ZYI1        0.0000
     17  C17        7.0620   -0.7120   -4.1060 C.3     1  ZYI1        0.0000
     18  C18        7.6750   -0.2470   -2.7860 C.3     1  ZYI1        0.0005
     19  O19       11.2260    2.3720   -3.1240 O.2     1  ZYI1       -0.2728
@<TRIPOS>BOND
     1    16    15    1
     2    16    17    1
     3    15    14    1
     4    17    18    1
     5    14    18    1
     6    14    13    1
     7    19    12    2
     8    12    13    1
     9    12    11   am
    10     1     2    2
    11     1    10    2
    12    11     2    1
    13     2     3    1
    14     9    10    1
    15     9     7    1
    16    10     4    1
    17     8     7    1
    18     3     4    1
    19     7     6    2
    20     4     5    2
    21     6     5    1
