@<TRIPOS>MOLECULE
3pde_IPE_A_1.pdb
 14 13 0 0 0
SMALL
GASTEIGER

@<TRIPOS>ATOM
      1  C1        18.3470   27.4290   50.3160 C.3   309  IPE309      0.1747
      2  O1        17.5190   27.9520   49.2820 O.3   309  IPE309     -0.3089
      3  C2        18.1490   25.9410   50.3840 C.2   309  IPE309     -0.0024
      4  C3        17.0230   25.3680   50.8370 C.2   309  IPE309     -0.0454
      5  C4        15.8450   26.1700   51.3360 C.3   309  IPE309      0.0261
      6  C5        16.9840   23.8590   50.8320 C.3   309  IPE309      0.0261
      7  PA        18.1390   28.5100   47.9050 P.3   309  IPE309      0.2233
      8  O1A       17.0500   29.2790   47.2330 O.3   309  IPE309     -0.4370
      9  O2A       18.8070   27.3540   47.2000 O.2   309  IPE309     -0.5169
     10  O3A       19.3350   29.4810   48.4360 O.3   309  IPE309     -0.2261
     11  PB        19.7410   30.9870   47.9990 P.3   309  IPE309      0.5373
     12  O1B       19.7810   31.1310   46.5020 O.2   309  IPE309     -0.2221
     13  O2B       21.1080   31.0900   48.6210 O.3   309  IPE309     -0.1143
     14  O3B       18.7140   31.8590   48.6860 O.3   309  IPE309     -0.1143
@<TRIPOS>BOND
     1    12    11    2
     2     9     7    2
     3     8     7    1
     4     7    10    1
     5     7     2    1
     6    11    10    1
     7    11    13    1
     8    11    14    1
     9     2     1    1
    10     1     3    1
    11     3     4    2
    12     6     4    1
    13     4     5    1
