@<TRIPOS>MOLECULE
3pdi_CZL_A_1.pdb
 17 34 0 0 0
SMALL
GASTEIGER

@<TRIPOS>ATOM
      1 FE1         9.3110   41.5240    5.6420 Fe    502  CZL502      0.0000
      2 FE2         9.2680   40.9040    3.0510 Fe    502  CZL502      0.0000
      3 FE3        10.7880   39.5200    4.7120 Fe    502  CZL502      0.0000
      4 FE4        11.4060   42.0370    4.1190 Fe    502  CZL502      0.0000
      5 FE5        12.6350   40.7950    2.1240 Fe    502  CZL502      0.0000
      6 FE6        10.4750   39.7900    0.9590 Fe    502  CZL502      0.0000
      7 FE7        11.8980   38.3230    2.6310 Fe    502  CZL502      0.0000
      8 FE8        12.8610   38.9210    0.2190 Fe    502  CZL502      0.0000
      9  S1A        9.3790   43.0290    3.8930 S.3   502  CZL502      0.0000
     10  S1B       12.0410   41.0660   -0.0620 S.3   502  CZL502      0.0000
     11  S2A        8.5090   39.5840    4.7370 S.3   502  CZL502      0.0000
     12  S2B        8.3190   40.4900    1.0180 S.3   502  CZL502      0.0000
     13  S3A       13.3720   42.6630    3.1990 S.3   502  CZL502      0.0000
     14  S3B       11.0430   37.6050    0.6580 S.3   502  CZL502      0.0000
     15  S4A       11.5060   41.1000    6.1940 S.3   502  CZL502      0.0000
     16  S4B       14.0260   38.9960    2.1900 S.3   502  CZL502      0.0000
     17  S5A       11.4780   37.3770    4.7300 S.3   502  CZL502      0.0000
@<TRIPOS>BOND
     1    10     8    1
     2    10     6    1
     3    10     5    1
     4     8    14    1
     5     8     6    1
     6     8    16    1
     7    14     6    1
     8    14     7    1
     9     6    12    1
    10     6     5    1
    11     6     7    1
    12    12     2    1
    13     5    16    1
    14     5     7    1
    15     5    13    1
    16     5     4    1
    17    16     7    1
    18     7     3    1
    19     7    17    1
    20     2     9    1
    21     2     4    1
    22     2     3    1
    23     2    11    1
    24    13     4    1
    25     9     4    1
    26     9     1    1
    27     4     1    1
    28     4    15    1
    29     3    17    1
    30     3    11    1
    31     3     1    1
    32     3    15    1
    33    11     1    1
    34     1    15    1
