@<TRIPOS>MOLECULE
3pdj_NAP_A_1.pdb
 48 52 0 0 0
SMALL
GASTEIGER

@<TRIPOS>ATOM
      1  PA       -38.5510   14.7680    5.4430 P.3   293  NAP293      0.2189
      2  O1A      -37.6560   13.7660    6.0360 O.2   293  NAP293     -0.5170
      3  O2A      -39.8180   14.9590    6.1770 O.3   293  NAP293     -0.4371
      4  O5B      -37.7800   16.1190    5.2100 O.3   293  NAP293     -0.3112
      5  C5B      -38.2240   17.0500    4.2640 C.3   293  NAP293      0.1813
      6  C4B      -37.0850   18.0220    4.0760 C.3   293  NAP293      0.1820
      7  O4B      -37.6270   19.2360    3.6150 O.3   293  NAP293     -0.3136
      8  C3B      -36.3830   18.3190    5.4150 C.3   293  NAP293      0.2157
      9  O3B      -34.9820   18.3410    5.2500 O.3   293  NAP293     -0.2175
     10  C2B      -36.8490   19.7110    5.7890 C.3   293  NAP293      0.2314
     11  O2B      -35.8330   20.3620    6.5200 O.3   293  NAP293     -0.2630
     12  C1B      -37.1460   20.3200    4.4040 C.3   293  NAP293      0.3158
     13  N9A      -38.0960   21.4280    4.5220 N.pl3 293  NAP293     -0.1439
     14  C8A      -39.3040   21.4340    5.1800 C.3   293  NAP293      0.3377
     15  N7A      -39.8590   22.6740    5.0560 N.2   293  NAP293     -0.2095
     16  C5A      -39.0230   23.4630    4.3320 C.2   293  NAP293      0.2526
     17  C6A      -39.0830   24.7980    3.9120 C.2   293  NAP293      0.4393
     18  N6A      -40.1250   25.5950    4.2230 N.pl3 293  NAP293      0.2180
     19  N1A      -38.0540   25.3350    3.1490 N.2   293  NAP293      0.0021
     20  C2A      -36.9770   24.5340    2.8460 C.3   293  NAP293      0.5254
     21  N3A      -36.9320   23.2150    3.2670 N.2   293  NAP293     -0.0055
     22  C4A      -37.9280   22.6810    3.9900 C.2   293  NAP293      0.3518
     23  O3       -39.0340   14.2930    3.9770 O.3   293  NAP293     -0.2703
     24  PN       -38.7790   12.9140    3.2350 P.3   293  NAP293      0.2189
     25  O1N      -37.3190   12.7470    3.2260 O.2   293  NAP293     -0.5170
     26  O2N      -39.6500   11.8270    3.7370 O.3   293  NAP293     -0.4371
     27  O5D      -39.2810   13.4080    1.7780 O.3   293  NAP293     -0.3112
     28  C5D      -38.3820   14.0140    0.8490 C.3   293  NAP293      0.1813
     29  C4D      -38.9750   13.9470   -0.5660 C.3   293  NAP293      0.1799
     30  O4D      -39.3840   12.6180   -0.8940 O.3   293  NAP293     -0.3327
     31  C3D      -40.2200   14.8130   -0.6710 C.3   293  NAP293      0.2158
     32  O3D      -40.2420   15.5050   -1.8940 O.3   293  NAP293     -0.2175
     33  C2D      -41.3500   13.8210   -0.5990 C.3   293  NAP293      0.2309
     34  O2D      -42.5030   14.3020   -1.2110 O.3   293  NAP293     -0.2158
     35  C1D      -40.7470   12.6200   -1.2830 C.3   293  NAP293      0.2263
     36  N1N      -41.4250   11.3780   -0.9070 N.pl3 293  NAP293     -0.2787
     37  C2N      -41.3170   10.8480    0.3570 C.3   293  NAP293      0.1244
     38  C3N      -41.9940    9.6840    0.6860 C.2   293  NAP293      0.0544
     39  C7N      -41.8690    9.0820    2.0610 C.2   293  NAP293      0.2818
     40  O7N      -42.5880    7.9500    2.4410 O.2   293  NAP293     -0.2670
     41  N7N      -41.0240    9.5870    2.9390 N.am  293  NAP293     -0.0839
     42  C4N      -42.7650    9.0580   -0.2820 C.2   293  NAP293      0.0033
     43  C5N      -42.8770    9.5910   -1.5640 C.2   293  NAP293      0.0157
     44  C6N      -42.2040   10.7680   -1.8630 C.2   293  NAP293      0.0633
     45  P2B      -36.1250   21.5680    7.5800 P.3   293  NAP293      0.5328
     46  O1X      -34.8060   21.7190    8.2830 O.3   293  NAP293     -0.1145
     47  O2X      -36.4220   22.8710    6.8550 O.2   293  NAP293     -0.2224
     48  O3X      -37.1820   21.1560    8.5810 O.3   293  NAP293     -0.1145
@<TRIPOS>BOND
     1    32    31    1
     2    44    43    2
     3    44    36    1
     4    43    42    1
     5    35    36    1
     6    35    30    1
     7    35    33    1
     8    34    33    1
     9    36    37    1
    10    30    29    1
    11    31    33    1
    12    31    29    1
    13    29    28    1
    14    42    38    2
    15    37    38    1
    16    38    39    1
    17    28    27    1
    18    27    24    1
    19    39    40    2
    20    39    41   am
    21    20    19    1
    22    20    21    1
    23    19    17    2
    24    25    24    2
    25    24    26    1
    26    24    23    1
    27    21    22    2
    28     7     6    1
    29     7    12    1
    30    17    18    1
    31    17    16    1
    32    23     1    1
    33    22    16    1
    34    22    13    1
    35     6     5    1
    36     6     8    1
    37     5     4    1
    38    16    15    2
    39    12    13    1
    40    12    10    1
    41    13    14    1
    42    15    14    1
    43     4     1    1
    44     9     8    1
    45     8    10    1
    46     1     2    2
    47     1     3    1
    48    10    11    1
    49    11    45    1
    50    47    45    2
    51    45    46    1
    52    45    48    1
