@<TRIPOS>MOLECULE
3pdj_3PJ_A_1.pdb
 36 39 0 0 0
SMALL
GASTEIGER

@<TRIPOS>ATOM
      1  N1       -52.7830    2.9090    1.1850 N.am    1  3PJ1       -0.0878
      2  C2       -46.6230   12.4670    2.9250 C.ar    1  3PJ1       -0.0015
      3  C4       -46.3070   10.5610    1.4660 C.ar    1  3PJ1        0.0536
      4  C5       -45.4090   10.0000    2.3690 C.ar    1  3PJ1        0.0043
      5  C6       -45.1340   10.6640    3.5540 C.ar    1  3PJ1       -0.0015
      6  C8       -46.5060   12.3940    6.1670 C.3     1  3PJ1        0.4263
      7  C10      -51.7260    4.9750    1.7860 C.3     1  3PJ1        0.0889
      8  O10      -44.2160   11.9620    5.6660 O.3     1  3PJ1       -0.2124
      9  C12      -51.6160    3.5070    1.4800 C.2     1  3PJ1        0.2607
     10  N12      -47.2440    8.5950    0.1820 N.am    1  3PJ1       -0.2793
     11  O13      -46.0800   10.3360   -0.8330 O.2     1  3PJ1       -0.2699
     12  C14      -48.3350    8.5100    1.2050 C.3     1  3PJ1        0.0756
     13  C15      -47.4830    8.0260   -1.1650 C.3     1  3PJ1        0.0757
     14  C16      -49.7520    8.2800    0.6780 C.3     1  3PJ1        0.0201
     15  C17      -50.7790    8.0080    1.7890 C.3     1  3PJ1        0.0058
     16  C18      -50.3610    6.8850    2.7650 C.3     1  3PJ1        0.0195
     17  C19      -48.9550    7.1880    3.2780 C.3     1  3PJ1        0.0058
     18  C20      -47.9490    7.3440    2.1310 C.3     1  3PJ1        0.0201
     19  F21      -46.6780   11.1060    6.3130 F       1  3PJ1       -0.1671
     20  F22      -47.6660   12.9540    5.7910 F       1  3PJ1       -0.1671
     21  F23      -46.0800   12.9230    7.3110 F       1  3PJ1       -0.1671
     22  C24      -46.1550    7.4500   -1.6620 C.3     1  3PJ1        0.0215
     23  C25      -47.2390    6.5120   -1.1660 C.3     1  3PJ1        0.0215
     24  C26      -51.2850    6.8390    3.9730 C.ar    1  3PJ1       -0.0228
     25  C27      -50.9420    6.0900    5.1130 C.ar    1  3PJ1       -0.0043
     26  C28      -51.7770    6.0400    6.2310 C.ar    1  3PJ1       -0.0003
     27  C29      -52.9750    6.7450    6.2430 C.ar    1  3PJ1       -0.0000
     28  C30      -53.3220    7.4870    5.1260 C.ar    1  3PJ1       -0.0003
     29  C32      -50.3340    5.5150    2.0920 C.3     1  3PJ1        0.0137
     30  OAI      -50.5180    2.9380    1.4940 O.2     1  3PJ1       -0.2717
     31  CAV      -46.9090   11.7980    1.7240 C.ar    1  3PJ1        0.0043
     32  CAW      -52.4840    7.5380    4.0020 C.ar    1  3PJ1       -0.0043
     33  CBU      -45.1040   14.0820    4.9560 C.3     1  3PJ1        0.0465
     34  CBV      -45.7300   11.9000    3.8470 C.ar    1  3PJ1        0.0132
     35  CBW      -46.5640    9.8390    0.1780 C.2     1  3PJ1        0.2489
     36  CBZ      -45.3920   12.5870    5.1470 C.3     1  3PJ1        0.2317
@<TRIPOS>BOND
     1    22    23    1
     2    22    13    1
     3    23    13    1
     4    13    10    1
     5    11    35    2
     6    35    10   am
     7    35     3    1
     8    10    12    1
     9    14    12    1
    10    14    15    1
    11     1     9   am
    12    12    18    1
    13     3    31   ar
    14     3     4   ar
    15     9    30    2
    16     9     7    1
    17    31     2   ar
    18     7    29    1
    19    15    16    1
    20    29    16    1
    21    18    17    1
    22     4     5   ar
    23    16    17    1
    24    16    24    1
    25     2    34   ar
    26     5    34   ar
    27    34    36    1
    28    24    32   ar
    29    24    25   ar
    30    32    28   ar
    31    33    36    1
    32    25    26   ar
    33    28    27   ar
    34    36     8    1
    35    36     6    1
    36    20     6    1
    37     6    19    1
    38     6    21    1
    39    26    27   ar
