@<TRIPOS>MOLECULE
3pdn_SFG_A_1.pdb
 27 29 0 0 0
SMALL
GASTEIGER

@<TRIPOS>ATOM
      1  N         19.5010   18.3370   23.0480 N.3   429  SFG429     -0.1208
      2  CA        19.6100   18.4260   21.5710 C.3   429  SFG429      0.1944
      3  C         20.6150   17.3530   21.1070 C.2   429  SFG429      0.3819
      4  O         21.0390   16.4430   21.8690 O.co2 429  SFG429     -0.2441
      5  OXT       20.9740   17.3850   19.8920 O.co2 429  SFG429     -0.2441
      6  CB        20.0350   19.8610   21.1750 C.3   429  SFG429      0.0321
      7  CG        18.7320   20.7220   20.9780 C.3   429  SFG429      0.0212
      8  CD        17.8400   20.2390   19.6670 C.3   429  SFG429      0.0944
      9  NE        17.8180   21.4240   18.7900 N.3   429  SFG429     -0.1328
     10  C5'       16.3180   20.1330   20.1980 C.3   429  SFG429      0.0514
     11  C4'       15.9410   18.8700   21.0600 C.3   429  SFG429      0.1537
     12  O4'       16.5860   19.0210   22.3260 O.3   429  SFG429     -0.3161
     13  C3'       14.4610   18.7840   21.4910 C.3   429  SFG429      0.2159
     14  O3'       13.6910   18.1830   20.4570 O.3   429  SFG429     -0.2175
     15  C2'       14.4750   17.8990   22.7820 C.3   429  SFG429      0.2569
     16  O2'       14.8980   16.5570   22.4710 O.3   429  SFG429     -0.2130
     17  C1'       15.7680   18.5620   23.4120 C.3   429  SFG429      0.3185
     18  N9        15.5070   19.7210   24.2570 N.pl3 429  SFG429     -0.1439
     19  C8        15.7470   21.0370   23.9150 C.3   429  SFG429      0.3377
     20  N7        15.4700   21.8080   24.9630 N.2   429  SFG429     -0.2095
     21  C5        15.0380   20.9900   26.0120 C.2   429  SFG429      0.2526
     22  C6        14.5980   21.2050   27.3570 C.2   429  SFG429      0.4393
     23  N6        14.4870   22.4990   27.9310 N.pl3 429  SFG429      0.2180
     24  N1        14.2470   20.1110   28.0850 N.2   429  SFG429      0.0021
     25  C2        14.3220   18.8520   27.5980 C.3   429  SFG429      0.5254
     26  N3        14.7260   18.5940   26.3240 N.2   429  SFG429     -0.0055
     27  C4        15.0830   19.6470   25.5370 C.2   429  SFG429      0.3518
@<TRIPOS>BOND
     1     9     8    1
     2     8    10    1
     3     8     7    1
     4     5     3   ar
     5    10    11    1
     6    14    13    1
     7     7     6    1
     8    11    13    1
     9    11    12    1
    10     3     2    1
    11     3     4   ar
    12     6     2    1
    13    13    15    1
    14     2     1    1
    15    12    17    1
    16    16    15    1
    17    15    17    1
    18    17    18    1
    19    19    18    1
    20    19    20    1
    21    18    27    1
    22    20    21    2
    23    27    21    1
    24    27    26    2
    25    21    22    1
    26    26    25    1
    27    22    23    1
    28    22    24    2
    29    25    24    1
