@<TRIPOS>MOLECULE
3pdq_KC6_A_1.pdb
 21 22 0 0 0
SMALL
GASTEIGER

@<TRIPOS>ATOM
      1  O01      -24.6260  -22.4220  -25.7740 O.co2 503  KC6503     -0.2406
      2  C02      -24.4650  -21.9260  -24.6570 C.2   503  KC6503      0.3879
      3  C03      -25.7250  -21.8030  -23.7840 C.ar  503  KC6503      0.0829
      4  C04      -26.7090  -22.7490  -24.0090 C.ar  503  KC6503      0.0273
      5  C05      -27.8650  -22.6870  -23.2270 C.ar  503  KC6503      0.0991
      6  N06      -28.0640  -21.7880  -22.2550 N.ar  503  KC6503     -0.2423
      7  C07      -27.0930  -20.8510  -22.0180 C.ar  503  KC6503      0.0991
      8  C08      -27.3790  -19.7870  -20.9640 C.ar  503  KC6503      0.0990
      9  C09      -26.3720  -18.8780  -20.5220 C.ar  503  KC6503      0.0252
     10  C10      -26.6450  -17.8550  -19.6080 C.ar  503  KC6503      0.0581
     11  C11      -25.5860  -16.8910  -19.1330 C.2   503  KC6503      0.2649
     12  N12      -25.8430  -15.5150  -18.9860 N.am  503  KC6503     -0.2001
     13  C13      -24.8000  -14.4740  -18.9910 C.3   503  KC6503      0.1359
     14  C14      -23.6690  -14.6320  -17.9320 C.3   503  KC6503      0.1327
     15  N15      -22.5610  -15.5000  -18.3580 N.3   503  KC6503     -0.1294
     16  O16      -24.4410  -17.3340  -18.9550 O.2   503  KC6503     -0.2684
     17  C17      -27.9670  -17.6800  -19.1920 C.ar  503  KC6503      0.0252
     18  C18      -28.9290  -18.5670  -19.7100 C.ar  503  KC6503      0.0990
     19  N19      -28.6790  -19.5650  -20.6050 N.ar  503  KC6503     -0.2423
     20  C20      -25.9010  -20.8490  -22.7800 C.ar  503  KC6503      0.0273
     21  O21      -23.4070  -21.5240  -24.1130 O.co2 503  KC6503     -0.2406
@<TRIPOS>BOND
     1     1     2   ar
     2     2    21   ar
     3     2     3    1
     4     4     3   ar
     5     4     5   ar
     6     3    20   ar
     7     5     6   ar
     8    20     7   ar
     9     6     7   ar
    10     7     8    1
    11     8    19   ar
    12     8     9   ar
    13    19    18   ar
    14     9    10   ar
    15    18    17   ar
    16    10    17   ar
    17    10    11    1
    18    11    12   am
    19    11    16    2
    20    13    12    1
    21    13    14    1
    22    15    14    1
