@<TRIPOS>MOLECULE
3pds_ERC_A_1.pdb
 31 33 0 0 0
SMALL
GASTEIGER

@<TRIPOS>ATOM
      1  C1        16.7440    6.6270   14.8390 C.1   1201  ERC1201     0.2055
      2  N1        17.9200    6.0040   14.6270 N.2   1201  ERC1201    -0.3296
      3  O1        16.1230    6.4180   15.9040 O.2   1201  ERC1201    -0.2093
      4  S1        10.5490   10.0240    2.0570 S.3   1201  ERC1201    -0.0820
      5  C2        16.2020    7.5060   13.8930 C.2   1201  ERC1201     0.1067
      6  N2        16.5950    8.3510    8.4860 N.3   1201  ERC1201    -0.2147
      7  O2        20.4490    4.6750   14.1480 O.2   1201  ERC1201    -0.2841
      8  C3        16.8700    7.7690   12.6950 C.2   1201  ERC1201     0.0156
      9  O3        19.4330    8.7180    9.3130 O.3   1201  ERC1201    -0.2171
     10  C4        18.0830    7.1280   12.4570 C.2   1201  ERC1201     0.0293
     11  O4        14.7510   12.3450    4.2480 O.3   1201  ERC1201    -0.4684
     12  C5        18.6150    6.2040   13.4950 C.2   1201  ERC1201     0.1821
     13  O5        12.0680   12.4660    4.9820 O.3   1201  ERC1201    -0.4724
     14  C6        19.9180    5.5290   13.2300 C.2   1201  ERC1201     0.2220
     15  C7        20.5940    5.7810   12.0340 C.2   1201  ERC1201     0.0230
     16  C8        20.0890    6.6450   11.0550 C.3   1201  ERC1201     0.0540
     17  C9        18.8860    7.3430   11.2170 C.2   1201  ERC1201    -0.0059
     18  C10       18.3740    8.2330   10.1480 C.3   1201  ERC1201     0.1880
     19  C11       17.3770    7.4490    9.3060 C.3   1201  ERC1201     0.1257
     20  C12       15.3120    7.9120    7.9790 C.3   1201  ERC1201     0.0935
     21  C13       15.2340    7.9980    6.4610 C.3   1201  ERC1201     0.0452
     22  C14       14.3900    9.1880    6.0710 C.ar  1201  ERC1201    -0.0175
     23  C15       13.0430    9.2430    6.4340 C.ar  1201  ERC1201    -0.0009
     24  C16       12.2680   10.3450    6.0670 C.ar  1201  ERC1201     0.0397
     25  C17       12.8380   11.3870    5.3320 C.ar  1201  ERC1201     0.1722
     26  C18       14.1820   11.3310    4.9720 C.ar  1201  ERC1201     0.1721
     27  C19       14.9590   10.2320    5.3410 C.ar  1201  ERC1201     0.0358
     28  C20       14.9820   12.1660    2.8520 C.3   1201  ERC1201     0.2526
     29  C21       11.6260   12.6270    3.6360 C.3   1201  ERC1201     0.2065
     30  C22       10.1530   12.2480    3.5340 C.3   1201  ERC1201     0.0598
     31  C23        9.9650   10.7350    3.5610 C.3   1201  ERC1201     0.0725
@<TRIPOS>BOND
     1     4    31    1
     2    28    11    1
     3    30    31    1
     4    30    29    1
     5    29    13    1
     6    11    26    1
     7    26    25   ar
     8    26    27   ar
     9    13    25    1
    10    25    24   ar
    11    27    22   ar
    12    24    23   ar
    13    22    23   ar
    14    22    21    1
    15    21    20    1
    16    20     6    1
    17     6    19    1
    18    19    18    1
    19     9    18    1
    20    18    17    1
    21    16    17    1
    22    16    15    1
    23    17    10    2
    24    15    14    2
    25    10     8    1
    26    10    12    1
    27     8     5    2
    28    14    12    1
    29    14     7    1
    30    12     2    2
    31     5     1    1
    32     2     1    2
    33     1     3    2
