@<TRIPOS>MOLECULE
3pds_CLR_A_1.pdb
 28 31 0 0 0
SMALL
GASTEIGER

@<TRIPOS>ATOM
      1  C1        39.6580   -2.7010   -0.5570 C.3   1202  CLR1202     0.0063
      2  C2        40.9090   -2.8760   -1.4410 C.3   1202  CLR1202     0.0335
      3  C3        41.6330   -4.1850   -1.0940 C.3   1202  CLR1202     0.1560
      4  C4        40.7040   -5.3850   -1.3230 C.3   1202  CLR1202     0.0545
      5  C5        39.4620   -5.1650   -0.4800 C.2   1202  CLR1202    -0.0466
      6  C6        39.1180   -6.0710    0.3900 C.2   1202  CLR1202    -0.0345
      7  C7        37.9090   -5.9140    1.2670 C.3   1202  CLR1202     0.0254
      8  C8        36.8500   -5.0880    0.5230 C.3   1202  CLR1202     0.0046
      9  C9        37.4510   -3.7170    0.1590 C.3   1202  CLR1202     0.0038
     10  C10       38.6980   -3.8910   -0.7230 C.3   1202  CLR1202     0.0150
     11  C11       36.4250   -2.8150   -0.5380 C.3   1202  CLR1202     0.0003
     12  C12       35.1650   -2.6510    0.3350 C.3   1202  CLR1202     0.0000
     13  C13       34.5650   -4.0430    0.5890 C.3   1202  CLR1202     0.0000
     14  C14       35.6190   -4.8630    1.3930 C.3   1202  CLR1202     0.0003
     15  C15       34.8270   -6.0930    1.8470 C.3   1202  CLR1202     0.0000
     16  C16       33.4650   -5.4700    2.2670 C.3   1202  CLR1202     0.0000
     17  C17       33.3110   -4.1430    1.4710 C.3   1202  CLR1202     0.0000
     18  C18       34.3370   -4.7700   -0.7490 C.3   1202  CLR1202     0.0000
     19  C19       38.2230   -3.9170   -2.1820 C.3   1202  CLR1202     0.0040
     20  C20       31.9990   -4.1220    0.6670 C.3   1202  CLR1202     0.0000
     21  C21       31.8840   -2.7980   -0.0990 C.3   1202  CLR1202     0.0000
     22  C22       30.8090   -4.2430    1.6270 C.3   1202  CLR1202     0.0000
     23  C23       29.4970   -4.2300    0.8370 C.3   1202  CLR1202     0.0000
     24  C24       28.3130   -4.3510    1.8020 C.3   1202  CLR1202     0.0000
     25  C25       26.9690   -4.3400    1.0560 C.3   1202  CLR1202     0.0000
     26  C26       27.1630   -4.2090   -0.4590 C.3   1202  CLR1202     0.0000
     27  C27       26.2030   -5.6290    1.3620 C.3   1202  CLR1202     0.0000
     28  O1        42.8050   -4.3370   -1.8990 O.3   1202  CLR1202    -0.2228
@<TRIPOS>BOND
     1    19    10    1
     2    28     3    1
     3     2     3    1
     4     2     1    1
     5     4     3    1
     6     4     5    1
     7    18    13    1
     8    10     1    1
     9    10     5    1
    10    10     9    1
    11    11     9    1
    12    11    12    1
    13     5     6    2
    14    26    25    1
    15    21    20    1
    16     9     8    1
    17    12    13    1
    18     6     7    1
    19     8     7    1
    20     8    14    1
    21    13    14    1
    22    13    17    1
    23    20    17    1
    24    20    22    1
    25    23    22    1
    26    23    24    1
    27    25    27    1
    28    25    24    1
    29    14    15    1
    30    17    16    1
    31    15    16    1
