@<TRIPOS>MOLECULE
3pdt_ADP_A_1.pdb
 27 29 0 0 0
SMALL
GASTEIGER

@<TRIPOS>ATOM
      1  PB        13.8960    7.0350   33.7430 P.3   811  ADP811      0.5373
      2  O1B       13.0060    7.0970   32.5410 O.2   811  ADP811     -0.2221
      3  O2B       13.2240    7.3310   35.0630 O.3   811  ADP811     -0.1143
      4  O3B       15.1930    7.7980   33.5640 O.3   811  ADP811     -0.1143
      5  PA        13.8730    4.1780   33.1090 P.3   811  ADP811      0.2231
      6  O1A       13.1900    4.5240   31.8210 O.2   811  ADP811     -0.5169
      7  O2A       15.0570    3.2410   33.1390 O.3   811  ADP811     -0.4370
      8  O3A       14.3920    5.5030   33.8700 O.3   811  ADP811     -0.2261
      9  O5'       12.7910    3.5280   34.1100 O.3   811  ADP811     -0.3111
     10  C5'       11.4630    4.0350   34.1440 C.3   811  ADP811      0.1813
     11  C4'       10.9320    3.9380   35.5600 C.3   811  ADP811      0.1821
     12  O4'       10.9990    2.5850   36.0370 O.3   811  ADP811     -0.3135
     13  C3'       11.7540    4.7450   36.5420 C.3   811  ADP811      0.2184
     14  O3'       11.3580    6.1090   36.5870 O.3   811  ADP811     -0.2174
     15  C2'       11.5060    4.0410   37.8480 C.3   811  ADP811      0.2570
     16  O2'       10.2390    4.4430   38.3830 O.3   811  ADP811     -0.2130
     17  C1'       11.3690    2.5950   37.4180 C.3   811  ADP811      0.3186
     18  N9        12.6150    1.8080   37.4710 N.pl3 811  ADP811     -0.1439
     19  C8        13.6410    1.8860   36.5820 C.3   811  ADP811      0.3377
     20  N7        14.6040    0.9950   36.8840 N.2   811  ADP811     -0.2095
     21  C5        14.1700    0.2990   37.9640 C.2   811  ADP811      0.2526
     22  C6        14.7040   -0.8020   38.7910 C.2   811  ADP811      0.4393
     23  N6        15.9100   -1.3490   38.4980 N.pl3 811  ADP811      0.2180
     24  N1        13.9470   -1.2360   39.8370 N.2   811  ADP811      0.0021
     25  C2        12.7370   -0.6970   40.1200 C.3   811  ADP811      0.5254
     26  N3        12.1810    0.3130   39.4140 N.2   811  ADP811     -0.0055
     27  C4        12.8520    0.8330   38.3420 C.2   811  ADP811      0.3518
@<TRIPOS>BOND
     1     6     5    2
     2     2     1    2
     3     5     7    1
     4     5     8    1
     5     5     9    1
     6     4     1    1
     7     1     8    1
     8     1     3    1
     9     9    10    1
    10    10    11    1
    11    11    12    1
    12    11    13    1
    13    12    17    1
    14    13    14    1
    15    13    15    1
    16    19    20    1
    17    19    18    1
    18    20    21    2
    19    17    18    1
    20    17    15    1
    21    18    27    1
    22    15    16    1
    23    21    27    1
    24    21    22    1
    25    27    26    2
    26    23    22    1
    27    22    24    2
    28    26    25    1
    29    24    25    1
