@<TRIPOS>MOLECULE
3pdu_NAP_A_1.pdb
 48 52 0 0 0
SMALL
GASTEIGER

@<TRIPOS>ATOM
      1  PA        -4.9370   39.1200   -5.8520 P.3   301  NAP301      0.2189
      2  O1A       -5.4750   39.4150   -7.1910 O.2   301  NAP301     -0.5170
      3  O2A       -5.2780   40.1310   -4.8370 O.3   301  NAP301     -0.4371
      4  O5B       -3.3590   38.8900   -5.8950 O.3   301  NAP301     -0.3112
      5  C5B       -2.6850   38.2170   -6.9260 C.3   301  NAP301      0.1813
      6  C4B       -1.1890   38.2800   -6.6180 C.3   301  NAP301      0.1820
      7  O4B       -0.4740   37.6900   -7.6960 O.3   301  NAP301     -0.3136
      8  C3B       -0.6600   39.7150   -6.4880 C.3   301  NAP301      0.2157
      9  O3B        0.4180   39.6950   -5.5690 O.3   301  NAP301     -0.2175
     10  C2B       -0.1100   39.9990   -7.8760 C.3   301  NAP301      0.2314
     11  O2B        0.9500   40.9190   -7.9500 O.3   301  NAP301     -0.2630
     12  C1B        0.4310   38.6270   -8.2180 C.3   301  NAP301      0.3158
     13  N9A        0.5980   38.4230   -9.6610 N.pl3 301  NAP301     -0.1439
     14  C8A       -0.3670   38.3300  -10.6270 C.3   301  NAP301      0.3377
     15  N7A        0.2640   38.1260  -11.8140 N.2   301  NAP301     -0.2095
     16  C5A        1.5950   38.0720  -11.6060 C.2   301  NAP301      0.2526
     17  C6A        2.6740   37.8750  -12.4560 C.2   301  NAP301      0.4393
     18  N6A        2.4800   37.6810  -13.7660 N.pl3 301  NAP301      0.2180
     19  N1A        3.9420   37.8850  -11.9240 N.2   301  NAP301      0.0021
     20  C2A        4.1420   38.0740  -10.5700 C.3   301  NAP301      0.5254
     21  N3A        3.0640   38.2670   -9.7330 N.2   301  NAP301     -0.0055
     22  C4A        1.8150   38.2650  -10.2510 C.2   301  NAP301      0.3518
     23  O3        -5.4910   37.6600   -5.4970 O.3   301  NAP301     -0.2703
     24  PN        -5.7240   36.8730   -4.1240 P.3   301  NAP301      0.2189
     25  O1N       -7.1590   36.9550   -3.8000 O.2   301  NAP301     -0.5170
     26  O2N       -4.6520   37.2530   -3.1690 O.3   301  NAP301     -0.4371
     27  O5D       -5.4460   35.3980   -4.7000 O.3   301  NAP301     -0.3112
     28  C5D       -4.1690   34.8000   -4.7260 C.3   301  NAP301      0.1813
     29  C4D       -4.3990   33.3130   -4.9650 C.3   301  NAP301      0.1799
     30  O4D       -5.1380   32.7710   -3.8880 O.3   301  NAP301     -0.3327
     31  C3D       -5.2570   33.0840   -6.2050 C.3   301  NAP301      0.2158
     32  O3D       -4.8450   31.8610   -6.7960 O.3   301  NAP301     -0.2175
     33  C2D       -6.6600   32.9060   -5.6630 C.3   301  NAP301      0.2309
     34  O2D       -7.4870   32.1310   -6.5200 O.3   301  NAP301     -0.2158
     35  C1D       -6.3200   32.1720   -4.3720 C.3   301  NAP301      0.2263
     36  N1N       -7.3150   32.2460   -3.3020 N.pl3 301  NAP301     -0.2787
     37  C2N       -7.9900   33.4070   -3.0430 C.3   301  NAP301      0.1244
     38  C3N       -8.9150   33.4550   -1.9950 C.2   301  NAP301      0.0544
     39  C7N       -9.6560   34.7300   -1.6620 C.2   301  NAP301      0.2818
     40  O7N      -10.8120   34.6300   -0.8890 O.2   301  NAP301     -0.2670
     41  N7N       -9.2490   35.9220   -2.1070 N.am  301  NAP301     -0.0839
     42  C4N       -9.1290   32.3160   -1.2220 C.2   301  NAP301      0.0033
     43  C5N       -8.4200   31.1420   -1.4790 C.2   301  NAP301      0.0157
     44  C6N       -7.5000   31.1260   -2.5210 C.2   301  NAP301      0.0633
     45  P2B        0.6490   42.4780   -8.2250 P.3   301  NAP301      0.5328
     46  O1X        1.8970   42.9980   -8.8760 O.3   301  NAP301     -0.1145
     47  O2X       -0.5670   42.6020   -9.1180 O.2   301  NAP301     -0.2224
     48  O3X        0.3720   43.1730   -6.9250 O.3   301  NAP301     -0.1145
@<TRIPOS>BOND
     1    18    17    1
     2    17    19    2
     3    17    16    1
     4    19    20    1
     5    15    16    2
     6    15    14    1
     7    16    22    1
     8    14    13    1
     9    20    21    1
    10    22    21    2
    11    22    13    1
    12    13    12    1
    13    47    45    2
    14    46    45    1
    15    45    11    1
    16    45    48    1
    17    12    10    1
    18    12     7    1
    19    11    10    1
    20    10     8    1
    21     7     6    1
    22     2     1    2
    23     5     6    1
    24     5     4    1
    25    32    31    1
    26     6     8    1
    27    34    33    1
    28     8     9    1
    29    31    33    1
    30    31    29    1
    31     4     1    1
    32     1    23    1
    33     1     3    1
    34    33    35    1
    35    23    24    1
    36    29    28    1
    37    29    30    1
    38    28    27    1
    39    27    24    1
    40    35    30    1
    41    35    36    1
    42    24    25    2
    43    24    26    1
    44    36    37    1
    45    36    44    1
    46    37    38    1
    47    44    43    2
    48    41    39   am
    49    38    39    1
    50    38    42    2
    51    39    40    2
    52    43    42    1
