@<TRIPOS>MOLECULE
3pe1_3NG_A_1.pdb
 25 28 0 0 0
SMALL
GASTEIGER

@<TRIPOS>ATOM
      1  C1        22.8240  -31.1000   13.9140 C.2   338  3NG338      0.1327
      2  C2        22.9680  -30.9530   12.5510 C.2   338  3NG338      0.0273
      3  C3        23.0140  -32.1010   11.7110 C.2   338  3NG338     -0.0186
      4  C4        22.9010  -33.3760   12.2760 C.3   338  3NG338      0.0592
      5  C5        22.7470  -33.5340   13.6650 C.2   338  3NG338      0.0644
      6  C6        22.7120  -32.4030   14.4840 C.2   338  3NG338      0.0347
      7  C7        23.0290  -28.5330   12.8630 C.ar  338  3NG338      0.0488
      8  C8        23.0820  -29.6040   11.9900 C.ar  338  3NG338      0.0251
      9  N9        22.7630  -29.9970   14.7610 N.2   338  3NG338     -0.3852
     10  C10       22.8630  -28.7490   14.2670 C.2   338  3NG338      0.2033
     11  C11       23.2860  -27.0390   10.9500 C.ar  338  3NG338      0.0990
     12  N12       23.3340  -28.1060   10.1210 N.ar  338  3NG338     -0.2423
     13  C13       23.2310  -29.3630   10.5980 C.ar  338  3NG338      0.0990
     14  C14       23.1340  -27.2130   12.3230 C.ar  338  3NG338      0.0246
     15  N15       22.7820  -27.5810   15.0880 N.pl3 338  3NG338     -0.1836
     16  C16       22.6370  -27.5510   16.5100 C.ar  338  3NG338      0.0739
     17  C17       23.0770  -28.5820   17.3350 C.ar  338  3NG338      0.0280
     18  C18       22.9160  -28.4710   18.7120 C.ar  338  3NG338      0.0590
     19  C19       22.3210  -27.3460   19.2560 C.ar  338  3NG338      0.0115
     20  C20       21.8940  -26.3220   18.4330 C.ar  338  3NG338      0.0022
     21  C21       22.0500  -26.4220   17.0650 C.ar  338  3NG338      0.0166
     22 CL22       23.4190  -29.7360   19.7820 Cl    338  3NG338     -0.0822
     23  C23       22.5630  -34.9060   14.2460 C.2   338  3NG338      0.3842
     24  O24       22.7240  -34.9030   15.4900 O.co2 338  3NG338     -0.2409
     25  O25       22.1500  -35.6830   13.3550 O.co2 338  3NG338     -0.2409
@<TRIPOS>BOND
     1    12    13   ar
     2    12    11   ar
     3    13     8   ar
     4    11    14   ar
     5     3     4    1
     6     3     2    2
     7     8     2    1
     8     8     7   ar
     9     4     5    1
    10    14     7   ar
    11     2     1    1
    12     7    10    1
    13    25    23   ar
    14     5    23    1
    15     5     6    2
    16     1     6    1
    17     1     9    2
    18    23    24   ar
    19    10     9    2
    20    10    15    1
    21    15    16    1
    22    16    21   ar
    23    16    17   ar
    24    21    20   ar
    25    17    18   ar
    26    20    19   ar
    27    18    19   ar
    28    18    22    1
