@<TRIPOS>MOLECULE
3pe2_E1B_A_1.pdb
 26 29 0 0 0
SMALL
GASTEIGER

@<TRIPOS>ATOM
      1  N1        23.4420  -27.8900   10.2610 N.ar  338  E1B338     -0.2224
      2  C2        23.4000  -26.8690   11.1510 C.ar  338  E1B338      0.1990
      3  N3        23.2050  -27.0940   12.4630 N.ar  338  E1B338     -0.2199
      4  C4        23.0470  -28.3830   12.9440 C.ar  338  E1B338      0.1301
      5  C5        23.0880  -29.4490   12.0650 C.ar  338  E1B338      0.0429
      6  C6        23.2970  -29.1720   10.6780 C.ar  338  E1B338      0.1023
      7  CAA       23.7750  -30.3870   20.4220 C.1   338  E1B338     -0.0092
      8  OAB       22.5010  -34.7800   15.4990 O.co2 338  E1B338     -0.2409
      9  OAC       22.1120  -35.5840   13.3210 O.co2 338  E1B338     -0.2409
     10  CAD       23.3930  -29.4680   19.7470 C.1   338  E1B338     -0.0512
     11  CAE       21.9580  -26.1610   18.6360 C.ar  338  E1B338      0.0020
     12  CAG       22.3810  -27.1860   19.4650 C.ar  338  E1B338      0.0084
     13  CAH       22.0540  -26.2790   17.2570 C.ar  338  E1B338      0.0166
     14  CAI       22.7880  -33.2180   12.3020 C.3   338  E1B338      0.0592
     15  CAJ       22.9550  -31.9420   11.7510 C.2   338  E1B338     -0.0185
     16  CAL       23.0150  -28.4620   17.5480 C.ar  338  E1B338      0.0249
     17  CAM       22.5580  -32.3030   14.5300 C.2   338  E1B338      0.0347
     18  NAP       22.6910  -29.9080   14.7930 N.2   338  E1B338     -0.3836
     19  NAQ       22.7310  -27.6880   15.3480 N.pl3 338  E1B338     -0.1823
     20  CAR       22.4100  -34.7870   14.2440 C.2   338  E1B338      0.3842
     21  CAS       22.9200  -28.3370   18.9130 C.ar  338  E1B338      0.0439
     22  CAT       22.5850  -27.4390   16.7270 C.ar  338  E1B338      0.0737
     23  CAU       22.6000  -33.4110   13.6860 C.2   338  E1B338      0.0644
     24  CAV       22.8320  -28.6630   14.3320 C.2   338  E1B338      0.2211
     25  CAW       22.7260  -31.0040   13.9650 C.2   338  E1B338      0.1328
     26  CAY       22.9100  -30.8090   12.6130 C.2   338  E1B338      0.0288
@<TRIPOS>BOND
     1     1     6   ar
     2     1     2   ar
     3     6     5   ar
     4     2     3   ar
     5    15    14    1
     6    15    26    2
     7     5    26    1
     8     5     4   ar
     9    14    23    1
    10     3     4   ar
    11    26    25    1
    12     4    24    1
    13     9    20   ar
    14    23    20    1
    15    23    17    2
    16    25    17    1
    17    25    18    2
    18    20     8   ar
    19    24    18    2
    20    24    19    1
    21    19    22    1
    22    22    13   ar
    23    22    16   ar
    24    13    11   ar
    25    16    21   ar
    26    11    12   ar
    27    21    12   ar
    28    21    10    1
    29    10     7    3
