@<TRIPOS>MOLECULE
3pe3_UDP_A_1.pdb
 25 26 0 0 0
SMALL
GASTEIGER

@<TRIPOS>ATOM
      1  N1         0.0690  214.0020   29.6130 N.am  1201  UDP1201    -0.1766
      2  C2         0.8120  214.2590   28.4810 C.1   1201  UDP1201     0.2845
      3  N3         0.5940  215.4170   27.7690 N.2   1201  UDP1201    -0.2452
      4  C4        -0.3660  216.3070   28.1880 C.1   1201  UDP1201     0.2182
      5  C5        -1.1190  216.0410   29.3270 C.2   1201  UDP1201     0.1242
      6  C6        -0.9770  214.8100   29.9560 C.2   1201  UDP1201     0.0929
      7  O2         1.6710  213.4560   28.1090 O.2   1201  UDP1201    -0.1918
      8  O4        -0.5480  217.3350   27.5430 O.2   1201  UDP1201    -0.2085
      9  C1'        0.3120  212.7460   30.3370 C.3   1201  UDP1201     0.2401
     10  C2'        0.7500  212.9720   31.7670 C.3   1201  UDP1201     0.2319
     11  O2'        2.1470  213.1150   31.8400 O.3   1201  UDP1201    -0.2157
     12  C3'        0.3030  211.6850   32.4210 C.3   1201  UDP1201     0.2158
     13  C4'       -0.8820  211.2170   31.5960 C.3   1201  UDP1201     0.1799
     14  O4'       -0.8670  211.9700   30.4070 O.3   1201  UDP1201    -0.3320
     15  O3'        1.3380  210.7420   32.2980 O.3   1201  UDP1201    -0.2175
     16  C5'       -2.1960  211.4850   32.3040 C.3   1201  UDP1201     0.1813
     17  O5'       -2.7010  210.2860   32.8290 O.3   1201  UDP1201    -0.3111
     18  PA        -3.5820  210.3230   34.1710 P.3   1201  UDP1201     0.2231
     19  O1A       -4.9110  210.8860   33.8450 O.2   1201  UDP1201    -0.5169
     20  O2A       -3.7080  208.9790   34.7690 O.3   1201  UDP1201    -0.4370
     21  O3A       -2.8010  211.3500   35.1380 O.3   1201  UDP1201    -0.2261
     22  PB        -2.9630  211.3020   36.7430 P.3   1201  UDP1201     0.5373
     23  O1B       -2.1590  210.1730   37.2650 O.3   1201  UDP1201    -0.1143
     24  O2B       -4.3870  211.0900   37.0940 O.2   1201  UDP1201    -0.2221
     25  O3B       -2.4780  212.5720   37.3220 O.3   1201  UDP1201    -0.1143
@<TRIPOS>BOND
     1     8     4    2
     2     3     4    2
     3     3     2    2
     4     7     2    2
     5     4     5    1
     6     2     1   am
     7     5     6    2
     8     1     6    1
     9     1     9    1
    10     9    14    1
    11     9    10    1
    12    14    13    1
    13    13    16    1
    14    13    12    1
    15    10    11    1
    16    10    12    1
    17    15    12    1
    18    16    17    1
    19    17    18    1
    20    19    18    2
    21    18    20    1
    22    18    21    1
    23    21    22    1
    24    22    24    2
    25    22    23    1
    26    22    25    1
