@<TRIPOS>MOLECULE
3pe4_UDP_A_1.pdb
 25 26 0 0 0
SMALL
GASTEIGER

@<TRIPOS>ATOM
      1  N1       -15.3110   27.8070   14.4820 N.am  1212  UDP1212    -0.1766
      2  C2       -14.1810   27.3100   15.0790 C.1   1212  UDP1212     0.2845
      3  N3       -13.5860   28.0370   16.0690 N.2   1212  UDP1212    -0.2452
      4  C4       -14.1130   29.2530   16.4620 C.1   1212  UDP1212     0.2182
      5  C5       -15.2430   29.7740   15.8490 C.2   1212  UDP1212     0.1242
      6  C6       -15.8300   29.0350   14.8210 C.2   1212  UDP1212     0.0929
      7  O2       -13.7220   26.2100   14.7350 O.2   1212  UDP1212    -0.1918
      8  O4       -13.5550   29.8710   17.3460 O.2   1212  UDP1212    -0.2085
      9  C1'      -15.8930   27.0470   13.3700 C.3   1212  UDP1212     0.2401
     10  C2'      -17.3700   26.7100   13.4590 C.3   1212  UDP1212     0.2319
     11  O2'      -17.5980   25.4910   14.1590 O.3   1212  UDP1212    -0.2157
     12  C3'      -17.6870   26.5780   11.9750 C.3   1212  UDP1212     0.2158
     13  C4'      -16.7430   27.5570   11.2840 C.3   1212  UDP1212     0.1799
     14  O4'      -15.7460   27.8810   12.2230 O.3   1212  UDP1212    -0.3320
     15  O3'      -17.3720   25.2800   11.5090 O.3   1212  UDP1212    -0.2175
     16  C5'      -17.4710   28.8180   10.8110 C.3   1212  UDP1212     0.1813
     17  O5'      -17.9920   28.5760    9.5240 O.3   1212  UDP1212    -0.3111
     18  PA       -19.2570   29.3880    8.9440 P.3   1212  UDP1212     0.2231
     19  O1A      -19.5530   28.8870    7.5800 O.2   1212  UDP1212    -0.5169
     20  O2A      -18.9750   30.8370    8.9720 O.3   1212  UDP1212    -0.4370
     21  O3A      -20.3920   28.9460    9.9930 O.3   1212  UDP1212    -0.2261
     22  PB       -21.9760   29.0850    9.8360 P.3   1212  UDP1212     0.5373
     23  O1B      -22.4530   29.3120   11.2200 O.3   1212  UDP1212    -0.1143
     24  O2B      -22.5580   27.8610    9.2550 O.3   1212  UDP1212    -0.1143
     25  O3B      -22.3230   30.2430    8.9750 O.2   1212  UDP1212    -0.2221
@<TRIPOS>BOND
     1    19    18    2
     2    18    20    1
     3    18    17    1
     4    18    21    1
     5    25    22    2
     6    24    22    1
     7    17    16    1
     8    22    21    1
     9    22    23    1
    10    16    13    1
    11    13    12    1
    12    13    14    1
    13    15    12    1
    14    12    10    1
    15    14     9    1
    16     9    10    1
    17     9     1    1
    18    10    11    1
    19     1     6    1
    20     1     2   am
    21     7     2    2
    22     6     5    2
    23     2     3    2
    24     5     4    1
    25     3     4    2
    26     4     8    2
