@<TRIPOS>MOLECULE
3pef_NAP_A_1.pdb
 48 52 0 0 0
SMALL
GASTEIGER

@<TRIPOS>ATOM
      1  PA         0.3610   13.9030   19.6690 P.3   301  NAP301      0.2189
      2  O1A       -0.7920   14.3840   18.8760 O.2   301  NAP301     -0.5170
      3  O2A        0.6460   12.4610   19.5520 O.3   301  NAP301     -0.4371
      4  O5B        0.1580   14.2730   21.2140 O.3   301  NAP301     -0.3112
      5  C5B       -0.4470   15.4810   21.5880 C.3   301  NAP301      0.1813
      6  C4B       -0.6240   15.4310   23.0950 C.3   301  NAP301      0.1820
      7  O4B       -1.1960   16.6510   23.5160 O.3   301  NAP301     -0.3136
      8  C3B       -1.5960   14.3280   23.5040 C.3   301  NAP301      0.2157
      9  O3B       -1.1190   13.8340   24.7340 O.3   301  NAP301     -0.2175
     10  C2B       -2.8840   15.0920   23.7320 C.3   301  NAP301      0.2314
     11  O2B       -3.7790   14.4960   24.6350 O.3   301  NAP301     -0.2630
     12  C1B       -2.3180   16.3720   24.3180 C.3   301  NAP301      0.3158
     13  N9A       -3.3110   17.4550   24.2830 N.pl3 301  NAP301     -0.1439
     14  C8A       -3.7730   18.1050   23.1650 C.3   301  NAP301      0.3377
     15  N7A       -4.6860   19.0230   23.5570 N.2   301  NAP301     -0.2095
     16  C5A       -4.8170   18.9550   24.8970 C.2   301  NAP301      0.2526
     17  C6A       -5.5950   19.6780   25.7860 C.2   301  NAP301      0.4393
     18  N6A       -6.4090   20.6240   25.3370 N.pl3 301  NAP301      0.2180
     19  N1A       -5.5270   19.3910   27.1230 N.2   301  NAP301      0.0021
     20  C2A       -4.6750   18.4000   27.5790 C.3   301  NAP301      0.5254
     21  N3A       -3.8930   17.6900   26.6870 N.2   301  NAP301     -0.0055
     22  C4A       -3.9610   17.9720   25.3690 C.2   301  NAP301      0.3518
     23  O3         1.6210   14.7410   19.1770 O.3   301  NAP301     -0.2703
     24  PN         3.1500   14.6360   19.5760 P.3   301  NAP301      0.2189
     25  O1N        3.9590   14.4740   18.3570 O.2   301  NAP301     -0.5170
     26  O2N        3.3490   13.6920   20.6940 O.3   301  NAP301     -0.4371
     27  O5D        3.2350   16.1650   20.0760 O.3   301  NAP301     -0.3112
     28  C5D        3.6640   16.5660   21.3500 C.3   301  NAP301      0.1813
     29  C4D        4.5250   17.8120   21.1490 C.3   301  NAP301      0.1799
     30  O4D        5.7980   17.4930   20.6400 O.3   301  NAP301     -0.3327
     31  C3D        3.9370   18.7480   20.1130 C.3   301  NAP301      0.2158
     32  O3D        4.1850   20.0480   20.6030 O.3   301  NAP301     -0.2175
     33  C2D        4.7340   18.4690   18.8480 C.3   301  NAP301      0.2309
     34  O2D        4.7700   19.6040   18.0280 O.3   301  NAP301     -0.2158
     35  C1D        6.0900   18.2050   19.4530 C.3   301  NAP301      0.2263
     36  N1N        7.0580   17.4030   18.6730 N.pl3 301  NAP301     -0.2787
     37  C2N        6.6430   16.3550   17.9050 C.3   301  NAP301      0.1244
     38  C3N        7.5710   15.5750   17.2190 C.2   301  NAP301      0.0544
     39  C7N        7.1140   14.3930   16.4180 C.2   301  NAP301      0.2818
     40  O7N        7.9650   13.9480   15.4200 O.2   301  NAP301     -0.2670
     41  N7N        5.9320   13.7860   16.6190 N.am  301  NAP301     -0.0839
     42  C4N        8.9380   15.8580   17.3120 C.2   301  NAP301      0.0033
     43  C5N        9.3510   16.9120   18.1230 C.2   301  NAP301      0.0157
     44  C6N        8.4060   17.6710   18.8140 C.2   301  NAP301      0.0633
     45  P2B       -4.8080   13.3260   24.1590 P.3   301  NAP301      0.5328
     46  O1X       -5.9200   13.3180   25.1980 O.3   301  NAP301     -0.1145
     47  O2X       -5.3280   13.6710   22.8010 O.2   301  NAP301     -0.2224
     48  O3X       -4.0860   12.0090   24.1000 O.3   301  NAP301     -0.1145
@<TRIPOS>BOND
     1    40    39    2
     2    39    41   am
     3    39    38    1
     4    38    42    2
     5    38    37    1
     6    42    43    1
     7    37    36    1
     8    34    33    1
     9    43    44    2
    10    25    24    2
    11    36    44    1
    12    36    35    1
    13    33    35    1
    14    33    31    1
    15     2     1    2
    16    23    24    1
    17    23     1    1
    18    35    30    1
    19     3     1    1
    20    24    27    1
    21    24    26    1
    22     1     4    1
    23    27    28    1
    24    31    32    1
    25    31    29    1
    26    30    29    1
    27    29    28    1
    28     4     5    1
    29     5     6    1
    30    47    45    2
    31     6     8    1
    32     6     7    1
    33    14    15    1
    34    14    13    1
    35     8    10    1
    36     8     9    1
    37     7    12    1
    38    15    16    2
    39    10    12    1
    40    10    11    1
    41    48    45    1
    42    45    11    1
    43    45    46    1
    44    13    12    1
    45    13    22    1
    46    16    22    1
    47    16    17    1
    48    18    17    1
    49    22    21    2
    50    17    19    2
    51    21    20    1
    52    19    20    1
