@<TRIPOS>MOLECULE
3peh_IBD_A_1.pdb
 31 33 0 0 0
SMALL
GASTEIGER

@<TRIPOS>ATOM
      1  N1        45.5580   72.8870    9.5450 N.2   1001  IBD1001    -0.3295
      2  C2        46.3680   71.9810   10.1500 C.1   1001  IBD1001     0.2413
      3  N3        47.7000   72.1080   10.1070 N.2   1001  IBD1001    -0.3229
      4  C4        48.2490   73.1170    9.4240 C.2   1001  IBD1001     0.1626
      5  C5        47.4530   74.0620    8.7330 C.3   1001  IBD1001     0.1354
      6  C6        46.0570   73.9150    8.8180 C.2   1001  IBD1001     0.1344
      7  CAA       54.2940   75.5720    7.9550 C.3   1001  IBD1001     0.0253
      8  CAB       44.6570   79.6660    3.5180 C.3   1001  IBD1001     0.0188
      9  CAC       47.5660   76.9090    1.4600 C.3   1001  IBD1001     0.0188
     10  NAD       45.8780   70.9910   10.8800 N.pl3 1001  IBD1001    -0.0232
     11  OAE       50.2690   76.4790    6.6220 O.2   1001  IBD1001    -0.2678
     12 CLAF       42.3370   78.0070    6.5530 Cl    1001  IBD1001    -0.0791
     13 CLAG       44.3120   75.4170   10.8040 Cl    1001  IBD1001    -0.0821
     14  CAH       43.4480   76.5580    8.5490 C.ar  1001  IBD1001     0.0259
     15  CAI       45.1450   75.1210    6.8630 C.ar  1001  IBD1001     0.0409
     16  CAJ       48.2000   74.9700    8.0590 C.2   1001  IBD1001    -0.0006
     17  CAK       53.0360   75.9170    7.1560 C.3   1001  IBD1001     0.1155
     18  CAL       45.5590   78.9140    2.5370 C.3   1001  IBD1001     0.0722
     19  CAM       47.3580   77.3120    2.9230 C.3   1001  IBD1001     0.0722
     20  CAN       44.8710   75.6390    4.0200 C.3   1001  IBD1001     0.2227
     21  CAO       45.0010   76.5690    2.8040 C.3   1001  IBD1001     0.1200
     22  NAR       51.8510   75.3060    7.7750 N.am  1001  IBD1001    -0.2013
     23  OAS       44.1490   76.3940    5.0010 O.3   1001  IBD1001    -0.4731
     24  SAT       49.8660   73.4940    9.1610 S.3   1001  IBD1001    -0.0538
     25  CAU       50.5940   75.6440    7.4680 C.2   1001  IBD1001     0.2706
     26  CAW       43.4390   76.8220    7.1860 C.ar  1001  IBD1001     0.0924
     27  CAX       44.3260   75.6150    9.0840 C.ar  1001  IBD1001     0.0609
     28  CAY       44.2780   76.1000    6.3330 C.ar  1001  IBD1001     0.1492
     29  CAZ       49.5290   74.8360    8.2100 C.2   1001  IBD1001     0.0831
     30  CBA       45.1730   74.8630    8.2480 C.ar  1001  IBD1001     0.0408
     31  NBE       45.9440   77.6490    3.1640 N.3   1001  IBD1001    -0.2696
@<TRIPOS>BOND
     1     9    19    1
     2    18    31    1
     3    18     8    1
     4    21    31    1
     5    21    20    1
     6    19    31    1
     7    20    23    1
     8    23    28    1
     9    28    15   ar
    10    28    26   ar
    11    12    26    1
    12    11    25    2
    13    15    30   ar
    14    17    22    1
    15    17     7    1
    16    26    14   ar
    17    25    22   am
    18    25    29    1
    19    16    29    2
    20    16     5    1
    21    29    24    1
    22    30     6    1
    23    30    27   ar
    24    14    27   ar
    25     5     6    1
    26     5     4    1
    27     6     1    2
    28    27    13    1
    29    24     4    1
    30     4     3    2
    31     1     2    2
    32     3     2    2
    33     2    10    1
