@<TRIPOS>MOLECULE
3pej_BC2_A_1.pdb
 40 41 0 0 0
SMALL
GASTEIGER

@<TRIPOS>ATOM
      1  O23        1.9500  -31.5040  -62.8350 O.2   1001  BC21001    -0.2844
      2  C2         1.4890  -30.3450  -62.7670 C.2   1001  BC21001     0.2205
      3  C3         2.3520  -29.2010  -62.3690 C.2   1001  BC21001     0.1680
      4  C4         1.7920  -27.9250  -62.3100 C.3   1001  BC21001     0.1323
      5  C5         0.4440  -27.7050  -62.5990 C.2   1001  BC21001     0.1802
      6  O24       -0.0090  -26.5410  -62.5170 O.2   1001  BC21001    -0.2909
      7  C6        -0.4060  -28.7550  -62.9560 C.2   1001  BC21001     0.0392
      8  N22        3.6730  -29.3610  -62.1150 N.2   1001  BC21001    -0.3338
      9  C21        4.2090  -30.0740  -61.1180 C.1   1001  BC21001     0.2003
     10  O37        5.4260  -30.1210  -61.0330 O.2   1001  BC21001    -0.2096
     11  C20        3.4000  -30.8340  -60.1500 C.2   1001  BC21001     0.0728
     12  C36        3.7980  -32.2490  -59.8420 C.3   1001  BC21001     0.0447
     13  C19        2.3330  -30.2800  -59.5360 C.2   1001  BC21001     0.0080
     14  C18        1.4810  -31.0220  -58.6010 C.2   1001  BC21001    -0.0040
     15  C17        0.9090  -30.4760  -57.5250 C.2   1001  BC21001    -0.0225
     16  C16        1.1490  -29.0390  -57.1330 C.3   1001  BC21001     0.0662
     17  C35        1.9710  -29.0310  -55.8470 C.3   1001  BC21001     0.0088
     18  C1         0.0520  -30.0730  -63.0430 C.2   1001  BC21001     0.0486
     19  C7        -0.8600  -31.1900  -63.4080 C.3   1001  BC21001     0.1407
     20  O38       -1.7270  -30.8040  -64.4790 O.3   1001  BC21001    -0.3491
     21  C39       -2.2220  -31.9380  -65.1920 C.3   1001  BC21001     0.1745
     22  C8        -1.6740  -31.6840  -62.2030 C.3   1001  BC21001     0.0341
     23  C25       -0.7480  -32.2550  -61.1290 C.3   1001  BC21001     0.0029
     24  C9        -2.6070  -30.5910  -61.6680 C.3   1001  BC21001     0.0348
     25  C10       -3.1220  -30.8220  -60.2450 C.3   1001  BC21001     0.1427
     26  O26       -3.9190  -31.9990  -60.2090 O.3   1001  BC21001    -0.3511
     27  C27       -3.7550  -32.6930  -58.9760 C.3   1001  BC21001     0.1741
     28  C11       -3.9750  -29.6610  -59.7390 C.3   1001  BC21001     0.1462
     29  O28       -4.9620  -29.3330  -60.7240 O.3   1001  BC21001    -0.3508
     30  C40       -6.2330  -29.9190  -60.4550 C.3   1001  BC21001     0.1741
     31  C12       -3.1300  -28.4260  -59.4260 C.3   1001  BC21001     0.0511
     32  C29       -4.0160  -27.2080  -59.2070 C.3   1001  BC21001     0.0073
     33  C13       -2.2650  -28.5670  -58.1890 C.2   1001  BC21001    -0.0290
     34  C14       -0.9750  -28.1740  -58.1900 C.2   1001  BC21001    -0.0084
     35  C30       -0.3670  -27.5970  -59.4310 C.3   1001  BC21001     0.0296
     36  C15       -0.1390  -28.2420  -56.9410 C.3   1001  BC21001     0.1925
     37  O31        0.2830  -26.9010  -56.6600 O.3   1001  BC21001    -0.4316
     38  C32       -0.5930  -26.0890  -55.8220 C.2   1001  BC21001     0.4413
     39  O33       -1.7670  -26.4060  -55.6420 O.2   1001  BC21001    -0.2227
     40  N34       -0.0650  -24.9980  -55.2670 N.am  1001  BC21001    -0.0475
@<TRIPOS>BOND
     1    21    20    1
     2    20    19    1
     3    19    18    1
     4    19    22    1
     5    18     7    2
     6    18     2    1
     7     7     5    1
     8     1     2    2
     9     2     3    1
    10     5     6    2
    11     5     4    1
    12     3     4    1
    13     3     8    2
    14    22    24    1
    15    22    23    1
    16     8     9    2
    17    24    25    1
    18     9    10    2
    19     9    11    1
    20    29    30    1
    21    29    28    1
    22    25    26    1
    23    25    28    1
    24    26    27    1
    25    11    12    1
    26    11    13    2
    27    28    31    1
    28    13    14    1
    29    35    34    1
    30    31    32    1
    31    31    33    1
    32    14    15    2
    33    34    33    2
    34    34    36    1
    35    15    16    1
    36    16    36    1
    37    16    17    1
    38    36    37    1
    39    37    38    1
    40    38    39    2
    41    38    40   am
