@<TRIPOS>MOLECULE
3pel_HEM_A_1.pdb
 43 50 0 0 0
SMALL
GASTEIGER

@<TRIPOS>ATOM
      1  CHA       15.1060    9.5390  -14.0650 C.2   142  HEM142      0.0000
      2  CHB       14.6310   11.2700   -9.5650 C.2   142  HEM142      0.0000
      3  CHC       12.2800    7.2240   -8.2850 C.2   142  HEM142      0.0000
      4  CHD       13.0190    5.3190  -12.6840 C.2   142  HEM142      0.0000
      5  C1A       15.2150   10.3560  -12.9630 C.2   142  HEM142      0.0000
      6  C2A       15.9240   11.6190  -12.8960 C.2   142  HEM142      0.0000
      7  C3A       15.7910   12.0970  -11.6510 C.2   142  HEM142      0.0000
      8  C4A       14.9980   11.1500  -10.8880 C.2   142  HEM142      0.0000
      9  CMA       16.3760   13.4190  -11.1050 C.3   142  HEM142      0.0000
     10  CAA       16.6920   12.2880  -14.0640 C.3   142  HEM142      0.0000
     11  CBA       15.7370   13.2150  -14.8110 C.3   142  HEM142      0.0000
     12  CGA       16.4240   14.0060  -15.8970 C.2   142  HEM142      0.0000
     13  O1A       17.6270   13.7710  -16.1830 O.co2 142  HEM142      0.0000
     14  O2A       15.7460   14.8880  -16.4870 O.co2 142  HEM142      0.0000
     15  C1B       13.9450   10.3370   -8.8170 C.ar  142  HEM142      0.0000
     16  C2B       13.5780   10.4600   -7.4190 C.ar  142  HEM142      0.0000
     17  C3B       12.9290    9.3380   -7.0630 C.ar  142  HEM142      0.0000
     18  C4B       12.8640    8.4730   -8.2260 C.ar  142  HEM142      0.0000
     19  CMB       13.8980   11.6850   -6.5280 C.3   142  HEM142      0.0000
     20  CAB       12.3370    9.0040   -5.6720 C.2   142  HEM142      0.0000
     21  CBB       13.1180    8.9960   -4.5840 C.2   142  HEM142      0.0000
     22  C1C       12.3310    6.3290   -9.3330 C.2   142  HEM142      0.0000
     23  C2C       11.9170    4.9390   -9.2950 C.2   142  HEM142      0.0000
     24  C3C       12.1240    4.4090  -10.5110 C.2   142  HEM142      0.0000
     25  C4C       12.6730    5.4480  -11.3580 C.2   142  HEM142      0.0000
     26  CMC       11.3410    4.2230   -8.0520 C.3   142  HEM142      0.0000
     27  CAC       11.8370    2.9600  -10.9690 C.2   142  HEM142      0.0000
     28  CBC       12.3840    1.9110  -10.3470 C.2   142  HEM142      0.0000
     29  C1D       13.6900    6.2500  -13.4500 C.ar  142  HEM142      0.0000
     30  C2D       14.2170    6.0100  -14.7760 C.ar  142  HEM142      0.0000
     31  C3D       14.8610    7.3300  -15.2050 C.ar  142  HEM142      0.0000
     32  C4D       14.6710    8.2320  -14.0930 C.ar  142  HEM142      0.0000
     33  CMD       14.1370    4.7030  -15.5910 C.3   142  HEM142      0.0000
     34  CAD       15.5920    7.6320  -16.5290 C.3   142  HEM142      0.0000
     35  CBD       17.0660    7.3020  -16.2990 C.3   142  HEM142      0.0000
     36  CGD       17.8900    7.6010  -17.5260 C.2   142  HEM142      0.0000
     37  O1D       19.0050    8.1610  -17.3800 O.co2 142  HEM142      0.0000
     38  O2D       17.4390    7.2760  -18.6500 O.co2 142  HEM142      0.0000
     39  NA        14.6670   10.1000  -11.7230 N.2   142  HEM142      0.0000
     40  NB        13.4910    9.1180   -9.2740 N.ar  142  HEM142      0.0000
     41  NC        12.7840    6.6000  -10.6080 N.2   142  HEM142      0.0000
     42  ND        13.9750    7.5640  -13.0860 N.ar  142  HEM142      0.0000
     43 FE         13.7140    8.3550  -11.1770 Fe    142  HEM142      0.0000
@<TRIPOS>BOND
     1    38    36   ar
     2    36    37   ar
     3    36    35    1
     4    34    35    1
     5    34    31    1
     6    14    12   ar
     7    13    12   ar
     8    12    11    1
     9    33    30    1
    10    31    30   ar
    11    31    32   ar
    12    11    10    1
    13    30    29   ar
    14    32     1    2
    15    32    42   ar
    16     1     5    1
    17    10     6    1
    18    29    42   ar
    19    29     4    2
    20    42    43    1
    21     5     6    1
    22     5    39    2
    23     6     7    2
    24     4    25    1
    25    39    43    1
    26    39     8    1
    27     7     9    1
    28     7     8    1
    29    25    41    2
    30    25    24    1
    31    43    41    1
    32    43    40    1
    33    27    24    1
    34    27    28    2
    35     8     2    2
    36    41    22    1
    37    24    23    2
    38     2    15    1
    39    22    23    1
    40    22     3    2
    41    23    26    1
    42    40    15   ar
    43    40    18   ar
    44    15    16   ar
    45     3    18    1
    46    18    17   ar
    47    16    17   ar
    48    16    19    1
    49    17    20    1
    50    20    21    2
