@<TRIPOS>MOLECULE
3pen_GDP_A_1.pdb
 28 30 0 0 0
SMALL
GASTEIGER

@<TRIPOS>ATOM
      1  PB       -56.2490   -8.0800  -76.4810 P.3   416  GDP416      0.5373
      2  O1B      -56.9660   -9.0050  -75.5360 O.3   416  GDP416     -0.1143
      3  O2B      -55.3250   -7.1750  -75.6970 O.3   416  GDP416     -0.1143
      4  O3B      -57.2340   -7.2340  -77.2490 O.2   416  GDP416     -0.2221
      5  O3A      -55.3330   -8.8880  -77.5270 O.3   416  GDP416     -0.2261
      6  PA       -55.4860  -10.4580  -77.8680 P.3   416  GDP416      0.2231
      7  O1A      -55.0740  -11.3020  -76.6710 O.3   416  GDP416     -0.4370
      8  O2A      -56.8910  -10.7430  -78.3350 O.2   416  GDP416     -0.5169
      9  O5'      -54.4260  -10.5860  -79.0690 O.3   416  GDP416     -0.3111
     10  C5'      -54.5430   -9.7430  -80.2190 C.3   416  GDP416      0.1813
     11  C4'      -53.7360  -10.3710  -81.3490 C.3   416  GDP416      0.1799
     12  O4'      -52.3410  -10.3650  -81.0220 O.3   416  GDP416     -0.3326
     13  C3'      -54.1210  -11.8290  -81.5350 C.3   416  GDP416      0.2158
     14  O3'      -54.0340  -12.1340  -82.9230 O.3   416  GDP416     -0.2175
     15  C2'      -53.0250  -12.5900  -80.8140 C.3   416  GDP416      0.2310
     16  O2'      -52.8140  -13.9230  -81.3180 O.3   416  GDP416     -0.2158
     17  C1'      -51.8210  -11.6980  -81.0570 C.3   416  GDP416      0.2293
     18  N9       -50.8420  -11.9220  -79.9750 N.pl3 416  GDP416     -0.2354
     19  C8       -51.0920  -11.9050  -78.6480 C.3   416  GDP416      0.2246
     20  N7       -49.9580  -12.1430  -77.9500 N.2   416  GDP416     -0.2322
     21  C5       -48.9600  -12.3070  -78.8420 C.2   416  GDP416      0.2182
     22  C6       -47.5100  -12.5960  -78.7790 C.1   416  GDP416      0.2372
     23  O6       -46.9400  -12.7460  -77.6640 O.2   416  GDP416     -0.2069
     24  N1       -46.8450  -12.6990  -79.9460 N.2   416  GDP416     -0.2485
     25  C2       -47.4560  -12.5540  -81.1490 C.1   416  GDP416      0.2531
     26  N2       -46.7420  -12.6740  -82.2940 N.pl3 416  GDP416     -0.0226
     27  N3       -48.7810  -12.2940  -81.2690 N.2   416  GDP416     -0.3074
     28  C4       -49.5550  -12.1660  -80.1720 C.2   416  GDP416      0.2300
@<TRIPOS>BOND
     1    14    13    1
     2    26    25    1
     3    13    11    1
     4    13    15    1
     5    11    12    1
     6    11    10    1
     7    16    15    1
     8    27    25    2
     9    27    28    2
    10    25    24    2
    11    17    12    1
    12    17    15    1
    13    17    18    1
    14    10     9    1
    15    28    18    1
    16    28    21    1
    17    18    19    1
    18    24    22    2
    19     9     6    1
    20    21    22    1
    21    21    20    2
    22    22    23    2
    23    19    20    1
    24     8     6    2
    25     6     5    1
    26     6     7    1
    27     5     1    1
    28     4     1    2
    29     1     3    1
    30     1     2    1
