@<TRIPOS>MOLECULE
3pen_5GP_A_1.pdb
 24 26 0 0 0
SMALL
GASTEIGER

@<TRIPOS>ATOM
      1  P        -74.1130  -20.9850  -66.8300 P.3     1  5GP1        0.5327
      2  O1P      -75.3810  -20.1900  -67.0700 O.3     1  5GP1       -0.1145
      3  O2P      -73.0420  -20.7590  -67.8860 O.2     1  5GP1       -0.2224
      4  O3P      -74.3610  -22.4390  -66.4790 O.3     1  5GP1       -0.1145
      5  O5'      -73.4870  -20.3840  -65.4580 O.3     1  5GP1       -0.2675
      6  C5'      -73.1880  -18.9910  -65.2940 C.3     1  5GP1        0.1859
      7  C4'      -72.5880  -18.6750  -63.9170 C.3     1  5GP1        0.1801
      8  O4'      -73.5290  -18.9190  -62.8580 O.3     1  5GP1       -0.3326
      9  C3'      -71.3510  -19.4990  -63.5880 C.3     1  5GP1        0.2158
     10  O3'      -70.3880  -18.6320  -62.9710 O.3     1  5GP1       -0.2175
     11  C2'      -71.8260  -20.5240  -62.5720 C.3     1  5GP1        0.2310
     12  O2'      -70.7810  -20.9090  -61.6640 O.3     1  5GP1       -0.2158
     13  C1'      -72.9680  -19.8000  -61.8710 C.3     1  5GP1        0.2293
     14  N9       -74.0250  -20.7280  -61.3800 N.pl3   1  5GP1       -0.2354
     15  C8       -74.7770  -21.5520  -62.1300 C.3     1  5GP1        0.2246
     16  N7       -75.6350  -22.2210  -61.3180 N.2     1  5GP1       -0.2322
     17  C5       -75.4210  -21.8020  -60.0520 C.2     1  5GP1        0.2182
     18  C6       -75.9870  -22.1300  -58.8220 C.1     1  5GP1        0.2372
     19  O6       -76.9080  -22.9850  -58.7540 O.2     1  5GP1       -0.2069
     20  N1       -75.5350  -21.5160  -57.7100 N.2     1  5GP1       -0.2485
     21  C2       -74.5480  -20.5950  -57.7660 C.1     1  5GP1        0.2531
     22  N2       -74.1020  -19.9910  -56.6280 N.pl3   1  5GP1       -0.0226
     23  N3       -73.9870  -20.2690  -58.9580 N.2     1  5GP1       -0.3074
     24  C4       -74.4120  -20.8520  -60.1020 C.2     1  5GP1        0.2300
@<TRIPOS>BOND
     1     3     1    2
     2     2     1    1
     3     1     4    1
     4     1     5    1
     5     5     6    1
     6     6     7    1
     7     7     9    1
     8     7     8    1
     9     9    10    1
    10     9    11    1
    11     8    13    1
    12    11    13    1
    13    11    12    1
    14    15    14    1
    15    15    16    1
    16    13    14    1
    17    14    24    1
    18    16    17    2
    19    24    17    1
    20    24    23    2
    21    17    18    1
    22    23    21    2
    23    18    19    2
    24    18    20    2
    25    21    20    2
    26    21    22    1
