@<TRIPOS>MOLECULE
3peo_CU9_A_1.pdb
 48 54 0 0 0
SMALL
GASTEIGER

@<TRIPOS>ATOM
      1  N1       -40.8810  -42.0540   10.6160 N.4   301  CU9301      0.3914
      2  C2       -41.8120  -42.7730   11.5420 C.3   301  CU9301     -0.0679
      3  C3       -42.7080  -41.9590   12.4740 C.3   301  CU9301      0.0039
      4  C4       -42.5350  -40.4610   12.3100 C.ar  301  CU9301     -0.0269
      5  C5       -41.8790  -39.8850   11.2100 C.ar  301  CU9301     -0.0415
      6  C6       -41.3280  -40.7310   10.1000 C.3   301  CU9301     -0.0268
      7  C7       -43.0580  -39.6880   13.3410 C.ar  301  CU9301      0.0354
      8  C8       -42.9660  -38.3010   13.2920 C.ar  301  CU9301      0.1726
      9  C9       -42.3370  -37.7220   12.2000 C.ar  301  CU9301      0.1787
     10  C10      -41.7810  -38.4720   11.1610 C.ar  301  CU9301      0.0341
     11  O11      -42.2650  -36.3710   12.2500 O.3   301  CU9301     -0.4474
     12  C12      -41.7140  -35.5590   11.2930 C.ar  301  CU9301      0.1788
     13  C13      -40.5070  -35.0620   11.6550 C.ar  301  CU9301      0.1729
     14  C14      -39.7910  -34.2070   10.8170 C.ar  301  CU9301      0.0397
     15  C15      -40.3520  -33.8990    9.5970 C.ar  301  CU9301     -0.0010
     16  C16      -41.6130  -34.4170    9.2160 C.ar  301  CU9301     -0.0207
     17  C17      -42.3140  -35.2690   10.0640 C.ar  301  CU9301      0.0363
     18  C18      -42.1820  -34.0530    7.8850 C.3   301  CU9301      0.0105
     19  C19      -43.5710  -33.4100    7.8070 C.3   301  CU9301     -0.0238
     20  N20      -43.4600  -31.9280    7.7110 N.4   301  CU9301      0.3914
     21  C21      -42.8460  -31.5000    6.4290 C.3   301  CU9301     -0.0679
     22  C22      -43.6770  -31.8800    5.1900 C.3   301  CU9301      0.0040
     23  C23      -44.2720  -33.2830    5.3670 C.ar  301  CU9301     -0.0240
     24  C24      -44.2470  -33.9810    6.6000 C.ar  301  CU9301     -0.0069
     25  C25      -44.9250  -33.8530    4.2810 C.ar  301  CU9301      0.0355
     26  C26      -45.5100  -35.1230    4.3500 C.ar  301  CU9301      0.1751
     27  C27      -45.4710  -35.8120    5.5410 C.ar  301  CU9301      0.2062
     28  C28      -44.8690  -35.2450    6.6650 C.ar  301  CU9301      0.1757
     29  O29      -44.8600  -35.9770    7.8460 O.3   301  CU9301     -0.4507
     30  C30      -44.2580  -37.1740    8.0680 C.ar  301  CU9301      0.1454
     31  C31      -44.8090  -38.0270    9.0350 C.ar  301  CU9301      0.0372
     32  C32      -44.1930  -39.2580    9.3090 C.ar  301  CU9301     -0.0012
     33  C33      -43.0470  -39.6290    8.6280 C.ar  301  CU9301     -0.0237
     34  C34      -42.4850  -38.7550    7.6690 C.ar  301  CU9301     -0.0012
     35  C35      -43.1000  -37.5360    7.3580 C.ar  301  CU9301      0.0372
     36  C36      -42.3480  -40.9400    8.9210 C.3   301  CU9301      0.0103
     37  O37      -43.4820  -37.4870   14.3220 O.3   301  CU9301     -0.4684
     38  C38      -44.2100  -38.0840   15.4320 C.3   301  CU9301      0.2526
     39  O39      -40.1240  -35.4480   12.9070 O.3   301  CU9301     -0.4684
     40  O40      -46.1520  -35.7330    3.2710 O.3   301  CU9301     -0.4683
     41  C41      -46.2720  -35.1290    1.9580 C.3   301  CU9301      0.2526
     42  O42      -46.0700  -37.0650    5.5520 O.3   301  CU9301     -0.4654
     43  C43      -39.6540  -41.9490   11.3950 C.3   301  CU9301     -0.0953
     44  C44      -44.8160  -31.3710    7.9740 C.3   301  CU9301     -0.0953
     45  C45      -42.6630  -31.3840    8.8180 C.3   301  CU9301     -0.0953
     46  C46      -47.1410  -37.4590    6.3990 C.3   301  CU9301      0.2528
     47  C47      -40.5860  -42.9370    9.4520 C.3   301  CU9301     -0.0953
     48  C48      -38.7960  -35.2080   13.3560 C.3   301  CU9301      0.2526
@<TRIPOS>BOND
     1    41    40    1
     2    40    26    1
     3    25    26   ar
     4    25    23   ar
     5    26    27   ar
     6    22    23    1
     7    22    21    1
     8    23    24   ar
     9    27    42    1
    10    27    28   ar
    11    42    46    1
    12    21    20    1
    13    24    28   ar
    14    24    19    1
    15    28    29    1
    16    35    34   ar
    17    35    30   ar
    18    34    33   ar
    19    20    19    1
    20    20    44    1
    21    20    45    1
    22    19    18    1
    23    29    30    1
    24    18    16    1
    25    30    31   ar
    26    33    36    1
    27    33    32   ar
    28    36     6    1
    29    31    32   ar
    30    16    15   ar
    31    16    17   ar
    32    47     1    1
    33    15    14   ar
    34    17    12   ar
    35     6     1    1
    36     6     5    1
    37     1    43    1
    38     1     2    1
    39    14    13   ar
    40    10     5   ar
    41    10     9   ar
    42     5     4   ar
    43    12    13   ar
    44    12    11    1
    45     2     3    1
    46    13    39    1
    47     9    11    1
    48     9     8   ar
    49     4     3    1
    50     4     7   ar
    51    39    48    1
    52     8     7   ar
    53     8    37    1
    54    37    38    1
