@<TRIPOS>MOLECULE
3peq_JZR_A_1.pdb
 18 18 0 0 0
SMALL
GASTEIGER

@<TRIPOS>ATOM
      1  C1        35.8160   24.6160   69.5810 C.3   478  JZR478      0.2695
      2  O1        35.3830   23.8010   68.5110 O.3   478  JZR478     -0.3286
      3  C2        37.2950   24.9020   69.3860 C.3   478  JZR478      0.2406
      4  O2        38.0110   23.6790   69.5020 O.3   478  JZR478     -0.2149
      5  C3        37.7780   25.8640   70.4590 C.3   478  JZR478      0.2198
      6  O3        39.1140   26.2620   70.1860 O.3   478  JZR478     -0.2174
      7  C4        36.9180   27.1080   70.4710 C.3   478  JZR478      0.2144
      8  O4        37.2900   27.8840   71.5960 O.3   478  JZR478     -0.2176
      9  C5        35.4650   26.7050   70.6250 C.3   478  JZR478      0.1835
     10  O5        35.1010   25.8470   69.5490 O.3   478  JZR478     -0.3256
     11  C6        34.5500   27.9070   70.5620 C.3   478  JZR478      0.2142
     12  O6        34.6830   28.5240   69.2950 O.3   478  JZR478     -0.2176
     13  C1'       34.2300   23.0950   68.9340 C.3   478  JZR478      0.1449
     14  C2'       33.6470   22.4100   67.7210 C.3   478  JZR478      0.0322
     15  C3'       32.5150   21.5090   68.1400 C.3   478  JZR478      0.0026
     16  C4'       31.1930   22.1440   67.7940 C.3   478  JZR478      0.0001
     17  C5'       30.1420   21.0690   67.7070 C.3   478  JZR478      0.0000
     18  C6'       28.7860   21.7160   67.8030 C.3   478  JZR478      0.0000
@<TRIPOS>BOND
     1    17    16    1
     2    17    18    1
     3    14    15    1
     4    14    13    1
     5    16    15    1
     6     2    13    1
     7     2     1    1
     8    12    11    1
     9     3     4    1
    10     3     1    1
    11     3     5    1
    12    10     1    1
    13    10     9    1
    14     6     5    1
    15     5     7    1
    16     7     9    1
    17     7     8    1
    18    11     9    1
