@<TRIPOS>MOLECULE
3peq_3EQ_A_1.pdb
 38 41 0 0 0
SMALL
GASTEIGER

@<TRIPOS>ATOM
      1  C1        31.6240    0.1810   60.9360 C.3     1  3EQ1        0.0001
      2  C2        32.5840    0.8410   59.9750 C.3     1  3EQ1        0.0018
      3  C3        32.6520    2.3400   60.1770 C.3     1  3EQ1        0.0234
      4  C4        33.7940    2.8790   59.3350 C.3     1  3EQ1        0.1158
      5  N5        33.8360    4.3690   59.2570 N.pl3   1  3EQ1       -0.1909
      6  C6        32.7260    4.9510   58.5280 C.ar    1  3EQ1        0.0648
      7  C7        31.6490    5.4990   59.1920 C.ar    1  3EQ1        0.0158
      8  C8        30.5960    6.0290   58.4770 C.ar    1  3EQ1        0.0013
      9  C9        30.6200    5.9880   57.1000 C.ar    1  3EQ1       -0.0002
     10  C10       31.6790    5.4320   56.4120 C.ar    1  3EQ1       -0.0027
     11  C11       32.7430    4.9130   57.1420 C.ar    1  3EQ1       -0.0069
     12  C12       33.9270    4.2950   56.4640 C.3     1  3EQ1        0.0324
     13  C13       31.5960    5.3970   54.9590 C.ar    1  3EQ1       -0.0002
     14  C14       31.2290    6.5070   54.2250 C.ar    1  3EQ1        0.0005
     15  C15       31.1290    6.4580   52.8510 C.ar    1  3EQ1        0.0061
     16  C16       31.3940    5.2930   52.1670 C.ar    1  3EQ1        0.0252
     17  S17       31.2640    5.2580   50.3880 S.3     1  3EQ1       -0.1127
     18  C18       32.0740    3.6850   50.0730 C.3     1  3EQ1        0.0742
     19  C19       31.7600    4.1800   52.8940 C.ar    1  3EQ1        0.0061
     20  C20       31.8530    4.2290   54.2670 C.ar    1  3EQ1        0.0005
     21  S21       34.2960    5.0500   60.7570 S.O2    1  3EQ1        0.0766
     22  O22       35.3690    4.2350   61.2910 O.2     1  3EQ1       -0.1497
     23  O23       33.1260    5.2470   61.5970 O.2     1  3EQ1       -0.1497
     24  C24       35.0150    6.6580   60.4440 C.ar    1  3EQ1        0.1256
     25  C25       34.4060    7.7220   61.0710 C.ar    1  3EQ1        0.0233
     26  C26       34.8990    8.9990   60.9080 C.ar    1  3EQ1        0.0383
     27  C27       36.0100    9.2080   60.1180 C.ar    1  3EQ1        0.1394
     28  O28       36.5460   10.4800   59.9330 O.3     1  3EQ1       -0.4637
     29  C29       35.6150   11.4680   60.3820 C.3     1  3EQ1        0.3186
     30  C30       35.8700   11.9090   61.8230 C.2     1  3EQ1        0.4084
     31  O31       35.1810   12.8990   62.1740 O.co2   1  3EQ1       -0.2415
     32  O32       36.6980   11.2520   62.5080 O.co2   1  3EQ1       -0.2415
     33  C33       36.6250    8.1380   59.4930 C.ar    1  3EQ1        0.0353
     34  C34       37.7380    8.3530   58.7050 C.ar    1  3EQ1        0.0031
     35  C35       38.3620    7.3030   58.0690 C.ar    1  3EQ1        0.0001
     36  C36       37.8750    6.0230   58.2190 C.ar    1  3EQ1        0.0000
     37  C37       36.7630    5.8090   59.0050 C.ar    1  3EQ1        0.0014
     38  C38       36.1280    6.8520   59.6490 C.ar    1  3EQ1        0.0218
@<TRIPOS>BOND
     1    18    17    1
     2    17    16    1
     3    16    15   ar
     4    16    19   ar
     5    15    14   ar
     6    19    20   ar
     7    14    13   ar
     8    20    13   ar
     9    13    10    1
    10    10     9   ar
    11    10    11   ar
    12    12    11    1
    13     9     8   ar
    14    11     6   ar
    15    35    36   ar
    16    35    34   ar
    17    36    37   ar
    18     8     7   ar
    19     6     7   ar
    20     6     5    1
    21    34    33   ar
    22    37    38   ar
    23     5     4    1
    24     5    21    1
    25     4     3    1
    26    33    38   ar
    27    33    27   ar
    28    38    24   ar
    29    28    27    1
    30    28    29    1
    31     2     3    1
    32     2     1    1
    33    27    26   ar
    34    29    30    1
    35    24    21    1
    36    24    25   ar
    37    21    22    2
    38    21    23    2
    39    26    25   ar
    40    30    31   ar
    41    30    32   ar
