@<TRIPOS>MOLECULE
3pf1_C8E_A_1.pdb
 16 15 0 0 0
SMALL
GASTEIGER

@<TRIPOS>ATOM
      1  C1       -18.8360  -24.7650   21.4090 C.3   505  C8E505      0.0000
      2  C2       -18.3520  -23.4090   21.9220 C.3   505  C8E505      0.0000
      3  C3       -19.4310  -22.7060   22.7320 C.3   505  C8E505      0.0000
      4  C4       -20.3610  -21.9690   21.7780 C.3   505  C8E505      0.0000
      5  C5       -20.8200  -20.6300   22.3490 C.3   505  C8E505      0.0001
      6  C6       -22.0590  -20.1350   21.6070 C.3   505  C8E505      0.0026
      7  C7       -21.7560  -18.9460   20.6930 C.3   505  C8E505      0.0321
      8  C8       -23.0390  -18.4200   20.0580 C.3   505  C8E505      0.1423
      9  O9       -23.0810  -17.0090   20.1050 O.3   505  C8E505     -0.3511
     10  C10      -23.4510  -16.4080   18.8850 C.3   505  C8E505      0.1741
     11  C11      -24.3550  -15.2120   19.1740 C.3   505  C8E505      0.1742
     12  O12      -24.7300  -14.5600   17.9770 O.3   505  C8E505     -0.3484
     13  C13      -26.0320  -14.9220   17.5590 C.3   505  C8E505      0.1742
     14  C14      -26.0310  -15.3580   16.0910 C.3   505  C8E505      0.1742
     15  O15      -27.3420  -15.3130   15.5560 O.3   505  C8E505     -0.3484
     16  C16      -27.6080  -16.3560   14.6500 C.3   505  C8E505      0.1742
@<TRIPOS>BOND
     1    16    15    1
     2    15    14    1
     3    14    13    1
     4    13    12    1
     5    12    11    1
     6    10    11    1
     7    10     9    1
     8     8     9    1
     9     8     7    1
    10     7     6    1
    11     1     2    1
    12     6     5    1
    13     4     5    1
    14     4     3    1
    15     2     3    1
