@<TRIPOS>MOLECULE
3pf5_NUC_S_1.pdb
 17 18 0 0 0
SMALL
GASTEIGER

@<TRIPOS>ATOM
      1  O5'       31.5700   41.5390   22.2700 O.3     1  RU1        -0.2176
      2  C5'       32.2600   41.8480   21.0630 C.3     1  RU1         0.2142
      3  C4'       31.3370   42.1810   19.8940 C.3     1  RU1         0.1829
      4  O4'       30.6620   40.9980   19.3670 O.3     1  RU1        -0.3318
      5  C3'       30.1780   43.1520   20.1830 C.3     1  RU1         0.2159
      6  O3'       30.5180   44.4980   19.7760 O.3     1  RU1        -0.2175
      7  C2'       28.9640   42.5610   19.4190 C.3     1  RU1         0.2319
      8  O2'       28.2010   43.4930   18.6610 O.3     1  RU1        -0.2157
      9  C1'       29.6410   41.5220   18.5260 C.3     1  RU1         0.2401
     10  N1        28.7460   40.4550   17.8840 N.am    1  RU1        -0.1766
     11  C2        27.9200   40.8540   16.8180 C.1     1  RU1         0.2845
     12  O2        27.8370   42.0030   16.4220 O.2     1  RU1        -0.1918
     13  N3        27.1500   39.8560   16.2550 N.2     1  RU1        -0.2452
     14  C4        27.1340   38.5060   16.6150 C.1     1  RU1         0.2182
     15  O4        26.3850   37.7110   16.0250 O.2     1  RU1        -0.2085
     16  C5        28.0220   38.1550   17.7140 C.2     1  RU1         0.1242
     17  C6        28.7820   39.1130   18.2850 C.2     1  RU1         0.0929
@<TRIPOS>BOND
     1    15    14    2
     2    13    14    2
     3    13    11    2
     4    12    11    2
     5    14    16    1
     6    11    10   am
     7    16    17    2
     8    10    17    1
     9    10     9    1
    10     9     4    1
    11     9     7    1
    12     8     7    1
    13     4     3    1
    14     7     5    1
    15     6     5    1
    16     3     5    1
    17     3     2    1
    18     2     1    1
