@<TRIPOS>MOLECULE
3pfb_ZYC_A_1.pdb
 16 16 0 0 0
SMALL
GASTEIGER

@<TRIPOS>ATOM
      1  CAA       57.3900   51.8450    4.4270 C.3   256  ZYC256      0.0513
      2  CAB       54.7230   43.2970    5.9570 C.3   256  ZYC256      0.2526
      3  OAC       55.3270   50.1540    6.4210 O.2   256  ZYC256     -0.2501
      4  OAD       51.1910   43.5610    4.6540 O.3   256  ZYC256     -0.2833
      5  CAE       54.2470   48.6360    5.2900 C.3   256  ZYC256      0.1142
      6  CAF       53.6590   48.1000    6.4210 C.3   256  ZYC256      0.0381
      7  CAG       51.9020   47.1110    5.0660 C.ar  256  ZYC256     -0.0008
      8  CAH       51.3050   45.9310    4.6320 C.ar  256  ZYC256      0.0449
      9  CAI       53.4770   45.8130    6.4090 C.ar  256  ZYC256      0.0360
     10  CAJ       55.9220   51.5290    3.9820 C.3   256  ZYC256      0.2086
     11  OAK       53.4050   43.4790    6.4730 O.3   256  ZYC256     -0.4682
     12  OAL       55.6180   50.1270    4.0930 O.3   256  ZYC256     -0.4485
     13  CAM       55.0990   49.6970    5.3070 C.2   256  ZYC256      0.3173
     14  CAN       52.9640   47.0190    5.9830 C.ar  256  ZYC256     -0.0184
     15  CAO       51.7930   44.6970    5.0910 C.ar  256  ZYC256      0.2293
     16  CAP       52.8840   44.6410    5.9830 C.ar  256  ZYC256      0.1771
@<TRIPOS>BOND
     1    10    12    1
     2    10     1    1
     3    12    13    1
     4     8     7   ar
     5     8    15   ar
     6     4    15    1
     7     7    14   ar
     8    15    16   ar
     9     5    13    1
    10     5     6    1
    11    13     3    2
    12     2    11    1
    13    14     9   ar
    14    14     6    1
    15    16     9   ar
    16    16    11    1
