@<TRIPOS>MOLECULE
3pfc_FER_A_1.pdb
 14 14 0 0 0
SMALL
GASTEIGER

@<TRIPOS>ATOM
      1  C4       -19.4470   -2.7470  -17.1630 C.ar  250  FER250      0.2293
      2  C5       -19.0850   -3.9940  -17.6730 C.ar  250  FER250      0.0452
      3  C6       -19.9370   -5.1210  -17.4430 C.ar  250  FER250      0.0035
      4  C3       -20.6120   -2.6630  -16.4530 C.ar  250  FER250      0.1774
      5  C2       -21.3260   -3.8120  -16.1370 C.ar  250  FER250      0.0402
      6  C1       -21.1940   -4.9790  -16.8150 C.ar  250  FER250      0.0034
      7  C10      -22.3280   -1.2490  -15.8950 C.3   250  FER250      0.2526
      8  C7       -22.0340   -6.0450  -16.4290 C.2   250  FER250      0.0069
      9  C8       -22.0140   -7.2780  -17.0490 C.2   250  FER250      0.0861
     10  C9       -22.8470   -8.3240  -16.6660 C.2   250  FER250      0.3880
     11  O1       -23.6260   -8.2250  -15.7100 O.co2 250  FER250     -0.2405
     12  O2       -23.1080   -9.1240  -17.6470 O.co2 250  FER250     -0.2405
     13  O4       -18.6970   -1.6100  -17.3360 O.3   250  FER250     -0.2833
     14  O3       -20.9510   -1.4610  -15.9570 O.3   250  FER250     -0.4682
@<TRIPOS>BOND
     1     2     3   ar
     2     2     1   ar
     3    12    10   ar
     4     3     6   ar
     5    13     1    1
     6     1     4   ar
     7     9    10    1
     8     9     8    2
     9     6     8    1
    10     6     5   ar
    11    10    11   ar
    12     4     5   ar
    13     4    14    1
    14    14     7    1
