@<TRIPOS>MOLECULE
3pff_ADP_A_1.pdb
 27 29 0 0 0
SMALL
GASTEIGER

@<TRIPOS>ATOM
      1  PB        29.9360   49.3660   58.2860 P.3   833  ADP833      0.5373
      2  O1B       29.8210   48.0130   57.6390 O.3   833  ADP833     -0.1143
      3  O2B       29.9050   50.4660   57.2780 O.2   833  ADP833     -0.2221
      4  O3B       29.0050   49.6260   59.4680 O.3   833  ADP833     -0.1143
      5  PA        32.5390   50.3790   59.2090 P.3   833  ADP833      0.2231
      6  O1A       32.2610   51.6540   58.4750 O.2   833  ADP833     -0.5169
      7  O2A       33.8930   49.7340   59.0980 O.3   833  ADP833     -0.4370
      8  O3A       31.4240   49.2350   58.9260 O.3   833  ADP833     -0.2261
      9  O5'       32.3570   50.7090   60.7690 O.3   833  ADP833     -0.3111
     10  C5'       31.1600   51.3090   61.2310 C.3   833  ADP833      0.1813
     11  C4'       31.5590   52.5000   62.0820 C.3   833  ADP833      0.1821
     12  O4'       32.5000   52.0910   63.0800 O.3   833  ADP833     -0.3135
     13  C3'       32.2710   53.5600   61.2700 C.3   833  ADP833      0.2184
     14  O3'       31.3820   54.5190   60.7040 O.3   833  ADP833     -0.2174
     15  C2'       33.1970   54.2080   62.2740 C.3   833  ADP833      0.2570
     16  O2'       32.4900   55.2800   62.9000 O.3   833  ADP833     -0.2130
     17  C1'       33.4670   53.1240   63.3010 C.3   833  ADP833      0.3186
     18  N9        34.8110   52.5380   63.0690 N.pl3 833  ADP833     -0.1439
     19  C8        35.0750   51.5240   62.2150 C.3   833  ADP833      0.3377
     20  N7        36.3950   51.2080   62.2340 N.2   833  ADP833     -0.2095
     21  C5        36.9960   52.0320   63.1130 C.2   833  ADP833      0.2526
     22  C6        38.3790   52.2280   63.6050 C.2   833  ADP833      0.4393
     23  N6        39.3910   51.4590   63.1390 N.pl3 833  ADP833      0.2180
     24  N1        38.5900   53.1900   64.5260 N.2   833  ADP833      0.0021
     25  C2        37.5860   53.9560   64.9860 C.3   833  ADP833      0.5254
     26  N3        36.3100   53.8310   64.5830 N.2   833  ADP833     -0.0055
     27  C4        35.9570   52.9030   63.6660 C.2   833  ADP833      0.3518
@<TRIPOS>BOND
     1     3     1    2
     2     2     1    1
     3     1     8    1
     4     1     4    1
     5     6     5    2
     6     8     5    1
     7     7     5    1
     8     5     9    1
     9    14    13    1
    10     9    10    1
    11    10    11    1
    12    13    11    1
    13    13    15    1
    14    11    12    1
    15    19    20    1
    16    19    18    1
    17    20    21    2
    18    15    16    1
    19    15    17    1
    20    18    17    1
    21    18    27    1
    22    12    17    1
    23    21    22    1
    24    21    27    1
    25    23    22    1
    26    22    24    2
    27    27    26    2
    28    24    25    1
    29    26    25    1
