@<TRIPOS>MOLECULE
3pfg_SAM_A_1.pdb
 27 29 0 0 0
SMALL
GASTEIGER

@<TRIPOS>ATOM
      1  N         -5.2490    0.7070   19.2290 N.3   264  SAM264     -0.1208
      2  CA        -6.7140    0.5430   19.5720 C.3   264  SAM264      0.1952
      3  C         -7.2270    1.7970   20.2570 C.2   264  SAM264      0.3819
      4  O         -6.4530    2.7460   20.4390 O.co2 264  SAM264     -0.2441
      5  OXT       -8.4270    1.8010   20.6160 O.co2 264  SAM264     -0.2441
      6  CB        -7.0100   -0.7390   20.3440 C.3   264  SAM264      0.0414
      7  CG        -6.3950   -0.7250   21.7490 C.3   264  SAM264      0.0503
      8  SD        -7.0240   -2.1270   22.7620 S.3   264  SAM264     -0.1761
      9  CE        -6.6690   -1.4710   24.4010 C.3   264  SAM264      0.0590
     10  C5'       -5.7300   -3.3830   22.6220 C.3   264  SAM264      0.0806
     11  C4'       -5.7680   -4.0620   21.2600 C.3   264  SAM264      0.1622
     12  O4'       -4.6390   -4.9110   21.1340 O.3   264  SAM264     -0.3153
     13  C3'       -7.0310   -4.9190   21.0520 C.3   264  SAM264      0.2168
     14  O3'       -7.6840   -4.5400   19.8390 O.3   264  SAM264     -0.2175
     15  C2'       -6.4170   -6.3200   20.9880 C.3   264  SAM264      0.2569
     16  O2'       -7.0890   -7.3200   20.2160 O.3   264  SAM264     -0.2130
     17  C1'       -5.0990   -6.0030   20.3480 C.3   264  SAM264      0.3185
     18  N9        -4.0570   -7.0140   20.4740 N.pl3 264  SAM264     -0.1439
     19  C8        -3.7080   -7.7110   21.6110 C.3   264  SAM264      0.3377
     20  N7        -2.6680   -8.5370   21.4160 N.2   264  SAM264     -0.2095
     21  C5        -2.3280   -8.4270   20.0800 C.2   264  SAM264      0.2526
     22  C6        -1.3620   -9.0040   19.2480 C.2   264  SAM264      0.4393
     23  N6        -0.4720   -9.9260   19.6510 N.pl3 264  SAM264      0.2180
     24  N1        -1.3280   -8.6020   17.9460 N.2   264  SAM264      0.0021
     25  C2        -2.2270   -7.6730   17.4780 C.3   264  SAM264      0.5254
     26  N3        -3.1850   -7.0360   18.2350 N.2   264  SAM264     -0.0055
     27  C4        -3.1740   -7.4760   19.5270 C.2   264  SAM264      0.3518
@<TRIPOS>BOND
     1    25    24    1
     2    25    26    1
     3    24    22    2
     4    26    27    2
     5     1     2    1
     6    22    23    1
     7    22    21    1
     8    27    21    1
     9    27    18    1
    10     2     3    1
    11     2     6    1
    12    14    13    1
    13    21    20    2
    14    16    15    1
    15     3     4   ar
    16     3     5   ar
    17     6     7    1
    18    17    18    1
    19    17    15    1
    20    17    12    1
    21    18    19    1
    22    15    13    1
    23    13    11    1
    24    12    11    1
    25    11    10    1
    26    20    19    1
    27     7     8    1
    28    10     8    1
    29     8     9    1
