@<TRIPOS>MOLECULE
3pfg_TLO_A_1.pdb
 31 33 0 0 0
SMALL
GASTEIGER

@<TRIPOS>ATOM
      1  N1        -4.9720    5.2070   35.6920 N.am  301  TLO301     -0.1794
      2  C2        -3.8840    5.8470   36.1700 C.1   301  TLO301      0.2844
      3  O2        -3.7850    7.1060   36.0980 O.2   301  TLO301     -0.1918
      4  N3        -2.8690    5.1680   36.7760 N.2   301  TLO301     -0.2455
      5  C4        -2.9470    3.8060   36.8560 C.1   301  TLO301      0.2134
      6  O4        -1.9610    3.2530   37.3800 O.2   301  TLO301     -0.2088
      7  C5        -4.0590    3.1080   36.3540 C.2   301  TLO301      0.0891
      8  C6        -5.0570    3.8590   35.7520 C.2   301  TLO301      0.0877
      9  PA        -9.3580    1.8160   32.7090 P.3   301  TLO301      0.2197
     10  PB        -7.7600    2.4990   30.3180 P.3   301  TLO301      0.2746
     11  CG        -7.3760    0.3260   28.9490 C.ar  301  TLO301      0.1446
     12  CZ        -5.7800   -1.8430   28.4160 C.ar  301  TLO301      0.0002
     13  C1'       -6.0150    5.9330   34.9630 C.3   301  TLO301      0.2090
     14  O1A       -9.0730    0.7490   33.7500 O.3   301  TLO301     -0.4371
     15  O1B       -6.2990    2.7380   30.3280 O.3   301  TLO301     -0.4272
     16  C2'       -5.9330    5.6070   33.4540 C.3   301  TLO301      0.0874
     17  O2A      -10.6060    1.6990   31.8580 O.2   301  TLO301     -0.5170
     18  O2B       -8.6700    3.7090   30.1510 O.2   301  TLO301     -0.5080
     19  C3'       -7.3890    5.5980   33.0060 C.3   301  TLO301      0.1857
     20  O3'       -7.8080    6.9840   32.8170 O.3   301  TLO301     -0.2203
     21  O3A       -8.0740    1.7970   31.7400 O.3   301  TLO301     -0.2612
     22  O3B       -8.1860    1.3900   29.2470 O.3   301  TLO301     -0.4398
     23  C4'       -8.1060    5.1630   34.2460 C.3   301  TLO301      0.1773
     24  O4'       -7.2710    5.4780   35.3660 O.3   301  TLO301     -0.3339
     25  C5'       -8.2620    3.6610   34.2410 C.3   301  TLO301      0.1812
     26  O5'       -9.2940    3.3080   33.2780 O.3   301  TLO301     -0.3112
     27  C5M       -4.0930    1.5860   36.5150 C.3   301  TLO301      0.0462
     28  CD1       -7.4140   -0.8030   29.7780 C.ar  301  TLO301      0.0373
     29  CD2       -6.5460    0.3860   27.8510 C.ar  301  TLO301      0.0373
     30  CE1       -6.6090   -1.9020   29.5290 C.ar  301  TLO301      0.0031
     31  CE2       -5.7500   -0.7190   27.6030 C.ar  301  TLO301      0.0031
@<TRIPOS>BOND
     1    31    29   ar
     2    31    12   ar
     3    29    11   ar
     4    12    30   ar
     5    11    22    1
     6    11    28   ar
     7    22    10    1
     8    30    28   ar
     9    18    10    2
    10    10    15    1
    11    10    21    1
    12    21     9    1
    13    17     9    2
    14     9    26    1
    15     9    14    1
    16    20    19    1
    17    19    16    1
    18    19    23    1
    19    26    25    1
    20    16    13    1
    21    25    23    1
    22    23    24    1
    23    13    24    1
    24    13     1    1
    25     1     8    1
    26     1     2   am
    27     8     7    2
    28     3     2    2
    29     2     4    2
    30     7    27    1
    31     7     5    1
    32     4     5    2
    33     5     6    2
