@<TRIPOS>MOLECULE
3pfh_SAH_A_1.pdb
 26 28 0 0 0
SMALL
GASTEIGER

@<TRIPOS>ATOM
      1  N         -8.0900   -0.0500   24.8150 N.3   264  SAH264     -0.1208
      2  CA        -9.0730    0.1010   23.7050 C.3   264  SAH264      0.1952
      3  CB       -10.1270   -1.0010   23.7140 C.3   264  SAH264      0.0422
      4  CG       -10.8940   -1.2680   25.0490 C.3   264  SAH264      0.0597
      5  SD       -12.0520   -2.6140   24.8650 S.3   264  SAH264     -0.1375
      6  C         -9.8840    1.3550   23.8050 C.2   264  SAH264      0.3819
      7  O         -9.6940    2.2050   24.6950 O.co2 264  SAH264     -0.2441
      8  OXT      -10.7960    1.5030   22.9760 O.co2 264  SAH264     -0.2441
      9  C5'      -11.3730   -4.0710   25.6660 C.3   264  SAH264      0.0899
     10  C4'      -10.0950   -4.5690   24.9590 C.3   264  SAH264      0.1630
     11  O4'       -9.4270   -5.5580   25.7460 O.3   264  SAH264     -0.3153
     12  C3'      -10.5630   -5.2720   23.6860 C.3   264  SAH264      0.2168
     13  O3'       -9.8600   -4.9090   22.4890 O.3   264  SAH264     -0.2175
     14  C2'      -10.2790   -6.7380   24.0200 C.3   264  SAH264      0.2569
     15  O2'      -10.1090   -7.5480   22.8530 O.3   264  SAH264     -0.2130
     16  C1'       -9.0150   -6.5820   24.8490 C.3   264  SAH264      0.3185
     17  N9        -8.6430   -7.7220   25.7120 N.pl3 264  SAH264     -0.1439
     18  C8        -9.4240   -8.4630   26.5120 C.3   264  SAH264      0.3377
     19  N7        -8.6980   -9.3910   27.2070 N.2   264  SAH264     -0.2095
     20  C5        -7.4120   -9.2410   26.8070 C.2   264  SAH264      0.2526
     21  C6        -6.1090   -9.8600   27.1090 C.2   264  SAH264      0.4393
     22  N6        -6.0340  -10.8810   27.9980 N.pl3 264  SAH264      0.2180
     23  N1        -5.0220   -9.3550   26.4640 N.2   264  SAH264      0.0021
     24  C2        -5.0550   -8.3620   25.5900 C.3   264  SAH264      0.5254
     25  N3        -6.2000   -7.7330   25.2590 N.2   264  SAH264     -0.0055
     26  C4        -7.3590   -8.1080   25.8470 C.2   264  SAH264      0.3518
@<TRIPOS>BOND
     1    13    12    1
     2    15    14    1
     3     8     6   ar
     4    12    14    1
     5    12    10    1
     6     2     3    1
     7     2     6    1
     8     2     1    1
     9     3     4    1
    10     6     7   ar
    11    14    16    1
    12    16    17    1
    13    16    11    1
    14     5     4    1
    15     5     9    1
    16    10     9    1
    17    10    11    1
    18    25    24    1
    19    25    26    2
    20    24    23    1
    21    17    26    1
    22    17    18    1
    23    26    20    1
    24    23    21    2
    25    18    19    1
    26    20    21    1
    27    20    19    2
    28    21    22    1
