@<TRIPOS>MOLECULE
3pfh_T3Q_A_1.pdb
 35 37 0 0 0
SMALL
GASTEIGER

@<TRIPOS>ATOM
      1  O4       -22.1080    6.3340   36.6200 O.2   301  T3Q301     -0.2088
      2  C4       -21.9680    5.1910   36.1560 C.1   301  T3Q301      0.2134
      3  N3       -21.6780    4.1460   37.0200 N.2   301  T3Q301     -0.2455
      4  C2       -21.5340    2.9350   36.4610 C.1   301  T3Q301      0.2844
      5  O2       -21.2910    2.0770   37.2740 O.2   301  T3Q301     -0.1918
      6  C5       -22.1080    4.9740   34.7400 C.2   301  T3Q301      0.0891
      7  C5M      -22.4700    6.1000   33.7900 C.3   301  T3Q301      0.0462
      8  C6       -21.9640    3.7170   34.2120 C.2   301  T3Q301      0.0877
      9  N1       -21.6810    2.7090   35.1270 N.am  301  T3Q301     -0.1794
     10  C1'      -21.4700    1.3600   34.5590 C.3   301  T3Q301      0.2090
     11  O4'      -20.6270    1.6290   33.4160 O.3   301  T3Q301     -0.3339
     12  C2'      -22.7740    0.7710   33.9960 C.3   301  T3Q301      0.0874
     13  C3'      -22.1680   -0.0290   32.7990 C.3   301  T3Q301      0.1857
     14  O3'      -21.6540   -1.2820   33.2390 O.3   301  T3Q301     -0.2203
     15  C4'      -21.0680    0.8900   32.2340 C.3   301  T3Q301      0.1773
     16  C5'      -21.5250    1.7230   31.0070 C.3   301  T3Q301      0.1812
     17  O5'      -22.1940    0.9050   30.0670 O.3   301  T3Q301     -0.3112
     18  PA       -21.7860    1.3050   28.5690 P.3   301  T3Q301      0.2189
     19  O1A      -21.7470    2.8110   28.3940 O.3   301  T3Q301     -0.4371
     20  O2A      -22.6850    0.4620   27.6170 O.2   301  T3Q301     -0.5170
     21  O3A      -20.2830    0.7520   28.5230 O.3   301  T3Q301     -0.2703
     22  PB       -18.8970    1.4620   28.0710 P.3   301  T3Q301      0.2208
     23  O1B      -18.2800    2.1690   29.1990 O.3   301  T3Q301     -0.4371
     24  O2B      -19.0120    2.1730   26.6820 O.2   301  T3Q301     -0.5170
     25  O3B      -18.0430    0.1460   27.7210 O.3   301  T3Q301     -0.2858
     26  O4Q      -15.7570   -3.0220   25.6250 O.3   301  T3Q301     -0.2189
     27  C4Q      -16.2610   -2.7160   26.9510 C.3   301  T3Q301      0.1990
     28  C5Q      -17.7680   -2.4850   26.9890 C.3   301  T3Q301      0.1497
     29  O5Q      -18.2170   -2.0650   28.2800 O.3   301  T3Q301     -0.3282
     30  C6Q      -18.4330   -3.8550   26.7060 C.3   301  T3Q301      0.0349
     31  C3Q      -15.5890   -1.4300   27.5040 C.3   301  T3Q301      0.1598
     32  N3Q      -14.1110   -1.4930   27.5780 N.3   301  T3Q301     -0.1273
     33  C2Q      -16.1790   -1.0090   28.8740 C.3   301  T3Q301      0.2282
     34  O2Q      -15.7930    0.3650   29.1140 O.3   301  T3Q301     -0.2160
     35  C1Q      -17.6810   -0.8380   28.7540 C.3   301  T3Q301      0.2729
@<TRIPOS>BOND
     1    26    27    1
     2    24    22    2
     3    30    28    1
     4    27    28    1
     5    27    31    1
     6    28    29    1
     7    31    32    1
     8    31    33    1
     9    20    18    2
    10    25    22    1
    11    25    35    1
    12    22    21    1
    13    22    23    1
    14    29    35    1
    15    19    18    1
    16    21    18    1
    17    18    17    1
    18    35    33    1
    19    33    34    1
    20    17    16    1
    21    16    15    1
    22    15    13    1
    23    15    11    1
    24    13    14    1
    25    13    12    1
    26    11    10    1
    27     7     6    1
    28    12    10    1
    29     8     6    2
    30     8     9    1
    31    10     9    1
    32     6     2    1
    33     9     4   am
    34     2     1    2
    35     2     3    2
    36     4     3    2
    37     4     5    2
