@<TRIPOS>MOLECULE
3pfi_ADP_A_1.pdb
 27 29 0 0 0
SMALL
GASTEIGER

@<TRIPOS>ATOM
      1  PB        31.0690    7.2650  151.7160 P.3   336  ADP336      0.5373
      2  O1B       31.0710    8.2470  152.8530 O.3   336  ADP336     -0.1143
      3  O2B       30.3710    5.9680  152.0440 O.3   336  ADP336     -0.1143
      4  O3B       30.6820    7.8450  150.3730 O.2   336  ADP336     -0.2221
      5  PA        33.6880    6.7920  152.7070 P.3   336  ADP336      0.2231
      6  O1A       34.0930    8.1890  153.1060 O.2   336  ADP336     -0.5169
      7  O2A       33.1790    5.8470  153.7680 O.3   336  ADP336     -0.4370
      8  O3A       32.6220    6.8670  151.5030 O.3   336  ADP336     -0.2261
      9  O5'       34.9640    6.1200  152.0060 O.3   336  ADP336     -0.3111
     10  C5'       34.9790    4.7500  151.6210 C.3   336  ADP336      0.1813
     11  C4'       36.4130    4.2270  151.6500 C.3   336  ADP336      0.1821
     12  O4'       37.1320    4.7180  150.5150 O.3   336  ADP336     -0.3135
     13  C3'       37.1670    4.6890  152.8890 C.3   336  ADP336      0.2184
     14  O3'       37.9770    3.6320  153.4140 O.3   336  ADP336     -0.2174
     15  C2'       38.0370    5.8270  152.4030 C.3   336  ADP336      0.2570
     16  O2'       39.3050    5.8400  153.0500 O.3   336  ADP336     -0.2130
     17  C1'       38.2120    5.5620  150.9230 C.3   336  ADP336      0.3186
     18  N9        38.2030    6.8360  150.1770 N.pl3 336  ADP336     -0.1439
     19  C8        37.1160    7.4780  149.7340 C.3   336  ADP336      0.3377
     20  N7        37.5080    8.6010  149.0950 N.2   336  ADP336     -0.2095
     21  C5        38.8520    8.6500  149.1480 C.2   336  ADP336      0.2526
     22  C6        39.7870    9.5490  148.6760 C.2   336  ADP336      0.4393
     23  N6        39.3800   10.6470  148.0050 N.pl3 336  ADP336      0.2180
     24  N1        41.0980    9.3180  148.8950 N.2   336  ADP336      0.0021
     25  C2        41.4990    8.2270  149.5600 C.3   336  ADP336      0.5254
     26  N3        40.6130    7.3380  150.0250 N.2   336  ADP336     -0.0055
     27  C4        39.2860    7.5320  149.8310 C.2   336  ADP336      0.3518
@<TRIPOS>BOND
     1    23    22    1
     2    22    24    2
     3    22    21    1
     4    24    25    1
     5    20    21    2
     6    20    19    1
     7    21    27    1
     8    25    26    1
     9    19    18    1
    10    27    26    2
    11    27    18    1
    12    18    17    1
    13     4     1    2
    14    12    17    1
    15    12    11    1
    16    17    15    1
    17     8     1    1
    18     8     5    1
    19    10    11    1
    20    10     9    1
    21    11    13    1
    22     1     3    1
    23     1     2    1
    24     9     5    1
    25    15    13    1
    26    15    16    1
    27     5     6    2
    28     5     7    1
    29    13    14    1
