@<TRIPOS>MOLECULE
3pfp_035_A_1.pdb
 19 18 0 0 0
SMALL
GASTEIGER

@<TRIPOS>ATOM
      1  C1        35.2230  121.6880   18.4360 C.2   463  035463      0.3919
      2  C2        35.1730  122.4450   19.7950 C.3   463  035463      0.2284
      3  C3        34.5550  123.8420   19.6390 C.3   463  035463      0.0419
      4  C4        33.0680  123.7370   19.2480 C.3   463  035463      0.0032
      5  C5        32.2720  124.9380   19.7710 C.3   463  035463      0.0027
      6  C6        31.9150  125.9100   18.6430 C.3   463  035463      0.0327
      7  C7        31.0670  127.0810   19.1620 C.3   463  035463      0.1538
      8  O8        34.7510  122.2690   17.4020 O.co2 463  035463     -0.2429
      9  O9        35.7730  120.5500   18.4660 O.co2 463  035463     -0.2429
     10  O10       36.5040  122.5440   20.3490 O.3   463  035463     -0.2611
     11  O11       31.9210  128.1870   19.4900 O.3   463  035463     -0.2703
     12  P12       36.8380  122.7230   21.9410 P.3   463  035463      0.5330
     13  O13       38.2130  122.2970   22.2300 O.2   463  035463     -0.2224
     14  O14       36.6750  124.2940   22.2590 O.3   463  035463     -0.1145
     15  O15       35.7550  121.9480   22.8750 O.3   463  035463     -0.1145
     16  P16       31.3180  129.6280   19.8640 P.3   463  035463      0.5326
     17  O17       32.1600  130.3160   20.8900 O.3   463  035463     -0.1145
     18  O18       29.7710  129.3450   20.3360 O.3   463  035463     -0.1145
     19  O19       31.1900  130.4580   18.4650 O.2   463  035463     -0.2224
@<TRIPOS>BOND
     1     8     1   ar
     2     1     9   ar
     3     1     2    1
     4    19    16    2
     5     6     7    1
     6     6     5    1
     7     7    11    1
     8     4     3    1
     9     4     5    1
    10    11    16    1
    11     3     2    1
    12     2    10    1
    13    16    18    1
    14    16    17    1
    15    10    12    1
    16    12    13    2
    17    12    14    1
    18    12    15    1
