@<TRIPOS>MOLECULE
3pfp_036_A_1.pdb
 19 18 0 0 0
SMALL
GASTEIGER

@<TRIPOS>ATOM
      1  C1        35.5330  121.9240   18.2560 C.2   716  036716      0.3919
      2  C2        35.3550  122.7020   19.5760 C.3   716  036716      0.2284
      3  C3        33.8650  122.8580   19.8960 C.3   716  036716      0.0419
      4  C4        33.2410  123.9760   19.0470 C.3   716  036716      0.0032
      5  C5        32.8300  125.1570   19.9320 C.3   716  036716      0.0027
      6  C6        32.7980  126.4610   19.1400 C.3   716  036716      0.0327
      7  C7        31.9840  127.5120   19.9020 C.3   716  036716      0.1538
      8  O8        34.9450  122.3680   17.2220 O.co2 716  036716     -0.2429
      9  O9        36.2850  120.9080   18.3170 O.co2 716  036716     -0.2429
     10  O10       35.9890  121.9170   20.5880 O.3   716  036716     -0.2611
     11  O11       32.0770  128.7650   19.2080 O.3   716  036716     -0.2703
     12  P12       36.3120  122.4070   22.0900 P.3   716  036716      0.5330
     13  O13       37.7570  122.3360   22.3600 O.3   716  036716     -0.1145
     14  O14       35.7340  123.8830   22.3430 O.2   716  036716     -0.2224
     15  O15       35.4920  121.4460   23.0680 O.3   716  036716     -0.1145
     16  P16       31.1330  129.9680   19.6780 P.3   716  036716      0.5326
     17  O17       30.5680  129.7330   21.0270 O.3   716  036716     -0.1145
     18  O18       29.9790  130.1100   18.5840 O.2   716  036716     -0.2224
     19  O19       31.9900  131.3240   19.5220 O.3   716  036716     -0.1145
@<TRIPOS>BOND
     1     8     1   ar
     2     1     9   ar
     3     1     2    1
     4    18    16    2
     5     4     3    1
     6     4     5    1
     7     6     7    1
     8     6     5    1
     9    11    16    1
    10    11     7    1
    11    19    16    1
    12     2     3    1
    13     2    10    1
    14    16    17    1
    15    10    12    1
    16    12    14    2
    17    12    13    1
    18    12    15    1
