@<TRIPOS>MOLECULE
3pft_FMN_A_1.pdb
 31 33 0 0 0
SMALL
GASTEIGER

@<TRIPOS>ATOM
      1  N1        50.2110   52.9880   13.4790 N.2   401  FMN401     -0.2887
      2  C2        51.5480   52.8280   14.0350 C.1   401  FMN401      0.3669
      3  O2        52.4720   53.8000   13.7970 O.2   401  FMN401     -0.1744
      4  N3        51.8770   51.7530   14.8530 N.2   401  FMN401     -0.2300
      5  C4        50.9110   50.8350   15.1290 C.1   401  FMN401      0.2513
      6  O4        51.1890   49.7650   15.9150 O.2   401  FMN401     -0.2057
      7  C4A       49.6090   50.9520   14.5920 C.2   401  FMN401      0.2706
      8  N5        48.6350   49.9570   14.8940 N.2   401  FMN401     -0.3841
      9  C5A       47.3600   50.1290   14.3740 C.2   401  FMN401      0.1452
     10  C6        46.3060   49.0920   14.7160 C.2   401  FMN401      0.0252
     11  C7        44.9780   49.2340   14.1730 C.2   401  FMN401     -0.0375
     12  C7M       43.8970   48.2340   14.6020 C.3   401  FMN401      0.0268
     13  C8        44.6590   50.3960   13.2890 C.3   401  FMN401      0.0417
     14  C8M       43.2380   50.5500   12.7200 C.3   401  FMN401      0.0091
     15  C9        45.6840   51.4450   12.9530 C.2   401  FMN401     -0.0049
     16  C9A       47.0450   51.2810   13.5140 C.2   401  FMN401      0.0795
     17  N10       48.0310   52.2110   13.2090 N.pl3 401  FMN401     -0.2545
     18  C10       49.3130   52.0660   13.7450 C.2   401  FMN401      0.2449
     19  C1'       47.7560   53.4100   12.4200 C.3   401  FMN401      0.1336
     20  C2'       47.1800   54.5470   13.3170 C.3   401  FMN401      0.2048
     21  O2'       46.4320   54.2600   14.2320 O.3   401  FMN401     -0.2185
     22  C3'       46.7210   55.7220   12.4030 C.3   401  FMN401      0.2165
     23  O3'       45.8970   55.1890   11.3990 O.3   401  FMN401     -0.2175
     24  C4'       47.8800   56.5450   11.8170 C.3   401  FMN401      0.2147
     25  O4'       48.7890   57.0110   12.7860 O.3   401  FMN401     -0.2176
     26  C5'       47.2540   57.7120   11.0050 C.3   401  FMN401      0.1892
     27  O5'       48.1560   58.4190   10.1860 O.3   401  FMN401     -0.2674
     28  P         48.7880   59.7970   10.8140 P.3   401  FMN401      0.5327
     29  O1P       49.7180   59.4490   12.1170 O.3   401  FMN401     -0.1145
     30  O2P       49.7380   60.4050    9.6180 O.2   401  FMN401     -0.2224
     31  O3P       47.6970   60.7180   11.1820 O.3   401  FMN401     -0.1145
@<TRIPOS>BOND
     1    30    28    2
     2    27    28    1
     3    27    26    1
     4    28    31    1
     5    28    29    1
     6    26    24    1
     7    23    22    1
     8    24    22    1
     9    24    25    1
    10    22    20    1
    11    19    17    1
    12    19    20    1
    13    14    13    1
    14    15    13    1
    15    15    16    2
    16    17    16    1
    17    17    18    1
    18    13    11    1
    19    20    21    1
    20     1    18    2
    21     1     2    2
    22    16     9    1
    23    18     7    1
    24     3     2    2
    25     2     4    2
    26    11    12    1
    27    11    10    2
    28     9    10    1
    29     9     8    2
    30     7     8    2
    31     7     5    1
    32     4     5    2
    33     5     6    2
