@<TRIPOS>MOLECULE
3pfw_NAD_O_1.pdb
 44 48 0 0 0
SMALL
GASTEIGER

@<TRIPOS>ATOM
      1  PA        -9.2660   20.6230   -3.6320 P.3     2  NAD2        0.2189
      2  O1A       -7.9050   20.1060   -3.3940 O.2     2  NAD2       -0.5170
      3  O2A       -9.7150   21.8780   -2.9920 O.3     2  NAD2       -0.4371
      4  O5B      -10.3720   19.5050   -3.3750 O.3     2  NAD2       -0.3112
      5  C5B      -10.0030   18.1240   -3.4760 C.3     2  NAD2        0.1813
      6  C4B      -10.8100   17.3590   -2.4720 C.3     2  NAD2        0.1821
      7  O4B      -10.7080   15.9820   -2.9080 O.3     2  NAD2       -0.3135
      8  C3B      -10.2300   17.4860   -1.0270 C.3     2  NAD2        0.2184
      9  O3B      -11.2910   17.8200   -0.0650 O.3     2  NAD2       -0.2174
     10  C2B       -9.6390   16.0860   -0.7600 C.3     2  NAD2        0.2570
     11  O2B       -9.9370   15.6890    0.5730 O.3     2  NAD2       -0.2130
     12  C1B      -10.4360   15.1790   -1.7210 C.3     2  NAD2        0.3186
     13  N9A       -9.8670   13.8550   -2.1970 N.pl3   2  NAD2       -0.1439
     14  C8A       -8.5920   13.5350   -2.5060 C.3     2  NAD2        0.3377
     15  N7A       -8.5150   12.2630   -2.9230 N.2     2  NAD2       -0.2095
     16  C5A       -9.7450   11.7680   -2.8510 C.2     2  NAD2        0.2526
     17  C6A      -10.2930   10.5350   -3.1350 C.2     2  NAD2        0.4393
     18  N6A       -9.5250    9.5630   -3.5590 N.pl3   2  NAD2        0.2180
     19  N1A      -11.6160   10.3570   -2.9720 N.2     2  NAD2        0.0021
     20  C2A      -12.4210   11.3300   -2.5470 C.3     2  NAD2        0.5254
     21  N3A      -11.9330   12.5360   -2.2570 N.2     2  NAD2       -0.0055
     22  C4A      -10.6090   12.7800   -2.4070 C.2     2  NAD2        0.3518
     23  O3        -9.3180   20.7990   -5.2630 O.3     2  NAD2       -0.2703
     24  PN       -10.3890   21.7080   -6.0330 P.3     2  NAD2        0.2189
     25  O1N       -9.8140   23.0850   -6.2950 O.2     2  NAD2       -0.5170
     26  O2N      -11.7080   21.5670   -5.3290 O.3     2  NAD2       -0.4371
     27  O5D      -10.5040   20.9710   -7.4470 O.3     2  NAD2       -0.3112
     28  C5D      -11.0710   19.6430   -7.6990 C.3     2  NAD2        0.1813
     29  C4D      -11.1590   19.3680   -9.2130 C.3     2  NAD2        0.1799
     30  O4D      -11.8680   20.5350   -9.6890 O.3     2  NAD2       -0.3327
     31  C3D       -9.7600   19.3930   -9.8240 C.3     2  NAD2        0.2158
     32  O3D       -9.7470   18.5860  -10.9950 O.3     2  NAD2       -0.2175
     33  C2D       -9.6090   20.8380  -10.2840 C.3     2  NAD2        0.2309
     34  O2D       -8.7740   20.8990  -11.4400 O.3     2  NAD2       -0.2158
     35  C1D      -11.0520   21.1670  -10.7350 C.3     2  NAD2        0.2263
     36  N1N      -11.3630   22.6480  -10.8400 N.pl3   2  NAD2       -0.2787
     37  C2N      -10.9110   23.5760   -9.8670 C.3     2  NAD2        0.1244
     38  C3N      -11.2390   24.9220  -10.0120 C.2     2  NAD2        0.0544
     39  C7N      -10.7720   26.0100   -9.0140 C.2     2  NAD2        0.2818
     40  O7N      -10.5980   27.1740   -9.3960 O.2     2  NAD2       -0.2670
     41  N7N      -10.5550   25.5970   -7.7450 N.am    2  NAD2       -0.0839
     42  C4N      -12.0220   25.3220  -11.0780 C.2     2  NAD2        0.0033
     43  C5N      -12.4950   24.4260  -12.0250 C.2     2  NAD2        0.0157
     44  C6N      -12.1490   23.0980  -11.9040 C.2     2  NAD2        0.0633
@<TRIPOS>BOND
     1    43    44    2
     2    43    42    1
     3    44    36    1
     4    34    33    1
     5    42    38    2
     6    32    31    1
     7    36    35    1
     8    36    37    1
     9    35    33    1
    10    35    30    1
    11    33    31    1
    12    38    37    1
    13    38    39    1
    14    31    29    1
    15    30    29    1
    16    40    39    2
    17    29    28    1
    18    39    41   am
    19    28    27    1
    20    27    24    1
    21    25    24    2
    22    24    26    1
    23    24    23    1
    24    23     1    1
    25     1     2    2
    26     1     4    1
    27     1     3    1
    28    18    17    1
    29     5     4    1
    30     5     6    1
    31    17    19    2
    32    17    16    1
    33    19    20    1
    34    15    16    2
    35    15    14    1
    36     7     6    1
    37     7    12    1
    38    16    22    1
    39    20    21    1
    40    14    13    1
    41     6     8    1
    42    22    21    2
    43    22    13    1
    44    13    12    1
    45    12    10    1
    46     8    10    1
    47     8     9    1
    48    10    11    1
