@<TRIPOS>MOLECULE
3pfx_CBI_A_1.pdb
 45 46 0 0 0
SMALL
GASTEIGER

@<TRIPOS>ATOM
      1  C1       -14.8070   27.5610   -2.7890 C.3   446  CBI446      0.1884
      2  C2       -16.3340   27.4170   -2.7390 C.3   446  CBI446      0.1341
      3  C3       -16.8150   27.2820   -4.1530 C.3   446  CBI446      0.1141
      4  C4       -16.3700   28.4290   -5.0640 C.3   446  CBI446      0.1119
      5  C5       -14.8720   28.4210   -4.9430 C.3   446  CBI446      0.1130
      6  C6       -14.2900   29.4940   -5.8530 C.3   446  CBI446      0.0730
      7  O2       -16.6070   26.2760   -1.9980 O.3   446  CBI446     -0.3841
      8  O3       -18.2350   27.2630   -3.9900 O.3   446  CBI446     -0.3864
      9  O4       -16.8740   28.0440   -6.3190 O.3   446  CBI446     -0.3865
     10  O5       -14.4390   28.6580   -3.6210 O.3   446  CBI446     -0.3405
     11  O6       -14.8130   30.7900   -5.5110 O.3   446  CBI446     -0.3924
     12  C1'      -10.9310   28.0090    0.6970 C.3   446  CBI446      0.1854
     13  C2'      -10.9160   28.9810   -0.4900 C.3   446  CBI446      0.1339
     14  C3'      -12.3350   29.0800   -0.9620 C.3   446  CBI446      0.1144
     15  C4'      -12.9810   27.7330   -1.2180 C.3   446  CBI446      0.1184
     16  C5'      -12.7620   26.7940   -0.0450 C.3   446  CBI446      0.1134
     17  C6'      -13.2640   25.3900   -0.3540 C.3   446  CBI446      0.0730
     18  O1'       -9.6130   27.8310    1.1950 O.3   446  CBI446     -0.3649
     19  O2'      -10.4350   30.1990    0.0440 O.3   446  CBI446     -0.3841
     20  O3'      -12.3270   29.8660   -2.1580 O.3   446  CBI446     -0.3864
     21  O4'      -14.3690   27.9120   -1.4860 O.3   446  CBI446     -0.3401
     22  O5'      -11.3680   26.7330    0.2790 O.3   446  CBI446     -0.3407
     23  O6'      -12.5900   24.8850   -1.5100 O.3   446  CBI446     -0.3924
     24  H1       -14.2950   26.6600   -3.1130 H     446  CBI446      0.0938
     25  H2       -16.5480   28.3170   -2.2740 H     446  CBI446      0.0671
     26  H3       -16.4790   26.3250   -4.5710 H     446  CBI446      0.0648
     27  H4       -16.9100   29.1410   -4.5100 H     446  CBI446      0.0647
     28  H5       -14.4960   27.4680   -5.2650 H     446  CBI446      0.0647
     29  H61      -14.5430   29.2660   -6.8860 H     446  CBI446      0.0584
     30  H62      -13.2090   29.5090   -5.7410 H     446  CBI446      0.0584
     31  HO2      -16.2380   26.3670   -1.1260 H     446  CBI446      0.2101
     32  HO3      -18.5410   28.1300   -3.7540 H     446  CBI446      0.2100
     33  HO4      -17.3740   28.7650   -6.6990 H     446  CBI446      0.2100
     34  HO6      -15.1280   31.2200   -6.2970 H     446  CBI446      0.2095
     35  H1'      -11.5730   28.3780    1.4850 H     446  CBI446      0.0935
     36  H2'      -10.2360   28.3670   -1.0380 H     446  CBI446      0.0671
     37  H3'      -12.9270   29.6130   -0.2090 H     446  CBI446      0.0648
     38  H4'      -12.5260   27.2910   -2.1010 H     446  CBI446      0.0651
     39  H5'      -13.3030   27.1710    0.8250 H     446  CBI446      0.0647
     40 H6'1      -14.3330   25.4250   -0.5440 H     446  CBI446      0.0584
     41 H6'2      -13.0650   24.7350    0.4950 H     446  CBI446      0.0584
     42 HO1'       -9.6180   27.1700    1.8720 H     446  CBI446      0.2126
     43 HO2'       -9.8700   30.0170    0.7830 H     446  CBI446      0.2101
     44 HO3'      -12.3290   29.2960   -2.9050 H     446  CBI446      0.2100
     45 HO6'      -12.1890   24.0360   -1.3060 H     446  CBI446      0.2095
@<TRIPOS>BOND
     1    29     6    1
     2    33     9    1
     3     9     4    1
     4    34    11    1
     5     6    30    1
     6     6    11    1
     7     6     5    1
     8    28     5    1
     9     4     5    1
    10     4    27    1
    11     4     3    1
    12     5    10    1
    13    26     3    1
    14     3     8    1
    15     3     2    1
    16     8    32    1
    17    10     1    1
    18    24     1    1
    19    44    20    1
    20     1     2    1
    21     1    21    1
    22     2    25    1
    23     2     7    1
    24    20    14    1
    25    38    15    1
    26     7    31    1
    27    23    45    1
    28    23    17    1
    29    21    15    1
    30    15    14    1
    31    15    16    1
    32    36    13    1
    33    14    13    1
    34    14    37    1
    35    40    17    1
    36    13    19    1
    37    13    12    1
    38    17    16    1
    39    17    41    1
    40    16    22    1
    41    16    39    1
    42    19    43    1
    43    22    12    1
    44    12    18    1
    45    12    35    1
    46    18    42    1
