@<TRIPOS>MOLECULE
3pfz_CBI_A_1.pdb
 45 46 0 0 0
SMALL
GASTEIGER

@<TRIPOS>ATOM
      1  C1       -14.5520   27.6640   -2.6520 C.3   445  CBI445      0.1884
      2  C2       -16.0780   27.5310   -2.7810 C.3   445  CBI445      0.1341
      3  C3       -16.3390   27.4000   -4.2570 C.3   445  CBI445      0.1141
      4  C4       -15.8490   28.5820   -5.1020 C.3   445  CBI445      0.1119
      5  C5       -14.3610   28.5700   -4.8030 C.3   445  CBI445      0.1130
      6  C6       -13.6050   29.6490   -5.5850 C.3   445  CBI445      0.0730
      7  O2       -16.4310   26.4080   -2.0200 O.3   445  CBI445     -0.3841
      8  O3       -17.7680   27.3420   -4.3600 O.3   445  CBI445     -0.3864
      9  O4       -16.3070   28.1110   -6.3650 O.3   445  CBI445     -0.3865
     10  O5       -14.0890   28.7700   -3.4270 O.3   445  CBI445     -0.3405
     11  O6       -13.9160   30.9720   -5.1250 O.3   445  CBI445     -0.3924
     12  C1'      -10.7900   27.9920    0.9370 C.3   445  CBI445      0.1854
     13  C2'      -10.7560   29.0150   -0.2070 C.3   445  CBI445      0.1339
     14  C3'      -12.1650   29.1240   -0.6870 C.3   445  CBI445      0.1144
     15  C4'      -12.8290   27.7890   -1.0040 C.3   445  CBI445      0.1184
     16  C5'      -12.6530   26.8120    0.1420 C.3   445  CBI445      0.1134
     17  C6'      -13.1840   25.4360   -0.2390 C.3   445  CBI445      0.0730
     18  O1'       -9.4750   27.7880    1.4260 O.3   445  CBI445     -0.3649
     19  O2'      -10.2870   30.2050    0.3800 O.3   445  CBI445     -0.3841
     20  O3'      -12.1350   30.0160   -1.8070 O.3   445  CBI445     -0.3864
     21  O4'      -14.2030   27.9820   -1.3080 O.3   445  CBI445     -0.3401
     22  O5'      -11.2780   26.7300    0.4970 O.3   445  CBI445     -0.3407
     23  O6'      -12.5100   24.9940   -1.4190 O.3   445  CBI445     -0.3924
     24  H1       -14.0230   26.7660   -2.9520 H     445  CBI445      0.0938
     25  H2       -16.3210   28.4490   -2.3600 H     445  CBI445      0.0671
     26  H3       -15.9010   26.4660   -4.6280 H     445  CBI445      0.0648
     27  H4       -16.4630   29.2520   -4.5570 H     445  CBI445      0.0647
     28  H5       -13.9620   27.6160   -5.0900 H     445  CBI445      0.0647
     29  H61      -13.8650   29.5710   -6.6380 H     445  CBI445      0.0584
     30  H62      -12.5370   29.4840   -5.4700 H     445  CBI445      0.0584
     31  HO2      -16.0880   26.5010   -1.1380 H     445  CBI445      0.2101
     32  HO3      -18.1370   27.0710   -3.5290 H     445  CBI445      0.2100
     33  HO4      -15.6500   27.5300   -6.7470 H     445  CBI445      0.2100
     34  HO6      -14.6000   31.3430   -5.6700 H     445  CBI445      0.2095
     35  H1'      -11.4140   28.3580    1.7410 H     445  CBI445      0.0935
     36  H2'      -10.0670   28.4280   -0.7740 H     445  CBI445      0.0671
     37  H3'      -12.7560   29.6100    0.0980 H     445  CBI445      0.0648
     38  H4'      -12.3520   27.3680   -1.8860 H     445  CBI445      0.0651
     39  H5'      -13.2120   27.1690    1.0090 H     445  CBI445      0.0647
     40 H6'1      -14.2520   25.5000   -0.4310 H     445  CBI445      0.0584
     41 H6'2      -12.9970   24.7310    0.5720 H     445  CBI445      0.0584
     42 HO1'       -9.4990   27.1830    2.1530 H     445  CBI445      0.2126
     43 HO2'       -9.6360   29.9960    1.0360 H     445  CBI445      0.2101
     44 HO3'      -12.2210   29.5220   -2.6020 H     445  CBI445      0.2100
     45 HO6'      -12.6150   24.0440   -1.5150 H     445  CBI445      0.2095
@<TRIPOS>BOND
     1    33     9    1
     2    29     6    1
     3     9     4    1
     4    34    11    1
     5     6    30    1
     6     6    11    1
     7     6     5    1
     8     4     5    1
     9     4    27    1
    10     4     3    1
    11    28     5    1
    12     5    10    1
    13    26     3    1
    14     8     3    1
    15     8    32    1
    16     3     2    1
    17    10     1    1
    18    24     1    1
    19     2     1    1
    20     2    25    1
    21     2     7    1
    22     1    21    1
    23    44    20    1
    24     7    31    1
    25    38    15    1
    26    20    14    1
    27    45    23    1
    28    23    17    1
    29    21    15    1
    30    15    14    1
    31    15    16    1
    32    36    13    1
    33    14    13    1
    34    14    37    1
    35    40    17    1
    36    17    16    1
    37    17    41    1
    38    13    19    1
    39    13    12    1
    40    16    22    1
    41    16    39    1
    42    19    43    1
    43    22    12    1
    44    12    18    1
    45    12    35    1
    46    18    42    1
