@<TRIPOS>MOLECULE
3pg3_DG7_A_1.pdb
 35 38 0 0 0
SMALL
GASTEIGER

@<TRIPOS>ATOM
      1  CAA      -19.9690   -7.0100   10.7420 C.3   362  DG7362      0.0310
      2  CAB      -15.1980   -9.6670   18.8440 C.3   362  DG7362      0.0060
      3  CAC      -13.8160   -9.3220   16.8090 C.3   362  DG7362      0.0060
      4  CAD      -13.7910   -7.6160   18.6040 C.3   362  DG7362      0.0060
      5  OAE      -18.2570   -4.8950   18.8810 O.2   362  DG7362     -0.2483
      6  CAF      -21.9940    3.7820   23.1550 C.ar  362  DG7362      0.0204
      7  CAG      -21.9610    3.5660   24.5340 C.ar  362  DG7362      0.0989
      8  CAH      -22.4620    2.7620   22.3220 C.ar  362  DG7362      0.0013
      9  CAI      -18.9000   -8.3440   12.6250 C.ar  362  DG7362     -0.0027
     10  CAJ      -18.9050   -5.9380   12.7790 C.ar  362  DG7362     -0.0027
     11  CAK      -18.2350   -8.4240   13.8540 C.ar  362  DG7362      0.0189
     12  CAL      -18.2360   -6.0160   14.0040 C.ar  362  DG7362      0.0189
     13  CAM      -22.8080    1.4160   24.2870 C.ar  362  DG7362      0.0970
     14  CAN      -21.2980   -2.3900   20.8360 C.3   362  DG7362      0.1202
     15  CAO      -16.8020   -7.1600   17.8360 C.ar  362  DG7362      0.0527
     16  CAP      -23.6440   -0.3800   19.8720 C.3   362  DG7362      0.1497
     17  CAQ      -23.6730   -1.8870   20.1450 C.3   362  DG7362      0.0874
     18  CAR      -23.3500    0.5150   22.0930 C.3   362  DG7362      0.1701
     19  NAS      -22.3600    2.4070   25.0540 N.ar  362  DG7362     -0.2426
     20  NAT      -21.9960   -3.2990   18.8720 N.2   362  DG7362     -0.3866
     21  NAU      -16.2470   -8.0280   15.9140 N.ar  362  DG7362     -0.1683
     22  NAV      -18.7750   -6.0370   17.0130 N.am  362  DG7362     -0.1417
     23  NAW      -20.2590   -4.5890   17.9100 N.am  362  DG7362     -0.1248
     24  OAX      -22.7860    0.3190   20.7950 O.3   362  DG7362     -0.3485
     25  SAY      -19.9710   -3.2660   20.2680 S.3   362  DG7362     -0.0579
     26  CAZ      -19.0590   -5.1760   17.9940 C.2   362  DG7362      0.3516
     27  CBA      -19.2350   -7.1000   12.0870 C.ar  362  DG7362     -0.0218
     28  CBB      -22.8720    1.5600   22.8980 C.ar  362  DG7362      0.0264
     29  CBC      -22.3000   -2.5320   19.9460 C.2   362  DG7362      0.1028
     30  CBD      -17.9020   -7.2540   14.5490 C.ar  362  DG7362      0.0842
     31  CBE      -17.6630   -6.7840   16.8690 C.ar  362  DG7362      0.1587
     32  CBF      -15.9020   -7.9220   17.2020 C.ar  362  DG7362      0.0811
     33  CBG      -20.7460   -3.7720   18.8480 C.2   362  DG7362      0.2338
     34  NBH      -17.2730   -7.3580   15.7270 N.ar  362  DG7362     -0.2145
     35  CBI      -14.6670   -8.6150   17.8530 C.3   362  DG7362      0.0372
@<TRIPOS>BOND
     1     1    27    1
     2    27     9   ar
     3    27    10   ar
     4     9    11   ar
     5    10    12   ar
     6    11    30   ar
     7    12    30   ar
     8    30    34    1
     9    34    21   ar
    10    34    31   ar
    11    21    32   ar
    12     3    35    1
    13    31    22    1
    14    31    15   ar
    15    22    26   am
    16    32    15   ar
    17    32    35    1
    18    35     4    1
    19    35     2    1
    20    23    26   am
    21    23    33    1
    22    26     5    2
    23    33    20    2
    24    33    25    1
    25    20    29    2
    26    16    17    1
    27    16    24    1
    28    29    17    1
    29    29    14    1
    30    25    14    1
    31    24    18    1
    32    18    28    1
    33     8    28   ar
    34     8     6   ar
    35    28    13   ar
    36     6     7   ar
    37    13    19   ar
    38     7    19   ar
