@<TRIPOS>MOLECULE
3pgb_MAN_A_1.pdb
 11 11 0 0 0
SMALL
GASTEIGER

@<TRIPOS>ATOM
      1  C1       -57.8720  -17.0420  -52.9790 C.3   1104  MAN1104     0.1777
      2  C2       -58.1360  -15.6090  -52.5370 C.3   1104  MAN1104     0.2141
      3  C3       -58.5120  -15.6120  -51.0540 C.3   1104  MAN1104     0.2173
      4  C4       -59.7040  -16.5300  -50.8360 C.3   1104  MAN1104     0.2142
      5  C5       -59.3780  -17.9340  -51.3320 C.3   1104  MAN1104     0.1810
      6  C6       -60.6040  -18.8300  -51.1840 C.3   1104  MAN1104     0.2141
      7  O2       -59.1450  -15.0390  -53.3400 O.3   1104  MAN1104    -0.2176
      8  O3       -58.7870  -14.3120  -50.5810 O.3   1104  MAN1104    -0.2175
      9  O4       -60.0180  -16.5690  -49.4670 O.3   1104  MAN1104    -0.2176
     10  O5       -58.9780  -17.8860  -52.6890 O.3   1104  MAN1104    -0.3481
     11  O6       -60.3710  -20.1100  -51.7230 O.3   1104  MAN1104    -0.2176
@<TRIPOS>BOND
     1     7     2    1
     2     1    10    1
     3     1     2    1
     4    10     5    1
     5     2     3    1
     6    11     6    1
     7     5     6    1
     8     5     4    1
     9     3     4    1
    10     3     8    1
    11     4     9    1
