@<TRIPOS>MOLECULE
3pgf_GLC_A_1.pdb
 12 12 0 0 0
SMALL
GASTEIGER

@<TRIPOS>ATOM
      1  C1       -11.3690   18.2860   -3.0210 C.3   371  GLC371      0.3024
      2  C2       -10.0580   18.4770   -3.7710 C.3   371  GLC371      0.2434
      3  C3        -9.1060   17.3100   -3.6250 C.3   371  GLC371      0.2199
      4  C4        -8.8250   17.0160   -2.1380 C.3   371  GLC371      0.2144
      5  C5       -10.1820   16.6710   -1.5240 C.3   371  GLC371      0.1836
      6  C6       -10.0800   16.7640    0.0260 C.3   371  GLC371      0.2142
      7  O1       -11.9320   17.1270   -3.5070 O.3   371  GLC371     -0.1869
      8  O2       -10.3680   18.4640   -5.1510 O.3   371  GLC371     -0.2148
      9  O3        -7.8980   17.7720   -4.1980 O.3   371  GLC371     -0.2174
     10  O4        -7.9770   15.8850   -2.0860 O.3   371  GLC371     -0.2176
     11  O5       -11.0440   17.8110   -1.7150 O.3   371  GLC371     -0.3236
     12  O6       -11.0800   15.8970    0.5400 O.3   371  GLC371     -0.2176
@<TRIPOS>BOND
     1     8     2    1
     2     9     3    1
     3     2     3    1
     4     2     1    1
     5     3     4    1
     6     7     1    1
     7     1    11    1
     8     4    10    1
     9     4     5    1
    10    11     5    1
    11     5     6    1
    12     6    12    1
