@<TRIPOS>MOLECULE
3pgh_HEM_A_1.pdb
 43 50 0 0 0
SMALL
GASTEIGER

@<TRIPOS>ATOM
      1  CHA       23.6310   34.3940   -0.6780 C.2   682  HEM682      0.0000
      2  CHB       20.3040   37.8400   -0.3000 C.2   682  HEM682      0.0000
      3  CHC       19.8210   36.8260    4.3220 C.2   682  HEM682      0.0000
      4  CHD       22.7720   33.1060    3.8450 C.2   682  HEM682      0.0000
      5  C1A       22.7390   35.3840   -1.0040 C.ar  682  HEM682      0.0000
      6  C2A       22.6470   36.0060   -2.3180 C.ar  682  HEM682      0.0000
      7  C3A       21.6930   36.9760   -2.2110 C.ar  682  HEM682      0.0000
      8  C4A       21.2140   36.9250   -0.8340 C.ar  682  HEM682      0.0000
      9  CMA       21.2190   37.9680   -3.2820 C.3   682  HEM682      0.0000
     10  CAA       23.4600   35.6600   -3.5640 C.3   682  HEM682      0.0000
     11  CBA       22.6760   34.8130   -4.5750 C.3   682  HEM682      0.0000
     12  CGA       23.5290   34.3090   -5.7550 C.2   682  HEM682      0.0000
     13  O1A       24.0970   33.2020   -5.6440 O.co2 682  HEM682      0.0000
     14  O2A       23.6290   35.0120   -6.7870 O.co2 682  HEM682      0.0000
     15  C1B       19.9100   37.8890    1.0060 C.2   682  HEM682      0.0000
     16  C2B       19.1520   38.9500    1.5850 C.2   682  HEM682      0.0000
     17  C3B       19.1310   38.7220    2.9150 C.2   682  HEM682      0.0000
     18  C4B       19.7890   37.4800    3.1150 C.2   682  HEM682      0.0000
     19  CMB       18.4600   40.0790    0.8360 C.3   682  HEM682      0.0000
     20  CAB       18.7660   39.5700    3.9440 C.3   682  HEM682      0.0000
     21  CBB       17.5640   40.3450    3.9320 C.3   682  HEM682      0.0000
     22  C1C       20.4760   35.6440    4.5470 C.ar  682  HEM682      0.0000
     23  C2C       20.5160   34.9980    5.8310 C.ar  682  HEM682      0.0000
     24  C3C       21.3190   33.9410    5.7060 C.ar  682  HEM682      0.0000
     25  C4C       21.7970   33.9530    4.3390 C.ar  682  HEM682      0.0000
     26  CMC       19.8450   35.4930    7.0960 C.3   682  HEM682      0.0000
     27  CAC       21.5660   33.0250    6.7020 C.3   682  HEM682      0.0000
     28  CBC       22.8100   32.3260    6.8680 C.3   682  HEM682      0.0000
     29  C1D       23.3010   33.1670    2.5770 C.2   682  HEM682      0.0000
     30  C2D       24.3940   32.3720    2.1400 C.2   682  HEM682      0.0000
     31  C3D       24.6890   32.7870    0.8910 C.2   682  HEM682      0.0000
     32  C4D       23.7310   33.7950    0.5470 C.2   682  HEM682      0.0000
     33  CMD       25.1230   31.3220    2.9640 C.3   682  HEM682      0.0000
     34  CAD       25.9200   32.4210    0.0820 C.3   682  HEM682      0.0000
     35  CBD       27.0720   33.3720    0.2630 C.3   682  HEM682      0.0000
     36  CGD       28.0320   33.3220   -0.8810 C.2   682  HEM682      0.0000
     37  O1D       28.2910   32.2350   -1.4030 O.co2 682  HEM682      0.0000
     38  O2D       28.5220   34.3750   -1.2870 O.co2 682  HEM682      0.0000
     39  NA        21.8510   35.9460   -0.1140 N.ar  682  HEM682      0.0000
     40  NB        20.3220   36.9970    1.9460 N.2   682  HEM682      0.0000
     41  NC        21.2500   34.9940    3.6200 N.ar  682  HEM682      0.0000
     42  ND        22.9050   34.0610    1.5990 N.2   682  HEM682      0.0000
     43 FE         21.5730   35.5070    1.7500 Fe    682  HEM682      0.0000
@<TRIPOS>BOND
     1    14    12   ar
     2    12    13   ar
     3    12    11    1
     4    11    10    1
     5    10     6    1
     6     9     7    1
     7     6     7   ar
     8     6     5   ar
     9     7     8   ar
    10    37    36   ar
    11    38    36   ar
    12     5     1    2
    13     5    39   ar
    14    36    35    1
    15     8     2    2
    16     8    39   ar
    17     1    32    1
    18     2    15    1
    19    39    43    1
    20    34    35    1
    21    34    31    1
    22    32    31    1
    23    32    42    2
    24    19    16    1
    25    31    30    2
    26    15    16    1
    27    15    40    2
    28    16    17    2
    29    42    43    1
    30    42    29    1
    31    43    40    1
    32    43    41    1
    33    40    18    1
    34    30    29    1
    35    30    33    1
    36    29     4    2
    37    17    18    1
    38    17    20    1
    39    18     3    2
    40    41    25   ar
    41    41    22   ar
    42     4    25    1
    43    21    20    1
    44     3    22    1
    45    25    24   ar
    46    22    23   ar
    47    24    23   ar
    48    24    27    1
    49    23    26    1
    50    27    28    1
