@<TRIPOS>MOLECULE
3pgh_FLP_A_1.pdb
 18 19 0 0 0
SMALL
GASTEIGER

@<TRIPOS>ATOM
      1  C         25.7030   25.5640   11.7310 C.ar  701  FLP701      0.0000
      2  C1        25.9650   24.8950   12.9470 C.ar  701  FLP701      0.0001
      3  C2        25.4500   23.6210   13.1640 C.ar  701  FLP701      0.0022
      4  C3        24.6770   23.0200   12.1690 C.ar  701  FLP701      0.0001
      5  C4        24.4210   23.6930   10.9590 C.ar  701  FLP701      0.0000
      6  C5        24.9370   24.9670   10.7450 C.ar  701  FLP701      0.0000
      7  C6        25.6920   22.9020   14.4740 C.ar  701  FLP701      0.0275
      8  C7        26.9670   22.9010   15.0900 C.ar  701  FLP701      0.0019
      9  C8        27.1540   22.2300   16.3370 C.ar  701  FLP701     -0.0036
     10  C9        26.0390   21.5620   16.9510 C.ar  701  FLP701     -0.0096
     11  C10       24.7930   21.5790   16.3360 C.ar  701  FLP701      0.0259
     12  C11       24.6100   22.2320   15.1130 C.ar  701  FLP701      0.1398
     13  C12       26.2080   20.7520   18.2200 C.3   701  FLP701      0.1257
     14  C13       27.3880   21.2730   19.0370 C.3   701  FLP701      0.0166
     15  C14       26.4410   19.2950   17.8220 C.2   701  FLP701      0.3683
     16  O         27.4480   18.9770   17.2390 O.co2 701  FLP701     -0.2453
     17  O1        25.5420   18.3820   18.0790 O.co2 701  FLP701     -0.2453
     18  F         23.3820   22.2060   14.5300 F     701  FLP701     -0.2042
@<TRIPOS>BOND
     1     6     5   ar
     2     6     1   ar
     3     5     4   ar
     4     1     2   ar
     5     4     3   ar
     6     2     3   ar
     7     3     7    1
     8     7     8   ar
     9     7    12   ar
    10    18    12    1
    11     8     9   ar
    12    12    11   ar
    13    11    10   ar
    14     9    10   ar
    15    10    13    1
    16    16    15   ar
    17    15    17   ar
    18    15    13    1
    19    13    14    1
