@<TRIPOS>MOLECULE
3pgi_F41_A_1.pdb
 19 21 0 0 0
SMALL
GASTEIGER

@<TRIPOS>ATOM
      1  C1        -2.5040    0.8930   11.1060 C.3   2001  F412001     0.0029
      2  C2        -1.6690    2.0390   11.7050 C.3   2001  F412001     0.0174
      3  C3        -1.0350    2.9040   10.6050 C.3   2001  F412001     0.0725
      4  N4        -2.0580    3.3730    9.6600 N.3   2001  F412001    -0.2650
      5  C5        -2.7980    2.2580    9.0430 C.3   2001  F412001     0.0725
      6  C6        -3.5520    1.4690   10.1310 C.3   2001  F412001     0.0174
      7  C7        -1.5370    4.2810    8.6090 C.3   2001  F412001     0.1606
      8  C8        -1.7560    5.7330    8.9190 C.2   2001  F412001     0.2619
      9  O9        -2.2740    6.0350    9.9840 O.2   2001  F412001    -0.2715
     10  N10       -1.3330    6.6140    7.9790 N.am  2001  F412001    -0.1779
     11  C11       -0.1820    7.4150    8.2320 C.ar  2001  F412001     0.0766
     12  C12       -0.2580    8.8010    8.4100 C.ar  2001  F412001     0.0568
     13  C13        0.9500    9.4650    8.6510 C.ar  2001  F412001     0.1777
     14  C14        2.1530    8.8030    8.7110 C.ar  2001  F412001     0.1765
     15  C15        2.2570    7.4250    8.5410 C.ar  2001  F412001     0.0415
     16  C16        1.0550    6.7540    8.2980 C.ar  2001  F412001     0.0199
     17  O17        1.0750   10.8240    8.8540 O.3   2001  F412001    -0.4346
     18  C18        2.5220   10.9090    9.0370 C.3   2001  F412001     0.4294
     19  O19        3.2250    9.6280    8.9580 O.3   2001  F412001    -0.4346
@<TRIPOS>BOND
     1    10    11    1
     2    10     8   am
     3    11    16   ar
     4    11    12   ar
     5    16    15   ar
     6    12    13   ar
     7    15    14   ar
     8     7     8    1
     9     7     4    1
    10    13    14   ar
    11    13    17    1
    12    14    19    1
    13    17    18    1
    14     8     9    2
    15    19    18    1
    16     5     4    1
    17     5     6    1
    18     4     3    1
    19     6     1    1
    20     3     2    1
    21     1     2    1
