@<TRIPOS>MOLECULE
3pgj_SKM_A_1.pdb
 12 12 0 0 0
SMALL
GASTEIGER

@<TRIPOS>ATOM
      1  O12       10.3520   -4.2630   31.2380 O.3   279  SKM279     -0.2173
      2  C8        10.0890   -3.5390   32.4460 C.3   279  SKM279      0.2167
      3  C6         9.2590   -4.3930   33.4000 C.3   279  SKM279      0.1896
      4  O7         8.0690   -4.8390   32.7470 O.3   279  SKM279     -0.2200
      5  C5         8.8880   -3.5920   34.6380 C.3   279  SKM279      0.0684
      6  C4        10.1120   -2.9480   35.2470 C.2   279  SKM279      0.0584
      7  C1        10.0730   -2.5360   36.6490 C.2   279  SKM279      0.3837
      8  O2         9.0390   -2.7310   37.3200 O.co2 279  SKM279     -0.2409
      9  O3        11.0780   -1.9950   37.1490 O.co2 279  SKM279     -0.2409
     10  C10       11.2410   -2.7420   34.5450 C.2   279  SKM279      0.0111
     11  C9        11.4090   -3.1450   33.0940 C.3   279  SKM279      0.2066
     12  O11       12.3050   -4.2630   33.0250 O.3   279  SKM279     -0.2155
@<TRIPOS>BOND
     1     1     2    1
     2     2    11    1
     3     2     3    1
     4     4     3    1
     5    12    11    1
     6    11    10    1
     7     3     5    1
     8    10     6    2
     9     5     6    1
    10     6     7    1
    11     7     9   ar
    12     7     8   ar
