@<TRIPOS>MOLECULE
3pgk_ATP_A_1.pdb
 31 34 0 0 0
SMALL
GASTEIGER

@<TRIPOS>ATOM
      1  PG        26.2990   -7.6630   15.8770 P.3   417  ATP417      0.5373
      2  O1G       26.9840   -6.7840   16.8510 O.2   417  ATP417     -0.2221
      3  O2G       26.3020   -7.0050   14.5510 O.3   417  ATP417     -0.1143
      4  O3G       25.2020   -7.8670   14.9040 O.3   417  ATP417     -0.1143
      5  PB        27.2310  -10.2760   16.7930 P.3   417  ATP417      0.2277
      6  O1B       25.9660  -10.6860   17.4430 O.3   417  ATP417     -0.4368
      7  O2B       27.8990  -11.4720   16.2360 O.2   417  ATP417     -0.5168
      8  O3B       27.0690   -9.1120   15.7860 O.3   417  ATP417     -0.2258
      9  PA        27.8390   -9.0070   19.2340 P.3   417  ATP417      0.2189
     10  O1A       26.5790   -8.2330   19.2230 O.2   417  ATP417     -0.5170
     11  O2A       27.7570  -10.0650   20.2660 O.3   417  ATP417     -0.4371
     12  O3A       28.1920   -9.5630   17.8760 O.3   417  ATP417     -0.2700
     13  O5'       29.0430   -8.0620   19.5320 O.3   417  ATP417     -0.3112
     14  C5'       29.3780   -7.9440   20.8870 C.3   417  ATP417      0.1813
     15  C4'       28.5080   -6.9260   21.5660 C.3   417  ATP417      0.1821
     16  O4'       28.0640   -7.4930   22.8100 O.3   417  ATP417     -0.3135
     17  C3'       29.2950   -5.6930   21.9080 C.3   417  ATP417      0.2184
     18  O3'       29.2970   -4.7760   20.7970 O.3   417  ATP417     -0.2174
     19  C2'       28.5990   -5.2170   23.1660 C.3   417  ATP417      0.2570
     20  O2'       27.4850   -4.3460   22.8940 O.3   417  ATP417     -0.2130
     21  C1'       28.1340   -6.5400   23.7980 C.3   417  ATP417      0.3186
     22  N9        29.0050   -7.1470   24.7430 N.pl3 417  ATP417     -0.1439
     23  C8        29.4120   -8.4330   24.6390 C.3   417  ATP417      0.3377
     24  N7        30.1470   -8.9150   25.5510 N.2   417  ATP417     -0.2095
     25  C5        30.2740   -7.8950   26.3350 C.2   417  ATP417      0.2526
     26  C6        30.9940   -7.8270   27.4950 C.2   417  ATP417      0.4393
     27  N6        31.6880   -8.8280   28.0280 N.pl3 417  ATP417      0.2180
     28  N1        30.9770   -6.6400   28.1170 N.2   417  ATP417      0.0021
     29  C2        30.2610   -5.6070   27.5620 C.3   417  ATP417      0.5254
     30  N3        29.5560   -5.5850   26.4740 N.2   417  ATP417     -0.0055
     31  C4        29.6010   -6.7740   25.8850 C.2   417  ATP417      0.3518
@<TRIPOS>BOND
     1     3     4    1
     2     3     1    1
     3     4     1    1
     4     8     1    1
     5     8     5    1
     6     1     2    2
     7     7     5    2
     8     5     6    1
     9     5    12    1
    10    12     9    1
    11    10     9    2
    12     9    13    1
    13     9    11    1
    14    13    14    1
    15    18    17    1
    16    14    15    1
    17    15    17    1
    18    15    16    1
    19    17    19    1
    20    16    21    1
    21    20    19    1
    22    19    21    1
    23    21    22    1
    24    23    22    1
    25    23    24    1
    26    22    31    1
    27    24    25    2
    28    31    25    1
    29    31    30    2
    30    25    26    1
    31    30    29    1
    32    26    27    1
    33    26    28    2
    34    29    28    1
