@<TRIPOS>MOLECULE
3pgl_RZX_A_1.pdb
 25 27 0 0 0
SMALL
GASTEIGER

@<TRIPOS>ATOM
      1  C1         3.4510   11.3720   -3.1790 C.ar  257  RZX257      0.0357
      2  C2         3.1650   11.7250   -4.4860 C.ar  257  RZX257      0.1747
      3  C3         3.8770   12.8740   -5.1010 C.ar  257  RZX257      0.1747
      4  C4         4.8200   13.5610   -4.3510 C.ar  257  RZX257      0.0357
      5  C5         5.0840   13.1730   -3.0410 C.ar  257  RZX257      0.0028
      6  C6         4.4040   12.1030   -2.4750 C.ar  257  RZX257      0.0028
      7  N7         3.4150   13.0050   -6.3620 N.2   257  RZX257     -0.3305
      8  C8         2.5100   12.0090   -6.4990 C.1   257  RZX257      0.1992
      9  N9         2.3160   11.2310   -5.4170 N.2   257  RZX257     -0.3305
     10  S10        1.6520   11.8460   -7.9610 S.O   257  RZX257      0.1564
     11  C11        0.7200   10.4400   -8.3270 C.3   257  RZX257      0.1538
     12  C12        0.5200    9.2660   -7.3910 C.ar  257  RZX257      0.0726
     13  N13        0.5800    8.0950   -8.0410 N.ar  257  RZX257     -0.2473
     14  C14        0.4320    6.9230   -7.4130 C.ar  257  RZX257      0.1016
     15  C15        0.1710    6.8500   -6.0490 C.ar  257  RZX257      0.0572
     16  C16        0.0730    8.0370   -5.3300 C.ar  257  RZX257      0.1372
     17  C17        0.2430    9.2710   -5.9990 C.ar  257  RZX257      0.0267
     18  O18        0.6010   12.9330   -7.9940 O.2   257  RZX257     -0.2393
     19  O19       -0.1850    7.9650   -3.9690 O.3   257  RZX257     -0.4756
     20  C20       -1.4220    7.4430   -3.4690 C.3   257  RZX257      0.2080
     21  C21       -2.4260    8.5890   -3.4360 C.3   257  RZX257      0.0793
     22  C22       -3.7950    8.1420   -2.9570 C.3   257  RZX257      0.1461
     23  O23       -4.7430    8.9200   -3.6980 O.3   257  RZX257     -0.3510
     24  C24       -5.8490    8.1420   -4.1630 C.3   257  RZX257      0.1741
     25  C25        0.1340   10.5440   -5.1780 C.3   257  RZX257      0.0355
@<TRIPOS>BOND
     1    11    10    1
     2    11    12    1
     3    13    14   ar
     4    13    12   ar
     5    18    10    2
     6    10     8    1
     7    14    15   ar
     8    12    17   ar
     9     8     7    2
    10     8     9    2
    11     7     3    2
    12    15    16   ar
    13    17    16   ar
    14    17    25    1
    15     9     2    2
    16    16    19    1
    17     3     2   ar
    18     3     4   ar
    19     2     1   ar
    20     4     5   ar
    21    24    23    1
    22    19    20    1
    23    23    22    1
    24    20    21    1
    25    21    22    1
    26     1     6   ar
    27     5     6   ar
