@<TRIPOS>MOLECULE
3pgm_3PG_A_1.pdb
 11 10 0 0 0
SMALL
GASTEIGER

@<TRIPOS>ATOM
      1  C1         0.9940  -16.3530  -21.6180 C.2   247  3PG247      0.3972
      2  O1         1.3540  -15.6170  -20.6220 O.co2 247  3PG247     -0.2427
      3  O2         0.5410  -15.8080  -22.6950 O.co2 247  3PG247     -0.2427
      4  C2         1.1060  -17.8740  -21.5280 C.3   247  3PG247      0.2838
      5  O3         1.0990  -18.2800  -20.1670 O.3   247  3PG247     -0.2081
      6  C3         2.4090  -18.3330  -22.1900 C.3   247  3PG247      0.1983
      7  O1P        2.1350  -19.3620  -23.1620 O.3   247  3PG247     -0.2669
      8  P          1.9500  -18.9870  -24.7090 P.3   247  3PG247      0.5327
      9  O2P        2.0770  -20.2040  -25.5420 O.2   247  3PG247     -0.2224
     10  O3P        2.9830  -18.0110  -25.1240 O.3   247  3PG247     -0.1145
     11  O4P        0.6140  -18.3900  -24.9300 O.3   247  3PG247     -0.1145
@<TRIPOS>BOND
     1     9     8    2
     2    10     8    1
     3    11     8    1
     4     8     7    1
     5     7     6    1
     6     3     1   ar
     7     6     4    1
     8     1     4    1
     9     1     2   ar
    10     4     5    1
