@<TRIPOS>MOLECULE
3pgq_GY3_A_1.pdb
 23 25 0 0 0
SMALL
GASTEIGER

@<TRIPOS>ATOM
      1  O1         0.3110   27.9950  -25.8020 O.3   3000  GY33000    -0.3500
      2  C2        -1.1060   27.9030  -25.4560 C.3   3000  GY33000     0.1656
      3  C3        -1.2400   27.9350  -23.9370 C.3   3000  GY33000     0.1471
      4  N4        -0.7120   26.6850  -23.3630 N.am  3000  GY33000    -0.2021
      5  C5        -1.2840   26.1780  -22.2590 C.2   3000  GY33000     0.2540
      6  C6        -0.6080   25.0210  -21.9060 C.3   3000  GY33000     0.1775
      7  C7         0.4170   24.9630  -22.8330 C.2   3000  GY33000     0.2540
      8  N8         0.2840   25.9920  -23.6920 N.am  3000  GY33000    -0.2021
      9  C9         1.3260   26.1670  -24.7470 C.3   3000  GY33000     0.1471
     10  C10        0.8170   26.6940  -26.0780 C.3   3000  GY33000     0.1656
     11  O11       -2.2840   26.6280  -21.7010 O.2   3000  GY33000    -0.2725
     12  O12        1.3250   23.9460  -22.9380 O.2   3000  GY33000    -0.2725
     13  C19       -0.7490   24.2300  -20.7490 C.ar  3000  GY33000    -0.0130
     14  C20       -0.8150   22.8250  -20.8440 C.ar  3000  GY33000    -0.0258
     15  C21       -0.9360   22.0650  -19.6790 C.ar  3000  GY33000    -0.0088
     16  C22       -0.9320   22.6930  -18.4280 C.ar  3000  GY33000    -0.0225
     17  C23       -0.7670   24.0850  -18.3370 C.ar  3000  GY33000    -0.0088
     18  C24       -0.6970   24.8620  -19.4960 C.ar  3000  GY33000    -0.0258
     19  C25       -0.6160   26.3930  -19.3240 C.3   3000  GY33000     0.0260
     20  C26       -1.5770   26.9190  -18.2370 C.3   3000  GY33000     0.0050
     21  C27       -1.0320   21.8250  -17.1590 C.3   3000  GY33000     0.0310
     22  C28       -0.8610   22.0680  -22.1780 C.3   3000  GY33000     0.0260
     23  C29       -2.2320   22.2260  -22.8410 C.3   3000  GY33000     0.0050
@<TRIPOS>BOND
     1    10     1    1
     2    10     9    1
     3     1     2    1
     4     2     3    1
     5     9     8    1
     6     3     4    1
     7     8     4    1
     8     8     7   am
     9     4     5   am
    10    12     7    2
    11    23    22    1
    12     7     6    1
    13     5     6    1
    14     5    11    2
    15    22    14    1
    16     6    13    1
    17    14    13   ar
    18    14    15   ar
    19    13    18   ar
    20    15    16   ar
    21    18    19    1
    22    18    17   ar
    23    19    20    1
    24    16    17   ar
    25    16    21    1
