@<TRIPOS>MOLECULE
3pgr_C8E_A_1.pdb
 21 20 0 0 0
SMALL
GASTEIGER

@<TRIPOS>ATOM
      1  C1        10.8160   -2.1730  149.5570 C.3   500  C8E500      0.0000
      2  C2         9.5890   -1.3770  149.1280 C.3   500  C8E500      0.0000
      3  C3         9.8460    0.1240  149.2220 C.3   500  C8E500      0.0000
      4  C4         8.9300    0.9080  148.2860 C.3   500  C8E500      0.0000
      5  C5         9.7210    1.8620  147.3930 C.3   500  C8E500      0.0001
      6  C6         9.1700    1.8740  145.9700 C.3   500  C8E500      0.0026
      7  C7         9.5220    3.1620  145.2330 C.3   500  C8E500      0.0321
      8  C8         9.0790    4.3890  146.0230 C.3   500  C8E500      0.1423
      9  O9         9.0290    5.5160  145.1750 O.3   500  C8E500     -0.3511
     10  C10        7.7120    5.7800  144.7350 C.3   500  C8E500      0.1741
     11  C11        7.6650    7.1310  144.0290 C.3   500  C8E500      0.1742
     12  O12        6.3570    7.4160  143.5800 O.3   500  C8E500     -0.3484
     13  C13        5.9330    8.7080  143.9630 C.3   500  C8E500      0.1742
     14  C14        4.4480    8.6890  144.2960 C.3   500  C8E500      0.1742
     15  O15        3.7940    9.6440  143.4910 O.3   500  C8E500     -0.3484
     16  C16        2.7130   10.2560  144.1540 C.3   500  C8E500      0.1742
     17  C17        1.5030    9.3330  144.0750 C.3   500  C8E500      0.1742
     18  O18        0.6530    9.7200  143.0170 O.3   500  C8E500     -0.3483
     19  C19        1.2730    9.6560  141.7510 C.3   500  C8E500      0.1777
     20  C20        0.5520    8.6400  140.8700 C.3   500  C8E500      0.2140
     21  O21        1.4320    8.1470  139.8840 O.3   500  C8E500     -0.2176
@<TRIPOS>BOND
     1    21    20    1
     2    20    19    1
     3    19    18    1
     4    18    17    1
     5    15    16    1
     6    15    14    1
     7    12    13    1
     8    12    11    1
     9    13    14    1
    10    11    10    1
    11    17    16    1
    12    10     9    1
    13     9     8    1
    14     7     6    1
    15     7     8    1
    16     6     5    1
    17     5     4    1
    18     4     3    1
    19     2     3    1
    20     2     1    1
