@<TRIPOS>MOLECULE
3pgs_C8E_A_1.pdb
 13 12 0 0 0
SMALL
GASTEIGER

@<TRIPOS>ATOM
      1  O9       -31.3450  -41.1830    2.2110 O.3   429  C8E429     -0.2176
      2  C10      -31.3390  -40.9830    3.6100 C.3   429  C8E429      0.2140
      3  C11      -31.4140  -42.3300    4.3140 C.3   429  C8E429      0.1777
      4  O12      -31.0950  -42.1590    5.6770 O.3   429  C8E429     -0.3483
      5  C13      -31.6170  -43.1990    6.4710 C.3   429  C8E429      0.1742
      6  C14      -31.5950  -42.8310    7.9500 C.3   429  C8E429      0.1742
      7  O15      -31.4810  -44.0540    8.6420 O.3   429  C8E429     -0.3484
      8  C16      -32.5060  -44.3090    9.5730 C.3   429  C8E429      0.1742
      9  C17      -31.9080  -44.2800   10.9630 C.3   429  C8E429      0.1742
     10  O18      -32.8150  -44.7340   11.9320 O.3   429  C8E429     -0.3483
     11  C19      -32.6000  -46.0650   12.3280 C.3   429  C8E429      0.1777
     12  C20      -32.7460  -46.1420   13.8400 C.3   429  C8E429      0.2140
     13  O21      -32.1160  -47.3170   14.2980 O.3   429  C8E429     -0.2176
@<TRIPOS>BOND
     1     1     2    1
     2     2     3    1
     3     3     4    1
     4     4     5    1
     5     5     6    1
     6     6     7    1
     7     7     8    1
     8     8     9    1
     9     9    10    1
    10    10    11    1
    11    11    12    1
    12    12    13    1
