@<TRIPOS>MOLECULE
3pgt_GBX_A_1.pdb
 43 47 0 0 0
SMALL
GASTEIGER

@<TRIPOS>ATOM
      1  O2        24.0530   -4.0960    4.2140 O.2   214  GBX214     -0.2714
      2  C1        18.8240   -2.9470    9.6460 C.2   214  GBX214      0.3819
      3  C2        24.9690   -4.1560    5.0410 C.2   214  GBX214      0.2626
      4  C3        27.6780   -2.2350    3.7060 C.2   214  GBX214      0.3865
      5  N1        19.8370   -0.9870   10.8290 N.3   214  GBX214     -0.1208
      6  C7        29.2940   -7.0780    8.8490 C.3   214  GBX214      0.2067
      7  N2        23.2280   -4.0670    6.7720 N.am  214  GBX214     -0.1969
      8  N3        26.2560   -3.9590    4.8080 N.am  214  GBX214     -0.1917
      9  CA1       19.8950   -1.8660    9.6290 C.3   214  GBX214      0.1948
     10  O11       18.3690   -3.3670    8.5750 O.co2 214  GBX214     -0.2441
     11  O12       18.4270   -3.3700   10.7580 O.co2 214  GBX214     -0.2441
     12  CB1       21.2860   -2.4600    9.4430 C.3   214  GBX214      0.0402
     13  CG1       21.4220   -3.3560    8.2240 C.3   214  GBX214      0.0889
     14  CD1       22.8560   -3.7970    8.0180 C.2   214  GBX214      0.2418
     15  OE1       23.6570   -3.8750    8.9520 O.2   214  GBX214     -0.2733
     16  CA2       24.6050   -4.4910    6.4930 C.3   214  GBX214      0.1834
     17  CB2       24.6570   -6.0160    6.6460 C.3   214  GBX214      0.0890
     18  SG2       26.2130   -6.7740    6.0970 S.3   214  GBX214     -0.1316
     19  CA3       26.9180   -3.5420    3.5820 C.3   214  GBX214      0.2285
     20  O31       28.4140   -1.8630    2.7910 O.co2 214  GBX214     -0.2437
     21  O32       27.5540   -1.5390    4.7370 O.co2 214  GBX214     -0.2437
     22  O7        30.4330   -6.5950    8.8700 O.3   214  GBX214     -0.2155
     23  C8        28.3810   -6.2170    8.8160 C.3   214  GBX214      0.2176
     24  O8        28.4690   -5.4620    9.8070 O.3   214  GBX214     -0.2173
     25  C9        26.9570   -6.8040    8.7850 C.3   214  GBX214      0.1989
     26  O9        26.6630   -7.4370   10.0330 O.3   214  GBX214     -0.2190
     27  C10       26.6880   -7.7200    7.6050 C.3   214  GBX214      0.1026
     28  C1'       30.2950   -8.9840    7.5280 C.ar  214  GBX214     -0.0020
     29  C2'       29.1770   -8.2020    7.8430 C.ar  214  GBX214      0.0072
     30  C3'       27.9260   -8.5340    7.2680 C.ar  214  GBX214     -0.0114
     31  C4'       26.5710   -9.9370    5.8030 C.ar  214  GBX214     -0.0003
     32  C5'       26.4690  -10.9950    4.9000 C.ar  214  GBX214     -0.0000
     33  C6'       27.5180  -12.8010    3.6810 C.ar  214  GBX214     -0.0000
     34  C7'       28.6490  -13.5470    3.3470 C.ar  214  GBX214      0.0000
     35  C8'       29.8780  -13.2280    3.9280 C.ar  214  GBX214     -0.0000
     36  C9'       31.1940  -11.8680    5.4250 C.ar  214  GBX214     -0.0000
     37  C9A       31.3000  -10.8030    6.3170 C.ar  214  GBX214     -0.0000
     38  C11       30.1790  -10.0410    6.6330 C.ar  214  GBX214     -0.0003
     39  C12       28.9500  -10.3450    6.0420 C.ar  214  GBX214     -0.0003
     40  C13       27.8100   -9.6020    6.3670 C.ar  214  GBX214     -0.0033
     41  C16       27.5980  -11.7610    4.6060 C.ar  214  GBX214     -0.0000
     42  C17       28.8360  -11.4290    5.1700 C.ar  214  GBX214     -0.0000
     43  C18       29.9740  -12.1650    4.8240 C.ar  214  GBX214     -0.0000
@<TRIPOS>BOND
     1    20     4   ar
     2    34    33   ar
     3    34    35   ar
     4    19     4    1
     5    19     8    1
     6    33    41   ar
     7     4    21   ar
     8    35    43   ar
     9     1     3    2
    10    41    32   ar
    11    41    42   ar
    12     8     3   am
    13    43    42   ar
    14    43    36   ar
    15    32    31   ar
    16     3    16    1
    17    42    39   ar
    18    36    37   ar
    19    31    40   ar
    20    39    40   ar
    21    39    38   ar
    22    18    17    1
    23    18    27    1
    24    37    38   ar
    25    40    30   ar
    26    16    17    1
    27    16     7    1
    28    38    28   ar
    29     7    14   am
    30    30    27    1
    31    30    29   ar
    32    28    29   ar
    33    27    25    1
    34    29     6    1
    35    14    13    1
    36    14    15    2
    37    13    12    1
    38    10     2   ar
    39    25    23    1
    40    25    26    1
    41    23     6    1
    42    23    24    1
    43     6    22    1
    44    12     9    1
    45     9     2    1
    46     9     5    1
    47     2    11   ar
