@<TRIPOS>MOLECULE
3pgu_C8E_A_10.pdb
 16 15 0 0 0
SMALL
GASTEIGER

@<TRIPOS>ATOM
      1  C6       -28.5860   43.2980  -24.1190 C.3   446  C8E446      0.0027
      2  C7       -29.1730   42.4920  -25.2720 C.3   446  C8E446      0.0321
      3  C8       -28.5550   42.9060  -26.6020 C.3   446  C8E446      0.1423
      4  O9       -28.1060   41.7600  -27.2930 O.3   446  C8E446     -0.3511
      5  C10      -29.0580   41.2500  -28.2010 C.3   446  C8E446      0.1741
      6  C11      -28.3430   40.2870  -29.1420 C.3   446  C8E446      0.1742
      7  O12      -28.1630   39.0410  -28.5050 O.3   446  C8E446     -0.3484
      8  C13      -26.9520   38.4350  -28.9000 C.3   446  C8E446      0.1742
      9  C14      -27.1510   37.5820  -30.1480 C.3   446  C8E446      0.1742
     10  O15      -26.7520   38.3330  -31.2740 O.3   446  C8E446     -0.3484
     11  C16      -27.4250   37.9450  -32.4520 C.3   446  C8E446      0.1742
     12  C17      -26.5010   37.0790  -33.3010 C.3   446  C8E446      0.1742
     13  O18      -26.0590   35.9630  -32.5600 O.3   446  C8E446     -0.3483
     14  C19      -26.9560   34.8790  -32.6380 C.3   446  C8E446      0.1777
     15  C20      -26.3680   33.8220  -33.5630 C.3   446  C8E446      0.2140
     16  O21      -25.9230   32.7280  -32.7950 O.3   446  C8E446     -0.2176
@<TRIPOS>BOND
     1    15    16    1
     2    15    14    1
     3    12    13    1
     4    12    11    1
     5    14    13    1
     6    11    10    1
     7    10     9    1
     8     9     8    1
     9     6     7    1
    10     6     5    1
    11     8     7    1
    12     5     4    1
    13     4     3    1
    14     3     2    1
    15     2     1    1
