@<TRIPOS>MOLECULE
3pgu_OLA_A_1.pdb
 13 12 0 0 0
SMALL
GASTEIGER

@<TRIPOS>ATOM
      1  C1       -26.7480    9.6610  -22.3670 C.2   448  OLA448      0.3692
      2  O1       -27.8800    9.1050  -22.4220 O.co2 448  OLA448     -0.2453
      3  O2       -26.4390   10.5290  -23.2140 O.co2 448  OLA448     -0.2453
      4  C2       -25.7670    9.3270  -21.2960 C.3   448  OLA448      0.1397
      5  C3       -26.1420    8.3300  -20.2550 C.2   448  OLA448     -0.0189
      6  C4       -25.3120    8.1890  -19.1790 C.2   448  OLA448     -0.0301
      7  C5       -25.7230    7.3380  -18.0300 C.3   448  OLA448      0.0257
      8  C6       -25.9630    5.8980  -18.3030 C.3   448  OLA448      0.0050
      9  C7       -25.5660    4.9430  -17.2300 C.3   448  OLA448      0.0050
     10  C8       -26.0270    5.2500  -15.8490 C.3   448  OLA448      0.0257
     11  C9       -27.4940    5.4110  -15.6270 C.2   448  OLA448     -0.0307
     12  C10      -27.9390    6.4150  -14.8130 C.2   448  OLA448     -0.0304
     13  C11      -29.3980    6.5840  -14.5520 C.3   448  OLA448      0.0303
@<TRIPOS>BOND
     1     3     1   ar
     2     2     1   ar
     3     1     4    1
     4     4     5    1
     5     5     6    2
     6     6     7    1
     7     8     7    1
     8     8     9    1
     9     9    10    1
    10    10    11    1
    11    11    12    2
    12    12    13    1
