@<TRIPOS>MOLECULE
3pgx_NAD_A_1.pdb
 44 48 0 0 0
SMALL
GASTEIGER

@<TRIPOS>ATOM
      1  PA        80.0180   11.3120   13.7130 P.3   277  NAD277      0.2189
      2  O1A       81.0890   11.0470   12.6620 O.2   277  NAD277     -0.5170
      3  O2A       78.8810   10.3390   13.8690 O.3   277  NAD277     -0.4371
      4  O5B       79.4220   12.7690   13.5290 O.3   277  NAD277     -0.3112
      5  C5B       80.2090   13.7650   12.9060 C.3   277  NAD277      0.1813
      6  C4B       79.3060   14.4200   11.8770 C.3   277  NAD277      0.1821
      7  O4B       80.0590   15.4820   11.3030 O.3   277  NAD277     -0.3135
      8  C3B       78.9670   13.4540   10.7450 C.3   277  NAD277      0.2184
      9  O3B       77.5490   13.4910   10.5210 O.3   277  NAD277     -0.2174
     10  C2B       79.7600   13.9860    9.5710 C.3   277  NAD277      0.2570
     11  O2B       79.1100   13.7560    8.3140 O.3   277  NAD277     -0.2130
     12  C1B       79.8600   15.4710    9.8870 C.3   277  NAD277      0.3186
     13  N9A       80.9700   16.1000    9.1560 N.pl3 277  NAD277     -0.1439
     14  C8A       82.2150   15.5820    9.0190 C.3   277  NAD277      0.3377
     15  N7A       82.9260   16.4130    8.2450 N.2   277  NAD277     -0.2095
     16  C5A       82.1380   17.4540    7.8820 C.2   277  NAD277      0.2526
     17  C6A       82.3300   18.6090    7.0900 C.2   277  NAD277      0.4393
     18  N6A       83.5140   18.8770    6.4470 N.pl3 277  NAD277      0.2180
     19  N1A       81.2910   19.4760    6.9460 N.2   277  NAD277      0.0021
     20  C2A       80.0810   19.2390    7.5030 C.3   277  NAD277      0.5254
     21  N3A       79.8970   18.1240    8.2500 N.2   277  NAD277     -0.0055
     22  C4A       80.8980   17.2430    8.4650 C.2   277  NAD277      0.3518
     23  O3        80.8090   11.4280   15.0910 O.3   277  NAD277     -0.2703
     24  PN        80.4390   12.1930   16.4520 P.3   277  NAD277      0.2189
     25  O1N       81.0750   11.3110   17.5310 O.3   277  NAD277     -0.4371
     26  O2N       78.9390   12.5300   16.5130 O.2   277  NAD277     -0.5170
     27  O5D       81.3500   13.5250   16.3250 O.3   277  NAD277     -0.3112
     28  C5D       80.8740   14.8210   16.7640 C.3   277  NAD277      0.1813
     29  C4D       82.1010   15.6130   17.2730 C.3   277  NAD277      0.1799
     30  O4D       82.6170   14.9600   18.4550 O.3   277  NAD277     -0.3327
     31  C3D       83.2890   15.5940   16.2990 C.3   277  NAD277      0.2158
     32  O3D       83.8360   16.9020   16.2760 O.3   277  NAD277     -0.2175
     33  C2D       84.3050   14.6520   16.9040 C.3   277  NAD277      0.2309
     34  O2D       85.6510   14.9360   16.5550 O.3   277  NAD277     -0.2158
     35  C1D       84.0620   14.8750   18.3900 C.3   277  NAD277      0.2263
     36  N1N       84.4150   13.8510   19.3590 N.pl3 277  NAD277     -0.2787
     37  C2N       83.9580   12.5730   19.2550 C.3   277  NAD277      0.1244
     38  C3N       84.2320   11.6350   20.2470 C.2   277  NAD277      0.0544
     39  C7N       83.7330   10.1990   20.1650 C.2   277  NAD277      0.2818
     40  O7N       84.0970    9.3840   21.0270 O.2   277  NAD277     -0.2670
     41  N7N       82.8900    9.8350   19.1880 N.am  277  NAD277     -0.0839
     42  C4N       84.9710   12.0180   21.3600 C.2   277  NAD277      0.0033
     43  C5N       85.4010   13.3540   21.4750 C.2   277  NAD277      0.0157
     44  C6N       85.1200   14.2650   20.4570 C.2   277  NAD277      0.0633
@<TRIPOS>BOND
     1    18    17    1
     2    19    17    2
     3    19    20    1
     4    17    16    1
     5    20    21    1
     6    16    15    2
     7    16    22    1
     8    15    14    1
     9    21    22    2
    10    11    10    1
    11    22    13    1
    12    14    13    1
    13    13    12    1
    14    10    12    1
    15    10     8    1
    16    12     7    1
    17     9     8    1
    18     8     6    1
    19     7     6    1
    20     6     5    1
    21     2     1    2
    22     5     4    1
    23     4     1    1
    24     1     3    1
    25     1    23    1
    26    23    24    1
    27    32    31    1
    28    31    33    1
    29    31    29    1
    30    27    24    1
    31    27    28    1
    32    24    26    2
    33    24    25    1
    34    34    33    1
    35    28    29    1
    36    33    35    1
    37    29    30    1
    38    35    30    1
    39    35    36    1
    40    41    39   am
    41    37    36    1
    42    37    38    1
    43    36    44    1
    44    39    38    1
    45    39    40    2
    46    38    42    2
    47    44    43    2
    48    42    43    1
