@<TRIPOS>MOLECULE
3ph2_HEM_B_1.pdb
 43 50 0 0 0
SMALL
GASTEIGER

@<TRIPOS>ATOM
      1  CHA       18.4760  -11.5980    9.9080 C.2   1087  HEM1087     0.0000
      2  CHB       20.7780   -8.3550    7.1560 C.2   1087  HEM1087     0.0000
      3  CHC       20.0120  -11.0760    3.2300 C.2   1087  HEM1087     0.0000
      4  CHD       17.1530  -13.9580    5.8430 C.2   1087  HEM1087     0.0000
      5  C1A       19.2270  -10.5180    9.5150 C.2   1087  HEM1087     0.0000
      6  C2A       19.8570   -9.5510   10.3870 C.2   1087  HEM1087     0.0000
      7  C3A       20.5110   -8.6720    9.6190 C.2   1087  HEM1087     0.0000
      8  C4A       20.2870   -9.0370    8.2370 C.2   1087  HEM1087     0.0000
      9  CMA       21.3260   -7.4610   10.0770 C.3   1087  HEM1087     0.0000
     10  CAA       19.7900   -9.6090   11.9180 C.3   1087  HEM1087     0.0000
     11  CBA       20.8070  -10.6270   12.4220 C.3   1087  HEM1087     0.0000
     12  CGA       20.6530  -10.9620   13.8910 C.2   1087  HEM1087     0.0000
     13  O1A       21.6420  -11.4220   14.5020 O.co2 1087  HEM1087     0.0000
     14  O2A       19.5600  -10.8030   14.4660 O.co2 1087  HEM1087     0.0000
     15  C1B       20.7950   -8.8040    5.8600 C.ar  1087  HEM1087     0.0000
     16  C2B       21.4570   -8.1760    4.7390 C.ar  1087  HEM1087     0.0000
     17  C3B       21.2640   -8.9350    3.6580 C.ar  1087  HEM1087     0.0000
     18  C4B       20.4510  -10.0580    4.0510 C.ar  1087  HEM1087     0.0000
     19  CMB       22.2370   -6.8620    4.8580 C.3   1087  HEM1087     0.0000
     20  CAB       21.8000   -8.7260    2.2280 C.2   1087  HEM1087     0.0000
     21  CBB       23.1640   -8.6640    2.1130 C.2   1087  HEM1087     0.0000
     22  C1C       19.1290  -12.0730    3.5800 C.2   1087  HEM1087     0.0000
     23  C2C       18.5210  -13.0340    2.6830 C.2   1087  HEM1087     0.0000
     24  C3C       17.7290  -13.8340    3.4090 C.2   1087  HEM1087     0.0000
     25  C4C       17.8070  -13.3940    4.7820 C.2   1087  HEM1087     0.0000
     26  CMC       18.7810  -13.0730    1.1650 C.3   1087  HEM1087     0.0000
     27  CAC       16.8240  -15.0060    2.9570 C.2   1087  HEM1087     0.0000
     28  CBC       17.3250  -15.9810    2.1690 C.2   1087  HEM1087     0.0000
     29  C1D       17.2720  -13.6090    7.1540 C.ar  1087  HEM1087     0.0000
     30  C2D       16.5810  -14.2770    8.2260 C.ar  1087  HEM1087     0.0000
     31  C3D       16.9890  -13.5520    9.4850 C.ar  1087  HEM1087     0.0000
     32  C4D       17.8780  -12.4990    9.0570 C.ar  1087  HEM1087     0.0000
     33  CMD       15.6230  -15.4760    8.1360 C.3   1087  HEM1087     0.0000
     34  CAD       16.4930  -13.8830   10.9090 C.3   1087  HEM1087     0.0000
     35  CBD       15.1230  -13.2510   11.1450 C.3   1087  HEM1087     0.0000
     36  CGD       15.2380  -11.7770   10.9000 C.2   1087  HEM1087     0.0000
     37  O1D       15.7020  -11.0150   11.7910 O.co2 1087  HEM1087     0.0000
     38  O2D       14.8820  -11.3580    9.7680 O.co2 1087  HEM1087     0.0000
     39  NA        19.5120  -10.1830    8.2050 N.2   1087  HEM1087     0.0000
     40  NB        20.1820   -9.9530    5.4090 N.ar  1087  HEM1087     0.0000
     41  NC        18.6650  -12.3200    4.8620 N.2   1087  HEM1087     0.0000
     42  ND        18.0290  -12.5640    7.6670 N.ar  1087  HEM1087     0.0000
     43 FE         19.1210  -11.2420    6.5300 Fe    1087  HEM1087     0.0000
@<TRIPOS>BOND
     1    26    23    1
     2    21    20    2
     3    28    27    2
     4    20    17    1
     5    23    24    2
     6    23    22    1
     7    27    24    1
     8     3    22    2
     9     3    18    1
    10    24    25    1
    11    22    41    1
    12    17    18   ar
    13    17    16   ar
    14    18    40   ar
    15    16    19    1
    16    16    15   ar
    17    25    41    2
    18    25     4    1
    19    41    43    1
    20    40    15   ar
    21    40    43    1
    22     4    29    2
    23    15     2    1
    24    43    42    1
    25    43    39    1
    26    29    42   ar
    27    29    30   ar
    28     2     8    2
    29    42    32   ar
    30    33    30    1
    31    39     8    1
    32    39     5    2
    33    30    31   ar
    34     8     7    1
    35    32    31   ar
    36    32     1    2
    37    31    34    1
    38     5     1    1
    39     5     6    1
    40     7     9    1
    41     7     6    2
    42    38    36   ar
    43     6    10    1
    44    36    35    1
    45    36    37   ar
    46    34    35    1
    47    10    11    1
    48    11    12    1
    49    12    14   ar
    50    12    13   ar
