@<TRIPOS>MOLECULE
3ph3_RB5_A_1.pdb
 10 9 0 0 0
SMALL
GASTEIGER

@<TRIPOS>ATOM
      1  C1        17.4150  -18.2420  -11.8400 C.3   150  RB5150      0.2175
      2  O1        18.2130  -19.5170  -11.8060 O.3   150  RB5150     -0.2175
      3  C2        17.1990  -17.4470  -13.2110 C.3   150  RB5150      0.2175
      4  O2        18.3050  -17.6170  -14.1180 O.3   150  RB5150     -0.2175
      5  C3        16.8570  -15.9040  -13.1530 C.3   150  RB5150      0.2175
      6  O3        15.5580  -15.6500  -13.7450 O.3   150  RB5150     -0.2175
      7  C4        17.9160  -14.8970  -13.7360 C.3   150  RB5150      0.2175
      8  O4        19.0470  -14.6160  -12.8600 O.3   150  RB5150     -0.2175
      9  C5        17.3560  -13.5410  -14.1540 C.3   150  RB5150      0.2175
     10  O5        18.3650  -12.5580  -13.8890 O.3   150  RB5150     -0.2175
@<TRIPOS>BOND
     1     9    10    1
     2     9     7    1
     3     4     3    1
     4     6     5    1
     5     7     5    1
     6     7     8    1
     7     3     5    1
     8     3     1    1
     9     1     2    1
