@<TRIPOS>MOLECULE
3ph4_AOS_A_1.pdb
 12 11 0 0 0
SMALL
GASTEIGER

@<TRIPOS>ATOM
      1  C1       -29.4550   35.8860   37.3330 C.2   1655  AOS1655     0.2427
      2  O1       -29.5240   34.6560   37.3520 O.2   1655  AOS1655    -0.2854
      3  C2       -28.7960   36.7400   38.4600 C.3   1655  AOS1655     0.2486
      4  O2       -28.2660   36.0090   39.6270 O.3   1655  AOS1655    -0.2118
      5  C3       -29.8200   37.8110   38.9090 C.3   1655  AOS1655     0.2225
      6  O3       -28.9730   38.7280   39.6190 O.3   1655  AOS1655    -0.2171
      7  C4       -31.1510   37.2350   39.6330 C.3   1655  AOS1655     0.2179
      8  O4       -31.4110   35.8470   39.2480 O.3   1655  AOS1655    -0.2175
      9  C5       -32.5260   37.9870   39.4590 C.3   1655  AOS1655     0.2175
     10  O5       -33.2210   38.1840   40.6840 O.3   1655  AOS1655    -0.2175
     11  C6       -33.5720   37.2030   38.6980 C.3   1655  AOS1655     0.2175
     12  O6       -34.4490   38.1810   38.1760 O.3   1655  AOS1655    -0.2175
@<TRIPOS>BOND
     1     1     2    2
     2     1     3    1
     3    12    11    1
     4     3     5    1
     5     3     4    1
     6    11     9    1
     7     5     6    1
     8     5     7    1
     9     8     7    1
    10     9     7    1
    11     9    10    1
