@<TRIPOS>MOLECULE
3ph7_GRG_A_1.pdb
 29 28 0 0 0
SMALL
GASTEIGER

@<TRIPOS>ATOM
      1  C20       30.6450   13.2180    9.5260 C.3   1502  GRG1502     0.0347
      2  C19       30.6180   10.6980    9.8690 C.3   1502  GRG1502     0.0347
      3  C18       31.4230   11.9410    9.6390 C.2   1502  GRG1502    -0.0096
      4  C17       32.6910   11.9290    9.5290 C.1   1502  GRG1502    -0.1140
      5  C16       33.9520   11.9490    9.3590 C.2   1502  GRG1502     0.0195
      6  C14       33.8740   14.2930   11.7820 C.3   1502  GRG1502     0.0351
      7  C13       34.5590   12.9800   11.6630 C.2   1502  GRG1502    -0.0049
      8  C15       35.0240   12.5300   10.2910 C.3   1502  GRG1502     0.0640
      9  C12       34.7360   12.3190   12.7210 C.1   1502  GRG1502    -0.1137
     10  C11       34.8740   11.7020   13.8130 C.2   1502  GRG1502     0.0195
     11  C9        35.5470   12.3320   15.0180 C.3   1502  GRG1502     0.0640
     12  C8        34.9190   11.9310   16.3410 C.2   1502  GRG1502    -0.0049
     13  C10       33.7790   12.7330   16.8760 C.3   1502  GRG1502     0.0351
     14  C7        35.3040   10.9400   17.0210 C.1   1502  GRG1502    -0.1137
     15  C6        35.6330    9.9510   17.7310 C.2   1502  GRG1502     0.0195
     16  C5        35.1370    9.8630   19.1500 C.3   1502  GRG1502     0.0641
     17  C3        34.6920    8.4790   19.5770 C.2   1502  GRG1502    -0.0016
     18  C4        34.4400    7.3980   18.5630 C.3   1502  GRG1502     0.0352
     19  C2        34.5300    8.2500   20.8110 C.1   1502  GRG1502    -0.0697
     20  C1        34.3780    8.0360   22.0480 C.2   1502  GRG1502     0.2203
     21  O1        33.0580    8.1690   22.6380 O.2   1502  GRG1502    -0.4283
     22  PA        32.6140    7.2460   23.8750 P.3   1502  GRG1502     0.2785
     23  O1A       33.7040    7.3820   24.9280 O.3   1502  GRG1502    -0.4271
     24  O3A       32.6290    5.7450   23.2600 O.3   1502  GRG1502    -0.2159
     25  O2A       31.2010    7.6450   24.2210 O.2   1502  GRG1502    -0.5079
     26  PB        31.4610    4.6130   23.2150 P.3   1502  GRG1502     0.5380
     27  O1B       30.5930    4.9780   22.0530 O.2   1502  GRG1502    -0.2221
     28  O2B       32.2110    3.3530   22.9240 O.3   1502  GRG1502    -0.1143
     29  O3B       30.7360    4.6390   24.5440 O.3   1502  GRG1502    -0.1143
@<TRIPOS>BOND
     1     5     4    2
     2     5     8    1
     3     1     3    1
     4     4     3    2
     5     3     2    1
     6     8     7    1
     7     7     6    1
     8     7     9    2
     9     9    10    2
    10    10    11    1
    11    11    12    1
    12    12    13    1
    13    12    14    2
    14    14    15    2
    15    15    16    1
    16    18    17    1
    17    16    17    1
    18    17    19    2
    19    19    20    2
    20    20    21    1
    21    27    26    2
    22    21    22    1
    23    28    26    1
    24    26    24    1
    25    26    29    1
    26    24    22    1
    27    22    25    2
    28    22    23    1
