@<TRIPOS>MOLECULE
3pha_ACR_A_1.pdb
 44 47 0 0 0
SMALL
GASTEIGER

@<TRIPOS>ATOM
      1  C1A        9.0840   11.1520   41.5350 C.3   701  ACR701      0.1273
      2  C2A        8.8560   10.1710   40.3850 C.3   701  ACR701      0.2049
      3  C3A        9.6210   10.6490   39.1690 C.3   701  ACR701      0.2179
      4  C4A        9.0080   11.9270   38.6360 C.3   701  ACR701      0.2053
      5  C5A        8.7080   12.8920   39.7530 C.2   701  ACR701      0.0180
      6  C6A        8.0150   14.1720   39.3730 C.3   701  ACR701      0.2066
      7  C7A        8.7140   12.5460   41.0530 C.2   701  ACR701     -0.0100
      8  O2A        9.2250    8.8320   40.7400 O.3   701  ACR701     -0.2184
      9  O3A        9.6260    9.6600   38.1440 O.3   701  ACR701     -0.2172
     10  O4A        9.8740   12.5250   37.6770 O.3   701  ACR701     -0.2157
     11  O6A        6.6000   13.9650   39.3890 O.3   701  ACR701     -0.2155
     12  C1B       12.2340   13.4430   45.3210 C.3   701  ACR701      0.2694
     13  C2B       11.2010   12.3300   45.5520 C.3   701  ACR701      0.2394
     14  C3B       11.2140   11.2920   44.4380 C.3   701  ACR701      0.2054
     15  C4B       10.8990   12.0260   43.1410 C.3   701  ACR701      0.1333
     16  C5B       12.1160   12.9030   42.8630 C.3   701  ACR701      0.1364
     17  C6B       12.0000   13.6600   41.5380 C.3   701  ACR701      0.0337
     18  N4B       10.4640   11.1580   42.0410 N.3   701  ACR701     -0.2087
     19  O2B       11.5110   11.6840   46.7950 O.3   701  ACR701     -0.2149
     20  O3B       10.2890   10.2360   44.7160 O.3   701  ACR701     -0.2186
     21  O5B       12.3520   13.8370   43.9390 O.3   701  ACR701     -0.3295
     22  C1C       17.4640   14.5710   45.9260 C.3   701  ACR701      0.2695
     23  C2C       16.3060   15.2220   46.6960 C.3   701  ACR701      0.2404
     24  C3C       15.1240   14.2910   46.8780 C.3   701  ACR701      0.2167
     25  C4C       14.6940   13.7830   45.5180 C.3   701  ACR701      0.1804
     26  C5C       15.8660   12.9660   44.9640 C.3   701  ACR701      0.1803
     27  C6C       15.5750   12.1840   43.6730 C.3   701  ACR701      0.2141
     28  O2C       16.7410   15.6270   48.0050 O.3   701  ACR701     -0.2149
     29  O3C       14.0460   14.9660   47.5380 O.3   701  ACR701     -0.2175
     30  O4C       13.5370   12.9510   45.6780 O.3   701  ACR701     -0.3257
     31  O5C       17.0350   13.7880   44.7980 O.3   701  ACR701     -0.3257
     32  O6C       16.0780   12.8680   42.5070 O.3   701  ACR701     -0.2176
     33  C1D       22.2600   12.4580   46.9780 C.3   701  ACR701      0.3023
     34  C2D       21.7180   13.5580   47.9060 C.3   701  ACR701      0.2433
     35  C3D       20.4850   14.3000   47.3820 C.3   701  ACR701      0.2168
     36  C4D       19.5980   13.4500   46.4660 C.3   701  ACR701      0.1804
     37  C5D       19.8830   11.9580   46.6450 C.3   701  ACR701      0.1804
     38  C6D       18.9840   11.1260   45.7390 C.3   701  ACR701      0.2141
     39  O1D       22.9740   11.4600   47.7230 O.3   701  ACR701     -0.1869
     40  O2D       21.4750   13.0840   49.2330 O.3   701  ACR701     -0.2148
     41  O3D       20.8300   15.5580   46.7900 O.3   701  ACR701     -0.2175
     42  O4D       18.2090   13.6490   46.7380 O.3   701  ACR701     -0.3257
     43  O5D       21.2490   11.6730   46.3270 O.3   701  ACR701     -0.3237
     44  O6D       19.4760   11.1380   44.3960 O.3   701  ACR701     -0.2176
@<TRIPOS>BOND
     1    10     4    1
     2     9     3    1
     3     4     3    1
     4     4     5    1
     5     3     2    1
     6     6    11    1
     7     6     5    1
     8     5     7    2
     9     2     8    1
    10     2     1    1
    11     7     1    1
    12     1    18    1
    13    17    16    1
    14    18    15    1
    15    32    27    1
    16    16    15    1
    17    16    21    1
    18    15    14    1
    19    27    26    1
    20    21    12    1
    21    44    38    1
    22    14    20    1
    23    14    13    1
    24    31    26    1
    25    31    22    1
    26    26    25    1
    27    12    13    1
    28    12    30    1
    29    25    30    1
    30    25    24    1
    31    13    19    1
    32    38    37    1
    33    22    23    1
    34    22    42    1
    35    43    37    1
    36    43    33    1
    37    36    37    1
    38    36    42    1
    39    36    35    1
    40    23    24    1
    41    23    28    1
    42    41    35    1
    43    24    29    1
    44    33    39    1
    45    33    34    1
    46    35    34    1
    47    34    40    1
