@<TRIPOS>MOLECULE
3phb_IM5_E_1.pdb
 20 22 0 0 0
SMALL
GASTEIGER

@<TRIPOS>ATOM
      1  N1       -41.4340    3.8740   -2.3240 N.2   290  IM5290     -0.2486
      2  C2       -41.3040    2.8280   -3.1720 C.1   290  IM5290      0.2519
      3  N2       -40.0970    2.5410   -3.6860 N.pl3 290  IM5290     -0.0226
      4  N3       -42.3320    2.0530   -3.5330 N.2   290  IM5290     -0.3232
      5  C4       -43.5500    2.3460   -3.0350 C.2   290  IM5290      0.1736
      6  C5       -43.7870    3.4470   -2.1040 C.2   290  IM5290      0.2065
      7  C6       -42.5900    4.2350   -1.7560 C.1   290  IM5290      0.2362
      8  O6       -42.6530    5.2160   -0.9820 O.2   290  IM5290     -0.2069
      9  N7       -45.0900    3.4460   -1.8220 N.2   290  IM5290     -0.2292
     10  C8       -45.7320    2.4390   -2.4810 C.2   290  IM5290      0.0995
     11  C9       -44.8480    1.6920   -3.2490 C.2   290  IM5290      0.0458
     12  N1'      -44.8570   -0.7840   -3.6210 N.3   290  IM5290     -0.2665
     13  C10      -45.1470    0.5240   -4.1600 C.3   290  IM5290      0.1035
     14  C2'      -43.4210   -1.0730   -3.5980 C.3   290  IM5290      0.1057
     15  C3'      -43.3950   -2.3150   -2.7190 C.3   290  IM5290      0.1717
     16  O3'      -43.7060   -3.4640   -3.5190 O.3   290  IM5290     -0.2215
     17  C4'      -44.5030   -2.1040   -1.7060 C.3   290  IM5290      0.0807
     18  C5'      -43.9570   -1.6430   -0.3760 C.3   290  IM5290      0.1860
     19  O5'      -45.0810   -1.3230    0.4370 O.3   290  IM5290     -0.2203
     20  C6'      -45.3680   -0.9810   -2.2620 C.3   290  IM5290      0.0776
@<TRIPOS>BOND
     1    13    12    1
     2    13    11    1
     3     3     2    1
     4    12    14    1
     5    12    20    1
     6    14    15    1
     7     4     2    2
     8     4     5    2
     9    16    15    1
    10    11     5    1
    11    11    10    2
    12     2     1    2
    13     5     6    1
    14    15    17    1
    15    10     9    1
    16     1     7    2
    17    20    17    1
    18     6     9    2
    19     6     7    1
    20     7     8    2
    21    17    18    1
    22    18    19    1
