@<TRIPOS>MOLECULE
3phc_IM5_A_1.pdb
 20 22 0 0 0
SMALL
GASTEIGER

@<TRIPOS>ATOM
      1  N1       -17.7000    6.9640  -16.7030 N.2   501  IM5501     -0.2486
      2  C2       -16.6010    7.7530  -16.5970 C.1   501  IM5501      0.2519
      3  N2       -15.5270    7.2480  -15.9380 N.pl3 501  IM5501     -0.0226
      4  N3       -16.5360    9.0080  -17.1380 N.2   501  IM5501     -0.3232
      5  C4       -17.6220    9.4810  -17.7970 C.2   501  IM5501      0.1736
      6  C5       -18.8480    8.6870  -17.9500 C.2   501  IM5501      0.2065
      7  C6       -18.8290    7.3430  -17.3390 C.1   501  IM5501      0.2362
      8  O6       -19.8350    6.5970  -17.4120 O.2   501  IM5501     -0.2069
      9  N7       -19.7310    9.4210  -18.6510 N.2   501  IM5501     -0.2292
     10  C8       -19.1850   10.6320  -18.9660 C.2   501  IM5501      0.0995
     11  C9       -17.8820   10.7610  -18.4970 C.2   501  IM5501      0.0458
     12  N1'      -15.9840   12.1340  -19.6270 N.3   501  IM5501     -0.2665
     13  C10      -17.0330   12.0110  -18.6170 C.3   501  IM5501      0.1035
     14  C2'      -14.7240   11.5530  -19.1280 C.3   501  IM5501      0.1057
     15  C3'      -13.9360   11.4010  -20.4140 C.3   501  IM5501      0.1717
     16  O3'      -13.3510   12.6680  -20.6790 O.3   501  IM5501     -0.2215
     17  C4'      -14.9580   11.0960  -21.4930 C.3   501  IM5501      0.0807
     18  C5'      -15.0090    9.6070  -21.7830 C.3   501  IM5501      0.1860
     19  O5'      -16.2380    9.3230  -22.4670 O.3   501  IM5501     -0.2203
     20  C6'      -16.3040   11.5490  -20.9430 C.3   501  IM5501      0.0776
@<TRIPOS>BOND
     1    19    18    1
     2    18    17    1
     3    17    20    1
     4    17    15    1
     5    20    12    1
     6    16    15    1
     7    15    14    1
     8    12    14    1
     9    12    13    1
    10    10     9    1
    11    10    11    2
    12     9     6    2
    13    13    11    1
    14    11     5    1
    15     6     5    1
    16     6     7    1
    17     5     4    2
    18     8     7    2
    19     7     1    2
    20     4     2    2
    21     1     2    2
    22     2     3    1
