@<TRIPOS>MOLECULE
3phd_III_E_1.pdb
 29 28 0 0 0
SMALL
GASTEIGER

@<TRIPOS>ATOM
      1  N          6.5190   63.3600   32.3800 N.3    71  LEU71      -0.1231
      2  CA         5.1790   63.9070   32.1130 C.3    71  LEU71       0.1694
      3  C          4.5750   63.2190   30.8810 C.2    71  LEU71       0.2592
      4  O          3.9600   63.8930   30.0430 O.2    71  LEU71      -0.2718
      5  CB         5.1970   65.4520   31.9660 C.3    71  LEU71       0.0304
      6  N          4.7630   61.8700   30.7710 N.am   72  ARG72      -0.1966
      7  CA         4.3180   61.0570   29.6200 C.3    72  ARG72       0.1728
      8  C          2.8490   61.2660   29.1760 C.2    72  ARG72       0.2616
      9  O          2.6040   61.4400   27.9800 O.2    72  ARG72      -0.2715
     10  CB         4.7000   59.5710   29.7680 C.3    72  ARG72       0.0334
     11  N          1.8940   61.3020   30.1510 N.am   73  LEU73      -0.1963
     12  CA         0.4470   61.5250   29.9750 C.3    73  LEU73       0.1728
     13  C         -0.2460   60.5220   28.9800 C.2    73  LEU73       0.2616
     14  O          0.3200   59.4550   28.6950 O.2    73  LEU73      -0.2715
     15  CB         0.1660   63.0140   29.6610 C.3    73  LEU73       0.0334
     16  N         -1.4690   60.8460   28.4890 N.am   74  ARG74      -0.1963
     17  CA        -2.2500   60.0290   27.5550 C.3    74  ARG74       0.1728
     18  C         -1.5540   59.9470   26.1770 C.2    74  ARG74       0.2617
     19  O         -1.2220   60.9700   25.6070 O.2    74  ARG74      -0.2715
     20  CB        -3.6960   60.5740   27.4550 C.3    74  ARG74       0.0334
     21  N         -1.2980   58.7330   25.6920 N.am   75  GLY75      -0.1940
     22  CA        -0.6690   58.4720   24.3960 C.3    75  GLY75       0.2014
     23  C         -1.5620   58.7780   23.2120 C.2    75  GLY75       0.2640
     24  O         -2.7430   59.0600   23.3800 O.2    75  GLY75      -0.2714
     25  N         -1.0080   58.7250   22.0080 N.am   76  GLY76      -0.1917
     26  CA        -1.7100   59.0460   20.7670 C.3    76  GLY76       0.2285
     27  C         -1.9460   60.5420   20.6120 C.2    76  GLY76       0.3865
     28  O         -2.7930   60.9370   19.7700 O.co2  76  GLY76      -0.2437
     29  OXT       -1.2880   61.3330   21.3420 O.co2  76  GLY76      -0.2437
@<TRIPOS>BOND
     1    28    27   ar
     2    27    26    1
     3    27    29   ar
     4    26    25    1
     5    25    23   am
     6    23    24    2
     7    23    22    1
     8    22    21    1
     9    19    18    2
    10    21    18   am
    11    18    17    1
    12    20    17    1
    13    17    16    1
    14     9     8    2
    15    16    13   am
    16    14    13    2
    17    13    12    1
    18     8     7    1
    19     8    11   am
    20     7    10    1
    21     7     6    1
    22    15    12    1
    23    12    11    1
    24     4     3    2
    25     6     3   am
    26     3     2    1
    27     5     2    1
    28     2     1    1
