@<TRIPOS>MOLECULE
3phe_C9A_A_1.pdb
 41 45 0 0 0
SMALL
GASTEIGER

@<TRIPOS>ATOM
      1  C1        36.0200   68.9140   19.1500 C.3   999  C9A999      0.0897
      2  N2        35.2550   70.0370   19.7010 N.3   999  C9A999     -0.2686
      3  C3        35.6430   71.3160   19.0310 C.3   999  C9A999      0.0938
      4  C4        34.9380   72.5400   19.6560 C.3   999  C9A999      0.1082
      5  N5        35.1970   72.5870   21.1280 N.pl3 999  C9A999     -0.3029
      6  C6        34.7740   71.3370   21.8240 C.3   999  C9A999      0.1082
      7  C7        35.4820   70.1210   21.1820 C.3   999  C9A999      0.0938
      8  C8        34.6950   73.8340   21.6890 C.ar  999  C9A999      0.0772
      9  C9        35.4630   75.0480   21.7260 C.ar  999  C9A999      0.1535
     10  F10       36.7090   75.0900   21.2380 F     999  C9A999     -0.2029
     11  C11       34.9580   76.2470   22.2670 C.ar  999  C9A999      0.0355
     12  C12       33.6460   76.2820   22.8060 C.ar  999  C9A999      0.0573
     13  C13       33.1260   77.5660   23.3750 C.ar  999  C9A999      0.2047
     14  O14       33.8530   78.5500   23.3930 O.2   999  C9A999     -0.2862
     15  C15       31.7390   77.6260   23.9460 C.ar  999  C9A999      0.1316
     16  C16       31.0320   76.4680   23.9130 C.ar  999  C9A999      0.0859
     17  N17       31.4630   75.2220   23.4000 N.ar  999  C9A999     -0.3214
     18  C18       30.5840   74.0170   23.5310 C.3   999  C9A999      0.1328
     19  C19       30.8980   73.1650   24.7810 C.ar  999  C9A999      0.0005
     20  C20       31.7570   73.6430   25.8400 C.ar  999  C9A999     -0.0011
     21  C21       32.0330   72.8500   26.9760 C.ar  999  C9A999      0.0181
     22  C22       31.4580   71.5600   27.0820 C.ar  999  C9A999      0.1057
     23  C23       30.6090   71.0570   26.0600 C.ar  999  C9A999      0.0181
     24  C24       30.3330   71.8570   24.9170 C.ar  999  C9A999     -0.0011
     25  S25       31.8080   70.5860   28.5030 S.O2  999  C9A999      0.0104
     26  C26       33.2230   69.6330   28.0210 C.3   999  C9A999      0.1816
     27  O27       30.7130   69.6590   28.6970 O.2   999  C9A999     -0.1686
     28  O28       32.2000   71.4900   29.5640 O.2   999  C9A999     -0.1686
     29  C29       32.8040   75.1160   22.8190 C.ar  999  C9A999      0.0646
     30  C30       33.3660   73.9130   22.2500 C.ar  999  C9A999      0.0341
     31  C31       31.1800   78.8900   24.5140 C.2   999  C9A999      0.3462
     32  O32       31.7850   79.9650   24.5020 O.2   999  C9A999     -0.2447
     33  O33       29.9140   78.6850   25.0430 O.3   999  C9A999     -0.4403
     34  C34       29.3400   79.7470   25.8460 C.3   999  C9A999      0.2354
     35  C35       29.7340   79.5740   27.3000 C.ar  999  C9A999      0.0213
     36  C36       29.3290   78.4180   28.0350 C.ar  999  C9A999      0.0002
     37  C37       29.7010   78.2650   29.4010 C.ar  999  C9A999      0.0112
     38  C38       30.4820   79.2670   30.0360 C.ar  999  C9A999      0.0577
     39 CL39       30.9230   79.0850   31.6730 Cl    999  C9A999     -0.0822
     40  C40       30.8940   80.4190   29.3210 C.ar  999  C9A999      0.0112
     41  C41       30.5210   80.5700   27.9570 C.ar  999  C9A999      0.0002
@<TRIPOS>BOND
     1     3     4    1
     2     3     2    1
     3     1     2    1
     4     4     5    1
     5     2     7    1
     6     5     8    1
     7     5     6    1
     8     7     6    1
     9    10     9    1
    10     8     9   ar
    11     8    30   ar
    12     9    11   ar
    13    30    29   ar
    14    11    12   ar
    15    12    29   ar
    16    12    13   ar
    17    29    17   ar
    18    13    14    2
    19    13    15   ar
    20    17    18    1
    21    17    16   ar
    22    18    19    1
    23    16    15   ar
    24    15    31    1
    25    32    31    2
    26    31    33    1
    27    19    24   ar
    28    19    20   ar
    29    24    23   ar
    30    33    34    1
    31    20    21   ar
    32    34    35    1
    33    23    22   ar
    34    21    22   ar
    35    22    25    1
    36    35    41   ar
    37    35    36   ar
    38    41    40   ar
    39    26    25    1
    40    36    37   ar
    41    25    27    2
    42    25    28    2
    43    40    38   ar
    44    37    38   ar
    45    38    39    1
