@<TRIPOS>MOLECULE
3phh_SKM_A_1.pdb
 12 12 0 0 0
SMALL
GASTEIGER

@<TRIPOS>ATOM
      1  O12        3.3330   -6.5880  -12.8270 O.3   500  SKM500     -0.2173
      2  C8         3.8400   -5.3650  -13.3730 C.3   500  SKM500      0.2167
      3  C6         4.3000   -5.6350  -14.7910 C.3   500  SKM500      0.1896
      4  O7         5.3070   -6.6600  -14.7660 O.3   500  SKM500     -0.2200
      5  C5         4.8970   -4.3880  -15.4190 C.3   500  SKM500      0.0684
      6  C4         4.0780   -3.1360  -15.1270 C.2   500  SKM500      0.0584
      7  C1         4.3080   -1.9280  -15.9200 C.2   500  SKM500      0.3837
      8  O2         5.2560   -1.9240  -16.7180 O.co2 500  SKM500     -0.2409
      9  O3         3.5650   -0.9270  -15.7930 O.co2 500  SKM500     -0.2409
     10  C10        3.1660   -3.0810  -14.1400 C.2   500  SKM500      0.0111
     11  C9         2.7690   -4.2710  -13.2950 C.3   500  SKM500      0.2066
     12  O11        1.4910   -4.7200  -13.7740 O.3   500  SKM500     -0.2155
@<TRIPOS>BOND
     1     8     7   ar
     2     7     9   ar
     3     7     6    1
     4     5     6    1
     5     5     3    1
     6     6    10    2
     7     3     4    1
     8     3     2    1
     9    10    11    1
    10    12    11    1
    11     2    11    1
    12     2     1    1
