@<TRIPOS>MOLECULE
3phi_NDP_A_1.pdb
 48 52 0 0 0
SMALL
GASTEIGER

@<TRIPOS>ATOM
      1  PA        17.5250   -9.4610   44.4030 P.3   1411  NDP1411     0.2189
      2  O1A       18.0930  -10.0400   43.1330 O.2   1411  NDP1411    -0.5170
      3  O2A       18.5050   -8.9410   45.4120 O.3   1411  NDP1411    -0.4371
      4  O5B       16.5620  -10.5660   45.0900 O.3   1411  NDP1411    -0.3112
      5  C5B       15.4330  -11.0970   44.3960 C.3   1411  NDP1411     0.1813
      6  C4B       14.7960  -12.1970   45.2320 C.3   1411  NDP1411     0.1820
      7  O4B       13.7040  -12.7510   44.5190 O.3   1411  NDP1411    -0.3136
      8  C3B       15.7530  -13.3440   45.5060 C.3   1411  NDP1411     0.2157
      9  O3B       15.4230  -13.6910   46.8460 O.3   1411  NDP1411    -0.2175
     10  C2B       15.3110  -14.4390   44.5470 C.3   1411  NDP1411     0.2314
     11  O2B       15.5620  -15.7400   45.0660 O.3   1411  NDP1411    -0.2630
     12  C1B       13.8270  -14.1750   44.5310 C.3   1411  NDP1411     0.3158
     13  N9A       13.1640  -14.7710   43.3630 N.pl3 1411  NDP1411    -0.1439
     14  C8A       13.4440  -14.5250   42.0710 C.3   1411  NDP1411     0.3377
     15  N7A       12.6210  -15.2730   41.3060 N.2   1411  NDP1411    -0.2095
     16  C5A       11.8290  -15.9760   42.1420 C.2   1411  NDP1411     0.2526
     17  C6A       10.8270  -16.9050   41.9380 C.2   1411  NDP1411     0.4393
     18  N6A       10.4290  -17.2100   40.6760 N.pl3 1411  NDP1411     0.2180
     19  N1A       10.2030  -17.4230   43.0070 N.2   1411  NDP1411     0.0021
     20  C2A       10.5480  -17.0850   44.2600 C.3   1411  NDP1411     0.5254
     21  N3A       11.5490  -16.2300   44.4850 N.2   1411  NDP1411    -0.0055
     22  C4A       12.1640  -15.6360   43.4380 C.2   1411  NDP1411     0.3518
     23  O3        16.4950   -8.2950   43.9480 O.3   1411  NDP1411    -0.2703
     24  PN        16.0200   -7.0270   44.8390 P.3   1411  NDP1411     0.2189
     25  O1N       17.0510   -5.9190   44.6710 O.2   1411  NDP1411    -0.5170
     26  O2N       15.6430   -7.5370   46.2150 O.3   1411  NDP1411    -0.4371
     27  O5D       14.6600   -6.5920   44.0950 O.3   1411  NDP1411    -0.3112
     28  C5D       13.5080   -7.4310   44.2100 C.3   1411  NDP1411     0.1813
     29  C4D       12.3160   -6.7880   43.5290 C.3   1411  NDP1411     0.1799
     30  O4D       11.7980   -5.7750   44.3840 O.3   1411  NDP1411    -0.3327
     31  C3D       12.6710   -6.0970   42.2260 C.3   1411  NDP1411     0.2158
     32  O3D       11.5490   -6.2710   41.3570 O.3   1411  NDP1411    -0.2175
     33  C2D       12.7670   -4.6300   42.5770 C.3   1411  NDP1411     0.2309
     34  O2D       12.4390   -3.8140   41.4520 O.3   1411  NDP1411    -0.2158
     35  C1D       11.6800   -4.5690   43.6320 C.3   1411  NDP1411     0.2263
     36  N1N       11.7290   -3.4550   44.5880 N.pl3 1411  NDP1411    -0.2787
     37  C2N       10.7130   -2.5290   44.2790 C.3   1411  NDP1411     0.1244
     38  C3N       10.8210   -1.1750   44.5600 C.2   1411  NDP1411     0.0544
     39  C7N        9.6420   -0.2840   44.3010 C.2   1411  NDP1411     0.2818
     40  O7N        9.6580    0.4880   43.2210 O.2   1411  NDP1411    -0.2670
     41  N7N        8.6630   -0.3500   45.0150 N.am  1411  NDP1411    -0.0839
     42  C4N       12.0410   -0.6610   44.9620 C.2   1411  NDP1411     0.0033
     43  C5N       13.1100   -1.5370   45.1370 C.2   1411  NDP1411     0.0157
     44  C6N       12.9920   -2.8890   44.8210 C.2   1411  NDP1411     0.0633
     45  P2B       16.7950  -16.6540   44.5250 P.3   1411  NDP1411     0.5328
     46  O1X       17.9950  -16.1230   45.2690 O.3   1411  NDP1411    -0.1145
     47  O2X       16.2750  -18.0270   44.8950 O.3   1411  NDP1411    -0.1145
     48  O3X       16.9380  -16.4240   43.0370 O.2   1411  NDP1411    -0.2224
@<TRIPOS>BOND
     1    18    17    1
     2    15    14    1
     3    15    16    2
     4    32    31    1
     5    34    33    1
     6    17    16    1
     7    17    19    2
     8    14    13    1
     9    16    22    1
    10    31    33    1
    11    31    29    1
    12    33    35    1
    13    19    20    1
    14    48    45    2
    15     2     1    2
    16    40    39    2
    17    13    22    1
    18    13    12    1
    19    22    21    2
    20    29    28    1
    21    29    30    1
    22    35    30    1
    23    35    36    1
    24    23     1    1
    25    23    24    1
    26    27    28    1
    27    27    24    1
    28    20    21    1
    29    37    38    1
    30    37    36    1
    31    39    38    1
    32    39    41   am
    33     5     4    1
    34     5     6    1
    35     1     4    1
    36     1     3    1
    37     7    12    1
    38     7     6    1
    39    45    47    1
    40    45    11    1
    41    45    46    1
    42    12    10    1
    43    10    11    1
    44    10     8    1
    45    38    42    2
    46    36    44    1
    47    25    24    2
    48    44    43    2
    49    24    26    1
    50    42    43    1
    51     6     8    1
    52     8     9    1
