@<TRIPOS>MOLECULE
3phi_SKM_A_1.pdb
 12 12 0 0 0
SMALL
GASTEIGER

@<TRIPOS>ATOM
      1  O12       15.9330    0.5770   45.5480 O.3   500  SKM500     -0.2173
      2  C8        15.3500    1.0450   44.3430 C.3   500  SKM500      0.2167
      3  C6        16.4900    1.3920   43.4050 C.3   500  SKM500      0.1896
      4  O7        17.3100    2.3950   44.0060 O.3   500  SKM500     -0.2200
      5  C5        15.9270    1.9770   42.1130 C.3   500  SKM500      0.0684
      6  C4        14.8230    1.1280   41.5400 C.2   500  SKM500      0.0584
      7  C1        14.4160    1.3640   40.1510 C.2   500  SKM500      0.3837
      8  O2        14.9030    2.3350   39.5080 O.co2 500  SKM500     -0.2409
      9  O3        13.6150    0.5560   39.6270 O.co2 500  SKM500     -0.2409
     10  C10       14.1080    0.2780   42.2910 C.2   500  SKM500      0.0111
     11  C9        14.4690   -0.0370   43.7380 C.3   500  SKM500      0.2066
     12  O11       15.2080   -1.2570   43.7480 O.3   500  SKM500     -0.2155
@<TRIPOS>BOND
     1     8     7   ar
     2     9     7   ar
     3     7     6    1
     4     6     5    1
     5     6    10    2
     6     5     3    1
     7    10    11    1
     8     3     4    1
     9     3     2    1
    10    11    12    1
    11    11     2    1
    12     2     1    1
