@<TRIPOS>MOLECULE
3phj_DHK_A_1.pdb
 12 12 0 0 0
SMALL
GASTEIGER

@<TRIPOS>ATOM
      1  C2        13.7180   -1.4260   42.6610 C.3   500  DHK500      0.0470
      2  C3        14.2020   -1.6580   43.9060 C.3   500  DHK500      0.1852
      3  O3        14.0010   -2.8430   44.4800 O.3   500  DHK500     -0.2203
      4  C4        14.9600   -0.5620   44.6210 C.3   500  DHK500      0.2122
      5  O4        15.6690   -1.0910   45.7270 O.3   500  DHK500     -0.2177
      6  C5        16.0170    0.0610   43.7100 C.3   500  DHK500      0.1852
      7  C1        14.6010   -0.6370   41.7460 C.3   500  DHK500      0.1086
      8  C6        15.2880    0.5430   42.4690 C.3   500  DHK500      0.0470
      9  C         13.9880   -0.3090   40.4080 C.2   500  DHK500      0.3645
     10  O1        14.3940    0.7510   39.7620 O.co2 500  DHK500     -0.2457
     11  O2        13.1200   -1.1140   39.8020 O.co2 500  DHK500     -0.2457
     12  O5        16.7280    1.1490   44.3810 O.3   500  DHK500     -0.2203
@<TRIPOS>BOND
     1    10     9   ar
     2    11     9   ar
     3     9     7    1
     4     7     8    1
     5     7     1    1
     6     8     6    1
     7     1     2    1
     8     6    12    1
     9     6     4    1
    10     2     3    1
    11     2     4    1
    12     4     5    1
