@<TRIPOS>MOLECULE
3phz_SIA_A_1.pdb
 20 20 0 0 0
SMALL
GASTEIGER

@<TRIPOS>ATOM
      1  C1       -17.7720   -8.5200  -56.3000 C.2   303  SIA303      0.3914
      2  C2       -17.3710   -9.3440  -57.5430 C.3   303  SIA303      0.2203
      3  C3       -17.7850  -10.8260  -57.4010 C.3   303  SIA303      0.0760
      4  C4       -18.9850  -11.3040  -58.2420 C.3   303  SIA303      0.1773
      5  C5       -19.6110  -10.3300  -59.2600 C.3   303  SIA303      0.1552
      6  C6       -19.2190   -8.8430  -59.0250 C.3   303  SIA303      0.1710
      7  C7       -19.6200   -7.8980  -60.1740 C.3   303  SIA303      0.2134
      8  C8       -19.2820   -6.4100  -59.8580 C.3   303  SIA303      0.2173
      9  C9       -19.8610   -5.4360  -60.8870 C.3   303  SIA303      0.2175
     10  C10      -21.8080  -10.9660  -60.2340 C.2   303  SIA303      0.2420
     11  C11      -23.3050  -11.2430  -60.0290 C.3   303  SIA303      0.0964
     12  N5       -21.0520  -10.5980  -59.1890 N.am  303  SIA303     -0.2020
     13  O1A      -18.2620   -7.3730  -56.4520 O.co2 303  SIA303     -0.2430
     14  O1B      -17.5920   -8.9810  -55.1480 O.co2 303  SIA303     -0.2430
     15  O4       -18.5970  -12.4820  -58.9640 O.3   303  SIA303     -0.2211
     16  O6       -17.8000   -8.7020  -58.7770 O.3   303  SIA303     -0.3429
     17  O7       -18.9120   -8.2940  -61.3570 O.3   303  SIA303     -0.2176
     18  O8       -19.7070   -5.9960  -58.5410 O.3   303  SIA303     -0.2175
     19  O9       -21.2960   -5.4020  -60.8170 O.3   303  SIA303     -0.2175
     20  O10      -21.3120  -11.0580  -61.3520 O.2   303  SIA303     -0.2733
@<TRIPOS>BOND
     1    17     7    1
     2    20    10    2
     3     9    19    1
     4     9     8    1
     5    10    11    1
     6    10    12   am
     7     7     8    1
     8     7     6    1
     9     8    18    1
    10     5    12    1
    11     5     6    1
    12     5     4    1
    13     6    16    1
    14    15     4    1
    15    16     2    1
    16     4     3    1
    17     2     3    1
    18     2     1    1
    19    13     1   ar
    20     1    14   ar
