@<TRIPOS>MOLECULE
3phz_GAL_A_1.pdb
 11 11 0 0 0
SMALL
GASTEIGER

@<TRIPOS>ATOM
      1  C1       -11.8270   -8.6900  -58.0940 C.3   302  GAL302      0.1777
      2  C2       -10.9600   -7.4530  -57.8370 C.3   302  GAL302      0.2141
      3  C3       -11.5540   -6.4240  -56.8340 C.3   302  GAL302      0.2173
      4  C4       -12.9820   -6.0930  -57.2320 C.3   302  GAL302      0.2142
      5  C5       -13.7310   -7.4140  -57.3960 C.3   302  GAL302      0.1810
      6  C6       -15.1450   -7.2630  -57.8630 C.3   302  GAL302      0.2141
      7  O2        -9.6820   -7.8200  -57.3810 O.3   302  GAL302     -0.2176
      8  O3       -10.7210   -5.2640  -56.8330 O.3   302  GAL302     -0.2175
      9  O4       -13.0520   -5.3960  -58.4640 O.3   302  GAL302     -0.2176
     10  O5       -13.1130   -8.2110  -58.3940 O.3   302  GAL302     -0.3481
     11  O6       -15.6450   -8.5960  -57.7480 O.3   302  GAL302     -0.2176
@<TRIPOS>BOND
     1     9     4    1
     2    10     1    1
     3    10     5    1
     4     1     2    1
     5     6    11    1
     6     6     5    1
     7     2     7    1
     8     2     3    1
     9     5     4    1
    10     4     3    1
    11     3     8    1
