@<TRIPOS>MOLECULE
3pi0_F91_A_1.pdb
 18 20 0 0 0
SMALL
GASTEIGER

@<TRIPOS>ATOM
      1  C1        -6.4350   -0.3890    8.1630 C.ar  2001  F912001     0.1737
      2  O2        -7.5440   -0.1920    7.3860 O.3   2001  F912001    -0.4683
      3  C3        -7.4730   -0.8490    6.1150 C.3   2001  F912001     0.2526
      4  C4        -7.0250   -2.2880    6.3010 C.3   2001  F912001     0.2526
      5  O5        -5.7450   -2.3590    6.9310 O.3   2001  F912001    -0.4684
      6  C6        -5.5530   -1.4490    7.9400 C.ar  2001  F912001     0.1725
      7  C7        -4.4400   -1.5980    8.7510 C.ar  2001  F912001     0.0414
      8  C8        -4.1960   -0.7040    9.8070 C.ar  2001  F912001     0.0194
      9  C9        -5.0770    0.3660   10.0260 C.ar  2001  F912001     0.0689
     10  N10       -4.8390    1.3020   11.0270 N.pl3 2001  F912001    -0.2327
     11  C11       -3.5970    1.3020   11.7540 C.3   2001  F912001     0.1386
     12  C12       -2.4790    1.9790   11.0180 C.ar  2001  F912001     0.0024
     13  C13       -6.2140    0.4990    9.2190 C.ar  2001  F912001     0.0561
     14  C14       -2.6700    2.8900    9.9740 C.ar  2001  F912001     0.0181
     15  C15       -1.5240    3.4410    9.4050 C.ar  2001  F912001     0.0986
     16  N16       -0.2510    3.1900    9.7680 N.ar  2001  F912001    -0.2423
     17  C17       -0.0940    2.3060   10.7750 C.ar  2001  F912001     0.0986
     18  C18       -1.1630    1.6980   11.4090 C.ar  2001  F912001     0.0181
@<TRIPOS>BOND
     1     3     4    1
     2     3     2    1
     3     4     5    1
     4     5     6    1
     5     2     1    1
     6     6     1   ar
     7     6     7   ar
     8     1    13   ar
     9     7     8   ar
    10    13     9   ar
    11    15    16   ar
    12    15    14   ar
    13    16    17   ar
    14     8     9   ar
    15    14    12   ar
    16     9    10    1
    17    17    18   ar
    18    12    18   ar
    19    12    11    1
    20    10    11    1
