@<TRIPOS>MOLECULE
3pi5_3P5_A_1.pdb
 29 32 0 0 0
SMALL
GASTEIGER

@<TRIPOS>ATOM
      1 BR1        30.8570    9.7680   19.7320 Br    387  3P5387     -0.0457
      2  C2        31.2840    9.6140   17.9000 C.ar  387  3P5387      0.0731
      3  C3        31.0820   10.7050   17.0480 C.ar  387  3P5387      0.2018
      4  C4        31.4590   10.6060   15.7050 C.ar  387  3P5387      0.0422
      5  C6        32.0160    9.4230   15.1980 C.ar  387  3P5387     -0.0010
      6  C8        32.1800    8.3210   16.0470 C.ar  387  3P5387     -0.0214
      7  C9        31.8120    8.4120   17.4020 C.ar  387  3P5387      0.0056
      8  C11       32.7660    7.0140   15.4730 C.3   387  3P5387      0.0307
      9  C14       31.6480    6.2010   14.7520 C.3   387  3P5387      0.0598
     10  C16       32.1840    4.8130   14.4050 C.3   387  3P5387      0.1715
     11  C18       31.2290    3.9860   13.5560 C.3   387  3P5387      0.1270
     12  C20       29.8940    3.7330   14.2590 C.3   387  3P5387      0.1707
     13  S23       29.1090    5.3160   14.5550 S.O2  387  3P5387     -0.0084
     14  C24       30.3920    6.0960   15.6250 C.3   387  3P5387      0.1537
     15  O27       27.9310    5.1400   15.3120 O.2   387  3P5387     -0.1729
     16  O28       29.0540    6.0510   13.3160 O.2   387  3P5387     -0.1729
     17  N29       31.9180    2.6970   13.2510 N.3   387  3P5387     -0.2103
     18  C31       31.3020    1.9300   12.1490 C.3   387  3P5387      0.1151
     19  C34       31.2410    2.6960   10.8010 C.ar  387  3P5387     -0.0051
     20  C35       32.3910    3.1890   10.1530 C.ar  387  3P5387     -0.0072
     21  C37       32.2610    3.8950    8.9290 C.ar  387  3P5387     -0.0228
     22  C38       31.0000    4.0830    8.3640 C.ar  387  3P5387     -0.0043
     23  C40       29.8650    3.5750    9.0030 C.ar  387  3P5387     -0.0006
     24  C42       29.9800    2.8930   10.2190 C.ar  387  3P5387     -0.0029
     25  C44       33.4420    4.4980    8.1460 C.3   387  3P5387      0.0223
     26  C46       34.7160    3.6590    8.3150 C.3   387  3P5387      0.0047
     27  C49       34.5520    4.9610    9.1010 C.3   387  3P5387      0.0047
     28  O52       33.4000    4.9620   13.6700 O.3   387  3P5387     -0.2215
     29  O54       30.5130   11.8790   17.5320 O.3   387  3P5387     -0.2860
@<TRIPOS>BOND
     1    25    26    1
     2    25    21    1
     3    25    27    1
     4    26    27    1
     5    22    21   ar
     6    22    23   ar
     7    21    20   ar
     8    23    24   ar
     9    20    19   ar
    10    24    19   ar
    11    19    18    1
    12    18    17    1
    13    17    11    1
    14    16    13    2
    15    11    12    1
    16    11    10    1
    17    28    10    1
    18    12    13    1
    19    10     9    1
    20    13    15    2
    21    13    14    1
    22     9     8    1
    23     9    14    1
    24     5     4   ar
    25     5     6   ar
    26     8     6    1
    27     4     3   ar
    28     6     7   ar
    29     3    29    1
    30     3     2   ar
    31     7     2   ar
    32     2     1    1
