@<TRIPOS>MOLECULE
3pi8_HEM_A_1.pdb
 43 50 0 0 0
SMALL
GASTEIGER

@<TRIPOS>ATOM
      1  CHA      -16.2900   27.6580   -9.5760 C.2   142  HEM142      0.0000
      2  CHB      -13.7210   26.6930  -13.6120 C.2   142  HEM142      0.0000
      3  CHC      -15.5910   22.1860  -13.7260 C.2   142  HEM142      0.0000
      4  CHD      -18.3370   23.2070   -9.8210 C.2   142  HEM142      0.0000
      5  C1A      -15.4840   27.8240  -10.6860 C.ar  142  HEM142      0.0000
      6  C2A      -14.8610   29.0600  -11.1240 C.ar  142  HEM142      0.0000
      7  C3A      -14.1580   28.8000  -12.2410 C.ar  142  HEM142      0.0000
      8  C4A      -14.2940   27.3830  -12.5460 C.ar  142  HEM142      0.0000
      9  CMA      -13.3340   29.8080  -13.0780 C.3   142  HEM142      0.0000
     10  CAA      -15.0540   30.4240  -10.4160 C.3   142  HEM142      0.0000
     11  CBA      -13.8420   30.9210   -9.6340 C.3   142  HEM142      0.0000
     12  CGA      -14.1120   32.3720   -9.2860 C.2   142  HEM142      0.0000
     13  O1A      -13.2540   33.2490   -9.5830 O.co2 142  HEM142      0.0000
     14  O2A      -15.1960   32.6650   -8.7160 O.co2 142  HEM142      0.0000
     15  C1B      -13.9760   25.3870  -14.0090 C.2   142  HEM142      0.0000
     16  C2B      -13.3950   24.6840  -15.1390 C.2   142  HEM142      0.0000
     17  C3B      -13.9150   23.4390  -15.1710 C.2   142  HEM142      0.0000
     18  C4B      -14.8360   23.3010  -14.0570 C.2   142  HEM142      0.0000
     19  CMB      -12.3550   25.3010  -16.1080 C.3   142  HEM142      0.0000
     20  CAB      -13.6080   22.3080  -16.1750 C.2   142  HEM142      0.0000
     21  CBB      -13.5250   22.5420  -17.4870 C.2   142  HEM142      0.0000
     22  C1C      -16.5630   22.0870  -12.7440 C.ar  142  HEM142      0.0000
     23  C2C      -17.5460   21.0310  -12.5840 C.ar  142  HEM142      0.0000
     24  C3C      -18.3120   21.3120  -11.5130 C.ar  142  HEM142      0.0000
     25  C4C      -17.8410   22.5600  -10.9430 C.ar  142  HEM142      0.0000
     26  CMC      -17.6710   19.8020  -13.5100 C.3   142  HEM142      0.0000
     27  CAC      -19.4790   20.4590  -10.9570 C.2   142  HEM142      0.0000
     28  CBC      -20.4830   20.0550  -11.7440 C.2   142  HEM142      0.0000
     29  C1D      -18.0740   24.4940   -9.3890 C.2   142  HEM142      0.0000
     30  C2D      -18.7430   25.1770   -8.2940 C.2   142  HEM142      0.0000
     31  C3D      -18.0980   26.5630   -8.2110 C.2   142  HEM142      0.0000
     32  C4D      -17.1110   26.5880   -9.2710 C.2   142  HEM142      0.0000
     33  CMD      -19.8620   24.6220   -7.3880 C.3   142  HEM142      0.0000
     34  CAD      -18.4480   27.6980   -7.2190 C.3   142  HEM142      0.0000
     35  CBD      -19.6490   28.4560   -7.7860 C.3   142  HEM142      0.0000
     36  CGD      -19.8240   29.8060   -7.1360 C.2   142  HEM142      0.0000
     37  O1D      -20.1280   29.8740   -5.9190 O.co2 142  HEM142      0.0000
     38  O2D      -19.6780   30.8300   -7.8500 O.co2 142  HEM142      0.0000
     39  NA       -15.1170   26.8370  -11.5790 N.ar  142  HEM142      0.0000
     40  NB       -14.8440   24.5090  -13.3860 N.2   142  HEM142      0.0000
     41  NC       -16.7900   22.9990  -11.7270 N.ar  142  HEM142      0.0000
     42  ND       -17.1300   25.3610   -9.9280 N.2   142  HEM142      0.0000
     43 FE        -15.9870   24.9230  -11.6450 Fe    142  HEM142      0.0000
@<TRIPOS>BOND
     1    21    20    2
     2    20    17    1
     3    19    16    1
     4    17    16    2
     5    17    18    1
     6    16    15    1
     7    18     3    2
     8    18    40    1
     9    15     2    1
    10    15    40    2
    11     3    22    1
    12     2     8    2
    13    26    23    1
    14    40    43    1
    15     9     7    1
    16    22    23   ar
    17    22    41   ar
    18    23    24   ar
    19     8     7   ar
    20     8    39   ar
    21     7     6   ar
    22    28    27    2
    23    41    43    1
    24    41    25   ar
    25    43    39    1
    26    43    42    1
    27    39     5   ar
    28    24    27    1
    29    24    25   ar
    30     6     5   ar
    31     6    10    1
    32    25     4    1
    33     5     1    2
    34    10    11    1
    35    42    29    1
    36    42    32    2
    37     4    29    2
    38    11    12    1
    39    13    12   ar
    40     1    32    1
    41    29    30    1
    42    12    14   ar
    43    32    31    1
    44    30    31    2
    45    30    33    1
    46    31    34    1
    47    38    36   ar
    48    35    34    1
    49    35    36    1
    50    36    37   ar
