@<TRIPOS>MOLECULE
3pi9_HEM_A_1.pdb
 43 50 0 0 0
SMALL
GASTEIGER

@<TRIPOS>ATOM
      1  CHA       15.4810  -26.9880   -9.9430 C.2   142  HEM142      0.0000
      2  CHB       12.9260  -26.3220  -13.8780 C.2   142  HEM142      0.0000
      3  CHC       14.4670  -21.8650  -13.8830 C.2   142  HEM142      0.0000
      4  CHD       17.5510  -22.7730  -10.4940 C.2   142  HEM142      0.0000
      5  C1A       14.6920  -27.1270  -11.0130 C.ar  142  HEM142      0.0000
      6  C2A       14.0890  -28.3830  -11.2860 C.ar  142  HEM142      0.0000
      7  C3A       13.3860  -28.2100  -12.3860 C.ar  142  HEM142      0.0000
      8  C4A       13.5280  -26.8460  -12.7880 C.ar  142  HEM142      0.0000
      9  CMA       12.5330  -29.1980  -13.1470 C.3   142  HEM142      0.0000
     10  CAA       14.4010  -29.5640  -10.3370 C.3   142  HEM142      0.0000
     11  CBA       13.4960  -30.7660  -10.1310 C.3   142  HEM142      0.0000
     12  CGA       14.5130  -31.8760   -9.9550 C.2   142  HEM142      0.0000
     13  O1A       14.2230  -33.0810   -9.7780 O.co2 142  HEM142      0.0000
     14  O2A       15.7050  -31.5380   -9.9960 O.co2 142  HEM142      0.0000
     15  C1B       13.1460  -25.0220  -14.2010 C.2   142  HEM142      0.0000
     16  C2B       12.5700  -24.3330  -15.3190 C.2   142  HEM142      0.0000
     17  C3B       13.0280  -23.1040  -15.2880 C.2   142  HEM142      0.0000
     18  C4B       13.8710  -23.0110  -14.1770 C.2   142  HEM142      0.0000
     19  CMB       11.6040  -24.9430  -16.3410 C.3   142  HEM142      0.0000
     20  CAB       12.7730  -21.9040  -16.2020 C.2   142  HEM142      0.0000
     21  CBB       12.2580  -22.0250  -17.4160 C.2   142  HEM142      0.0000
     22  C1C       15.4750  -21.7800  -13.0180 C.ar  142  HEM142      0.0000
     23  C2C       16.3790  -20.6810  -12.9970 C.ar  142  HEM142      0.0000
     24  C3C       17.2380  -20.9390  -12.0600 C.ar  142  HEM142      0.0000
     25  C4C       16.8720  -22.1990  -11.4890 C.ar  142  HEM142      0.0000
     26  CMC       16.3080  -19.4690  -13.9150 C.3   142  HEM142      0.0000
     27  CAC       18.3960  -20.0640  -11.6090 C.2   142  HEM142      0.0000
     28  CBC       19.2930  -19.6110  -12.4470 C.2   142  HEM142      0.0000
     29  C1D       17.2600  -23.9970  -10.0470 C.2   142  HEM142      0.0000
     30  C2D       17.9590  -24.5920   -8.9760 C.2   142  HEM142      0.0000
     31  C3D       17.2990  -25.9160   -8.8080 C.2   142  HEM142      0.0000
     32  C4D       16.2880  -25.9480   -9.7850 C.2   142  HEM142      0.0000
     33  CMD       19.1180  -24.0190   -8.1810 C.3   142  HEM142      0.0000
     34  CAD       17.6240  -27.0180   -7.8030 C.3   142  HEM142      0.0000
     35  CBD       19.0220  -27.5180   -8.1020 C.3   142  HEM142      0.0000
     36  CGD       19.0270  -29.0110   -8.1400 C.2   142  HEM142      0.0000
     37  O1D       20.0900  -29.5670   -8.5020 O.co2 142  HEM142      0.0000
     38  O2D       17.9730  -29.6110   -7.8190 O.co2 142  HEM142      0.0000
     39  NA        14.3540  -26.1660  -11.9280 N.ar  142  HEM142      0.0000
     40  NB        13.9670  -24.1790  -13.4890 N.2   142  HEM142      0.0000
     41  NC        15.7780  -22.7430  -12.0980 N.ar  142  HEM142      0.0000
     42  ND        16.2620  -24.8100  -10.5380 N.2   142  HEM142      0.0000
     43 FE         14.9580  -24.5870  -12.0880 Fe    142  HEM142      0.0000
@<TRIPOS>BOND
     1    21    20    2
     2    19    16    1
     3    20    17    1
     4    16    17    2
     5    16    15    1
     6    17    18    1
     7    15     2    1
     8    15    40    2
     9    18     3    2
    10    18    40    1
    11    26    23    1
    12     3    22    1
    13     2     8    2
    14    40    43    1
    15     9     7    1
    16    22    23   ar
    17    22    41   ar
    18    23    24   ar
    19     8     7   ar
    20     8    39   ar
    21    28    27    2
    22     7     6   ar
    23    41    43    1
    24    41    25   ar
    25    43    39    1
    26    43    42    1
    27    24    27    1
    28    24    25   ar
    29    39     5   ar
    30    25     4    1
    31     6     5   ar
    32     6    10    1
    33     5     1    2
    34    42    29    1
    35    42    32    2
    36     4    29    2
    37    10    11    1
    38    11    12    1
    39    29    30    1
    40    14    12   ar
    41    12    13   ar
    42     1    32    1
    43    32    31    1
    44    30    31    2
    45    30    33    1
    46    31    34    1
    47    37    36   ar
    48    36    35    1
    49    36    38   ar
    50    35    34    1
