@<TRIPOS>MOLECULE
3pia_HEM_A_1.pdb
 43 50 0 0 0
SMALL
GASTEIGER

@<TRIPOS>ATOM
      1  CHA       16.7110   27.7150    9.5790 C.2   142  HEM142      0.0000
      2  CHB       14.2690   26.7730   13.6170 C.2   142  HEM142      0.0000
      3  CHC       15.9750   22.2840   13.6570 C.2   142  HEM142      0.0000
      4  CHD       18.8300   23.3470    9.9420 C.2   142  HEM142      0.0000
      5  C1A       15.9250   27.8590   10.6700 C.2   142  HEM142      0.0000
      6  C2A       15.2770   29.0910   11.1160 C.2   142  HEM142      0.0000
      7  C3A       14.6110   28.8210   12.2300 C.2   142  HEM142      0.0000
      8  C4A       14.8180   27.4200   12.5490 C.2   142  HEM142      0.0000
      9  CMA       13.7370   29.8210   13.0550 C.3   142  HEM142      0.0000
     10  CAA       15.3990   30.4740   10.4190 C.3   142  HEM142      0.0000
     11  CBA       14.1730   30.7850    9.5800 C.3   142  HEM142      0.0000
     12  CGA       14.6180   32.0850    8.8990 C.2   142  HEM142      0.0000
     13  O1A       14.3080   33.1650    9.4310 O.co2 142  HEM142      0.0000
     14  O2A       15.3440   32.0720    7.8690 O.co2 142  HEM142      0.0000
     15  C1B       14.4560   25.4710   14.0180 C.ar  142  HEM142      0.0000
     16  C2B       13.8560   24.7850   15.1280 C.ar  142  HEM142      0.0000
     17  C3B       14.3380   23.5410   15.1580 C.ar  142  HEM142      0.0000
     18  C4B       15.2630   23.4090   14.0470 C.ar  142  HEM142      0.0000
     19  CMB       12.9040   25.4750   16.0790 C.3   142  HEM142      0.0000
     20  CAB       14.0860   22.3570   16.1130 C.2   142  HEM142      0.0000
     21  CBB       13.3290   22.4630   17.2140 C.2   142  HEM142      0.0000
     22  C1C       16.9730   22.1900   12.7070 C.2   142  HEM142      0.0000
     23  C2C       17.9240   21.0780   12.5110 C.2   142  HEM142      0.0000
     24  C3C       18.7370   21.4030   11.5080 C.2   142  HEM142      0.0000
     25  C4C       18.2730   22.6620   11.0110 C.2   142  HEM142      0.0000
     26  CMC       17.9620   19.8030   13.3810 C.3   142  HEM142      0.0000
     27  CAC       19.9170   20.6090   10.8570 C.2   142  HEM142      0.0000
     28  CBC       20.8450   19.9160   11.5680 C.2   142  HEM142      0.0000
     29  C1D       18.4850   24.5890    9.4950 C.ar  142  HEM142      0.0000
     30  C2D       19.1560   25.2680    8.3720 C.ar  142  HEM142      0.0000
     31  C3D       18.5040   26.5990    8.2390 C.ar  142  HEM142      0.0000
     32  C4D       17.5090   26.6430    9.3110 C.ar  142  HEM142      0.0000
     33  CMD       20.2600   24.7370    7.4570 C.3   142  HEM142      0.0000
     34  CAD       18.8810   27.6390    7.1950 C.3   142  HEM142      0.0000
     35  CBD       19.9840   28.4690    7.8640 C.3   142  HEM142      0.0000
     36  CGD       20.2230   29.7130    7.0020 C.2   142  HEM142      0.0000
     37  O1D       20.8890   29.7380    5.9660 O.co2 142  HEM142      0.0000
     38  O2D       19.7480   30.7550    7.3430 O.co2 142  HEM142      0.0000
     39  NA        15.6070   26.8910   11.5640 N.2   142  HEM142      0.0000
     40  NB        15.2490   24.5940   13.3750 N.ar  142  HEM142      0.0000
     41  NC        17.2150   23.1260   11.7710 N.2   142  HEM142      0.0000
     42  ND        17.5400   25.4700   10.0360 N.ar  142  HEM142      0.0000
     43 FE         16.4330   25.0010   11.6730 Fe    142  HEM142      0.0000
@<TRIPOS>BOND
     1    37    36   ar
     2    36    38   ar
     3    36    35    1
     4    34    35    1
     5    34    31    1
     6    33    30    1
     7    14    12   ar
     8    31    30   ar
     9    31    32   ar
    10    30    29   ar
    11    12    13   ar
    12    12    11    1
    13    32     1    2
    14    32    42   ar
    15    29     4    2
    16    29    42   ar
    17     1     5    1
    18    11    10    1
    19     4    25    1
    20    42    43    1
    21    10     6    1
    22     5     6    1
    23     5    39    2
    24    27    24    1
    25    27    28    2
    26    25    24    1
    27    25    41    2
    28     6     7    2
    29    24    23    2
    30    39    43    1
    31    39     8    1
    32    43    41    1
    33    43    40    1
    34    41    22    1
    35     7     8    1
    36     7     9    1
    37    23    22    1
    38    23    26    1
    39     8     2    2
    40    22     3    2
    41    40    15   ar
    42    40    18   ar
    43     2    15    1
    44     3    18    1
    45    15    16   ar
    46    18    17   ar
    47    16    17   ar
    48    16    19    1
    49    17    20    1
    50    20    21    2
