@<TRIPOS>MOLECULE
3pij_FRU_A_1.pdb
 12 12 0 0 0
SMALL
GASTEIGER

@<TRIPOS>ATOM
      1  C1        26.4880   53.0630   85.6950 C.3   527  FRU527      0.2434
      2  C2        25.6230   53.4430   86.8920 C.3   527  FRU527      0.2807
      3  C3        26.4290   54.2070   87.9700 C.3   527  FRU527      0.2409
      4  C4        25.5930   53.9850   89.2340 C.3   527  FRU527      0.2168
      5  C5        25.0660   52.5410   89.0160 C.3   527  FRU527      0.1836
      6  C6        23.6760   52.3750   89.6120 C.3   527  FRU527      0.2142
      7  O1        25.8580   51.9750   84.9990 O.3   527  FRU527     -0.2148
      8  O2        24.4930   54.2070   86.4610 O.3   527  FRU527     -0.1896
      9  O3        26.6620   55.5790   87.5930 O.3   527  FRU527     -0.2149
     10  O4        26.3250   54.0310   90.4770 O.3   527  FRU527     -0.2175
     11  O5        25.0660   52.3120   87.5790 O.3   527  FRU527     -0.3253
     12  O6        23.2630   51.0130   89.4880 O.3   527  FRU527     -0.2176
@<TRIPOS>BOND
     1     7     1    1
     2     1     2    1
     3     8     2    1
     4     2    11    1
     5     2     3    1
     6    11     5    1
     7     9     3    1
     8     3     4    1
     9     5     4    1
    10     5     6    1
    11     4    10    1
    12    12     6    1
