@<TRIPOS>MOLECULE
3pir_GNP_A_1.pdb
 32 34 0 0 0
SMALL
GASTEIGER

@<TRIPOS>ATOM
      1  PG       -12.1290   45.3590    9.3300 P.3   179  GNP179      0.4884
      2  O1G      -13.3520   46.0170    8.6910 O.3   179  GNP179     -0.1240
      3  O2G      -11.1720   44.8030    8.3020 O.2   179  GNP179     -0.2331
      4  O3G      -12.6100   44.3060   10.3320 O.3   179  GNP179     -0.1240
      5  N3B      -11.2870   46.4480   10.1640 N.3   179  GNP179     -0.0163
      6  PB        -9.6870   46.4140   10.3430 P.3   179  GNP179      0.4669
      7  O1B       -9.4040   45.8820   11.7090 O.3   179  GNP179     -0.1253
      8  O2B       -9.0740   45.6450    9.2100 O.2   179  GNP179     -0.2351
      9  O3A       -9.2040   47.8740   10.4140 O.3   179  GNP179     -0.2360
     10  PA        -8.3150   48.5730    9.3750 P.3   179  GNP179      0.2220
     11  O1A       -8.9590   48.3910    8.0510 O.2   179  GNP179     -0.5170
     12  O2A       -6.9160   48.1080    9.4500 O.3   179  GNP179     -0.4370
     13  O5'       -8.2460   50.1170    9.7240 O.3   179  GNP179     -0.3111
     14  C5'       -9.3640   50.9550   10.0360 C.3   179  GNP179      0.1813
     15  C4'       -8.8740   52.4030    9.9310 C.3   179  GNP179      0.1799
     16  O4'       -7.9560   52.8160   11.0130 O.3   179  GNP179     -0.3326
     17  C3'       -8.0810   52.6460    8.6460 C.3   179  GNP179      0.2158
     18  O3'       -8.3240   53.9670    8.2300 O.3   179  GNP179     -0.2175
     19  C2'       -6.6250   52.5190    9.0610 C.3   179  GNP179      0.2310
     20  O2'       -5.8090   53.3290    8.2380 O.3   179  GNP179     -0.2158
     21  C1'       -6.6570   53.0760   10.4910 C.3   179  GNP179      0.2293
     22  N9        -5.6520   52.6010   11.4610 N.pl3 179  GNP179     -0.2354
     23  C8        -5.3620   51.2970   11.7850 C.3   179  GNP179      0.2246
     24  N7        -4.4250   51.1720   12.6910 N.2   179  GNP179     -0.2322
     25  C5        -4.0740   52.4730   13.0060 C.2   179  GNP179      0.2182
     26  C6        -3.1200   52.9480   13.9480 C.1   179  GNP179      0.2372
     27  O6        -2.3880   52.2740   14.6850 O.2   179  GNP179     -0.2069
     28  N1        -3.0340   54.3490   13.9940 N.2   179  GNP179     -0.2485
     29  C2        -3.7990   55.2010   13.1850 C.1   179  GNP179      0.2531
     30  N2        -3.5660   56.5190   13.3400 N.pl3 179  GNP179     -0.0226
     31  N3        -4.7070   54.7590   12.2900 N.2   179  GNP179     -0.3074
     32  C4        -4.8030   53.3790   12.2560 C.2   179  GNP179      0.2300
@<TRIPOS>BOND
     1    11    10    2
     2    18    17    1
     3    20    19    1
     4     3     1    2
     5    17    19    1
     6    17    15    1
     7     2     1    1
     8    19    21    1
     9     8     6    2
    10     1     5    1
    11     1     4    1
    12    10    12    1
    13    10    13    1
    14    10     9    1
    15    13    14    1
    16    15    14    1
    17    15    16    1
    18     5     6    1
    19     6     9    1
    20     6     7    1
    21    21    16    1
    22    21    22    1
    23    22    23    1
    24    22    32    1
    25    23    24    1
    26    32    31    2
    27    32    25    1
    28    31    29    2
    29    24    25    2
    30    25    26    1
    31    29    30    1
    32    29    28    2
    33    26    28    2
    34    26    27    2
