@<TRIPOS>MOLECULE
3pit_GNP_A_1.pdb
 32 34 0 0 0
SMALL
GASTEIGER

@<TRIPOS>ATOM
      1  PG        -5.5410   -1.3920    5.8960 P.3   179  GNP179      0.4884
      2  O1G       -6.3350   -0.4690    6.8420 O.3   179  GNP179     -0.1240
      3  O2G       -4.5260   -0.5810    5.1540 O.3   179  GNP179     -0.1240
      4  O3G       -6.5210   -2.1640    5.0950 O.2   179  GNP179     -0.2331
      5  N3B       -4.7440   -2.4450    6.8620 N.3   179  GNP179     -0.0163
      6  PB        -3.6380   -3.5500    6.3710 P.3   179  GNP179      0.4669
      7  O1B       -4.3140   -4.6970    5.6860 O.3   179  GNP179     -0.1253
      8  O2B       -2.5670   -2.8370    5.6100 O.2   179  GNP179     -0.2351
      9  O3A       -2.9670   -4.1190    7.6720 O.3   179  GNP179     -0.2360
     10  PA        -1.7230   -3.6050    8.4730 P.3   179  GNP179      0.2220
     11  O1A       -1.9530   -2.1620    8.7740 O.3   179  GNP179     -0.4370
     12  O2A       -0.5440   -3.9710    7.7200 O.2   179  GNP179     -0.5170
     13  O5'       -1.7510   -4.4800    9.7770 O.3   179  GNP179     -0.3111
     14  C5'       -2.8240   -4.3600   10.7100 C.3   179  GNP179      0.1813
     15  C4'       -2.3080   -4.7350   12.0850 C.3   179  GNP179      0.1799
     16  O4'       -1.9670   -6.1510   12.0340 O.3   179  GNP179     -0.3326
     17  C3'       -1.0520   -3.9940   12.5490 C.3   179  GNP179      0.2158
     18  O3'       -1.1530   -3.8120   13.9670 O.3   179  GNP179     -0.2175
     19  C2'        0.0800   -4.9520   12.1460 C.3   179  GNP179      0.2310
     20  O2'        1.2220   -4.8900   12.9830 O.3   179  GNP179     -0.2158
     21  C1'       -0.6070   -6.2940   12.3790 C.3   179  GNP179      0.2293
     22  N9        -0.0790   -7.3820   11.5550 N.pl3 179  GNP179     -0.2354
     23  C8         0.0260   -7.4120   10.1770 C.3   179  GNP179      0.2246
     24  N7         0.5300   -8.5430    9.7320 N.2   179  GNP179     -0.2322
     25  C5         0.7680   -9.2830   10.8790 C.2   179  GNP179      0.2182
     26  C6         1.2840  -10.5960   11.0130 C.1   179  GNP179      0.2372
     27  O6         1.6660  -11.3540   10.1110 O.2   179  GNP179     -0.2069
     28  N1         1.3790  -10.9770   12.3420 N.2   179  GNP179     -0.2485
     29  C2         0.9780  -10.2260   13.4330 C.1   179  GNP179      0.2531
     30  N2         1.1290  -10.7620   14.6570 N.pl3 179  GNP179     -0.0226
     31  N3         0.4760   -8.9990   13.3160 N.2   179  GNP179     -0.3074
     32  C4         0.3990   -8.6050   12.0150 C.2   179  GNP179      0.2300
@<TRIPOS>BOND
     1     4     1    2
     2     3     1    1
     3     8     6    2
     4     7     6    1
     5     1     2    1
     6     1     5    1
     7     6     5    1
     8     6     9    1
     9     9    10    1
    10    12    10    2
    11    10    11    1
    12    10    13    1
    13    24    23    1
    14    24    25    2
    15    13    14    1
    16    27    26    2
    17    23    22    1
    18    14    15    1
    19    25    26    1
    20    25    32    1
    21    26    28    2
    22    22    32    1
    23    22    21    1
    24    32    31    2
    25    16    15    1
    26    16    21    1
    27    15    17    1
    28    19    21    1
    29    19    17    1
    30    19    20    1
    31    28    29    2
    32    17    18    1
    33    31    29    2
    34    29    30    1
