@<TRIPOS>MOLECULE
3piu_PLR_A_1.pdb
 15 15 0 0 0
SMALL
GASTEIGER

@<TRIPOS>ATOM
      1  N1        23.5650    2.6020   18.8490 N.ar  500  PLR500     -0.2452
      2  C2        22.3840    2.4600   18.2330 C.ar  500  PLR500      0.0978
      3  C2A       22.2140    2.9720   16.8010 C.3   500  PLR500      0.0555
      4  C3        21.3250    1.8450   18.8910 C.ar  500  PLR500      0.2049
      5  O3        20.1280    1.6990   18.2590 O.3   500  PLR500     -0.2857
      6  C4        21.5030    1.3830   20.1900 C.ar  500  PLR500      0.0182
      7  C4A       20.3510    0.7090   20.9420 C.3   500  PLR500      0.0342
      8  C5        22.7370    1.5520   20.8100 C.ar  500  PLR500      0.0261
      9  C6        23.7540    2.1700   20.0860 C.ar  500  PLR500      0.0965
     10  C5A       23.0600    1.0820   22.2340 C.3   500  PLR500      0.1815
     11  O4P       23.7640   -0.1520   22.1570 O.3   500  PLR500     -0.2653
     12  P         24.2840   -0.9710   23.4450 P.3   500  PLR500      0.5329
     13  O1P       24.8090    0.0840   24.5490 O.3   500  PLR500     -0.1145
     14  O2P       25.6230   -1.6970   22.9440 O.2   500  PLR500     -0.2224
     15  O3P       23.3060   -1.9160   24.0350 O.3   500  PLR500     -0.1145
@<TRIPOS>BOND
     1     3     2    1
     2     2     1   ar
     3     2     4   ar
     4     5     4    1
     5     1     9   ar
     6     4     6   ar
     7     9     8   ar
     8     6     8   ar
     9     6     7    1
    10     8    10    1
    11    11    10    1
    12    11    12    1
    13    14    12    2
    14    12    15    1
    15    12    13    1
