@<TRIPOS>MOLECULE
3pix_027_A_1.pdb
 28 31 0 0 0
SMALL
GASTEIGER

@<TRIPOS>ATOM
      1  N1        18.3760    5.8870   -0.3900 N.ar    1  0271       -0.1228
      2  N2        19.7020    6.3580   -0.4590 N.ar    1  0271       -0.2154
      3  C3        17.6450    5.6140   -1.4770 C.ar    1  0271        0.2824
      4  C4        20.3470    6.5850   -1.7080 C.ar    1  0271        0.2765
      5  C5        19.6610    6.3310   -2.8880 C.ar    1  0271        0.0638
      6  C6        18.2640    5.8230   -2.8130 C.ar    1  0271        0.0661
      7  C7        15.5630    5.1030   -0.3030 C.2     1  0271        0.3761
      8  N8        16.3700    5.1480   -1.3990 N.pl3   1  0271        0.0143
      9  C9        15.9010    5.2960    0.9650 C.3     1  0271        0.1690
     10  N10       13.7530    4.8590    0.8970 N.2     1  0271       -0.0426
     11  N11       14.2540    4.8210   -0.4200 N.2     1  0271        0.0793
     12  N12       20.1320    6.4760   -6.4660 N.pl3   1  0271       -0.3046
     13  C13       20.2070    6.5200   -4.0420 C.ar    1  0271        0.0195
     14  C14       19.5180    6.2650   -5.1930 C.ar    1  0271        0.0481
     15  C15       14.7930    5.1510    1.6970 C.2     1  0271        0.0959
     16  C16       17.6180    5.5790   -3.9000 C.ar    1  0271        0.0066
     17  N17       20.7070    8.1740   -8.7130 N.3     1  0271       -0.2686
     18  O18       21.5290    7.0120   -1.7490 O.2     1  0271       -0.2655
     19  C19       20.4240    6.6300    0.7900 C.3     1  0271        0.1086
     20  C20       18.2350    5.7950   -5.1220 C.ar    1  0271        0.0147
     21  C21       21.1170    7.5760   -6.3930 C.3     1  0271        0.1081
     22  C22       19.1070    6.7750   -7.4910 C.3     1  0271        0.1081
     23  C23       19.7370    7.0780   -8.8500 C.3     1  0271        0.0938
     24  C24       21.7600    7.7940   -7.7600 C.3     1  0271        0.0938
     25  C25       21.3290    8.4620  -10.0170 C.3     1  0271        0.0897
     26  C26       14.9140    5.3240    3.1880 C.3     1  0271        0.0520
     27  C27       19.8180    7.8470    1.4790 C.3     1  0271        0.0265
     28  C28       20.4070    5.4100    1.7050 C.3     1  0271        0.0265
@<TRIPOS>BOND
     1    25    17    1
     2    23    17    1
     3    23    22    1
     4    17    24    1
     5    24    21    1
     6    22    12    1
     7    12    21    1
     8    12    14    1
     9    14    20   ar
    10    14    13   ar
    11    20    16   ar
    12    13     5   ar
    13    16     6   ar
    14     5     6   ar
    15     5     4   ar
    16     6     3   ar
    17    18     4    2
    18     4     2   ar
    19     3     8    1
    20     3     1   ar
    21     8     7    1
    22     2     1   ar
    23     2    19    1
    24    11     7    2
    25    11    10    1
    26     7     9    1
    27    19    27    1
    28    19    28    1
    29    10    15    2
    30     9    15    1
    31    15    26    1
