@<TRIPOS>MOLECULE
3piy_585_A_1.pdb
 34 37 0 0 0
SMALL
GASTEIGER

@<TRIPOS>ATOM
      1  N1       -14.2190    7.6380  -13.4350 N.2     1  5851       -0.2641
      2  N2       -18.2980    5.8380  -18.1290 N.2     1  5851       -0.3165
      3  C3       -14.7430    7.0630  -14.6100 C.1     1  5851        0.1856
      4  C4       -18.7070    5.6880  -16.8800 C.2     1  5851        0.2472
      5  C5       -12.9830    8.2340  -13.4950 C.1     1  5851        0.2260
      6  N6       -16.0250    6.7300  -14.6950 N.2     1  5851       -0.3240
      7  C7       -19.1340    5.6630  -19.1480 C.1     1  5851        0.1711
      8  O8       -12.5700    7.1580  -15.6670 O.2     1  5851       -0.4556
      9  C9       -12.2420    8.2720  -14.8230 C.3     1  5851        0.2360
     10  N10      -17.8790    5.8620  -15.7850 N.pl3   1  5851       -0.1536
     11  C11      -20.0350    5.3130  -16.6400 C.2     1  5851        0.2064
     12  C12      -15.0390    7.4070  -21.7750 C.ar    1  5851        0.2061
     13  C13      -13.8910    6.8410  -15.7060 C.2     1  5851        0.2220
     14  C14      -16.5370    6.1930  -15.8070 C.2     1  5851        0.1993
     15  C15      -15.7620    6.5020  -22.5810 C.ar    1  5851        0.1768
     16  C16      -15.5400    7.7940  -20.5350 C.ar    1  5851        0.1768
     17  N17      -20.3940    5.3170  -18.9640 N.2     1  5851       -0.1659
     18  C18      -17.4700    6.3860  -20.8580 C.ar    1  5851        0.0888
     19  C19      -16.9750    5.9990  -22.0970 C.ar    1  5851        0.0576
     20  C20      -16.7570    7.2910  -20.0820 C.ar    1  5851        0.0576
     21  N21      -18.7030    5.8510  -20.4550 N.pl3   1  5851       -0.1355
     22  C22      -20.8690    5.1280  -17.7340 C.2     1  5851        0.1454
     23  O23      -12.5060    8.7620  -12.4990 O.2     1  5851       -0.2100
     24  C24      -14.4070    6.2610  -16.8650 C.2     1  5851        0.0325
     25  F25      -20.4590    5.1440  -15.3530 F       1  5851       -0.1983
     26  C26      -15.7490    5.9320  -16.9200 C.3     1  5851        0.1076
     27  O27      -13.8490    7.9400  -22.1790 O.3     1  5851       -0.4654
     28  O28      -14.7930    8.6670  -19.8020 O.3     1  5851       -0.4682
     29  O29      -15.2720    6.1180  -23.8120 O.3     1  5851       -0.4682
     30  C30      -12.6120    9.5910  -15.5020 C.3     1  5851        0.0622
     31  C31      -10.7150    8.2480  -14.6750 C.3     1  5851        0.0622
     32  C32      -12.7680    7.1930  -21.6020 C.3     1  5851        0.2528
     33  C33      -15.5710    9.2630  -18.7520 C.3     1  5851        0.2526
     34  C34      -16.2620    5.4450  -24.6150 C.3     1  5851        0.2526
@<TRIPOS>BOND
     1    34    29    1
     2    29    15    1
     3    15    19   ar
     4    15    12   ar
     5    27    12    1
     6    27    32    1
     7    19    18   ar
     8    12    16   ar
     9    18    21    1
    10    18    20   ar
    11    16    20   ar
    12    16    28    1
    13    21     7    1
    14    28    33    1
    15     7    17    2
    16     7     2    2
    17    17    22    1
    18     2     4    2
    19    22    11    2
    20    26    24    1
    21    26    14    1
    22     4    11    1
    23     4    10    1
    24    24    13    2
    25    11    25    1
    26    14    10    1
    27    14     6    2
    28    13     8    1
    29    13     3    1
    30     8     9    1
    31    30     9    1
    32     9    31    1
    33     9     5    1
    34     6     3    2
    35     3     1    2
    36     5     1    2
    37     5    23    2
