@<TRIPOS>MOLECULE
3piz_03C_A_1.pdb
 31 34 0 0 0
SMALL
GASTEIGER

@<TRIPOS>ATOM
      1  N1       -19.7270    5.2440  -14.8630 N.ar    1  03C1       -0.2131
      2  C2       -20.2550    5.1980  -13.6320 C.ar    1  03C1        0.0803
      3  C3       -20.3860    5.2290  -16.0840 C.ar    1  03C1        0.1756
      4  N4       -18.3610    5.3140  -15.1180 N.ar    1  03C1       -0.1621
      5  C5       -20.1330    4.0370  -12.8620 C.ar    1  03C1       -0.0041
      6  C6       -20.8980    6.3280  -13.1080 C.ar    1  03C1        0.0189
      7  C7       -19.4220    5.2900  -17.0940 C.ar    1  03C1        0.0946
      8  N8       -21.7300    5.1590  -16.2510 N.pl3   1  03C1       -0.1070
      9  C9       -18.1730    5.3390  -16.4900 C.ar    1  03C1        0.1266
     10  C10      -20.6610    3.9980  -11.5730 C.ar    1  03C1       -0.0028
     11  C11      -19.4430    2.8120  -13.4130 C.3     1  03C1        0.0326
     12  C12      -21.4320    6.2930  -11.8160 C.ar    1  03C1        0.0015
     13  C13      -19.6680    5.2980  -18.5650 C.2     1  03C1        0.1999
     14  C14      -21.3100    5.1280  -11.0540 C.ar    1  03C1       -0.0002
     15  C15      -18.5810    5.6310  -19.5520 C.ar    1  03C1        0.0388
     16  O16      -20.7760    5.0230  -18.9910 O.2     1  03C1       -0.2864
     17  C17      -17.5360    6.5230  -19.2710 C.ar    1  03C1       -0.0011
     18  C18      -18.6420    5.0160  -20.8030 C.ar    1  03C1        0.0032
     19  C19      -16.5640    6.7880  -20.2500 C.ar    1  03C1       -0.0223
     20  C20      -17.6830    5.2740  -21.7710 C.ar    1  03C1       -0.0002
     21  C21      -15.4160    7.7130  -20.0280 C.3     1  03C1        0.0252
     22  C22      -16.6500    6.1580  -21.4890 C.ar    1  03C1       -0.0043
     23  C23      -15.7660    8.8380  -19.0430 C.3     1  03C1        0.0235
     24  C24      -14.2150    6.8720  -19.5640 C.3     1  03C1        0.0235
     25  C25      -14.5410    9.5450  -18.4600 C.3     1  03C1        0.0958
     26  C26      -13.0840    7.7140  -18.9730 C.3     1  03C1        0.0958
     27  N27      -13.6430    8.5250  -17.8740 N.3     1  03C1       -0.1594
     28  S28      -12.4590    9.1470  -16.9530 S.O2    1  03C1        0.0457
     29  O29      -11.3860    8.1800  -16.8700 O.2     1  03C1       -0.1572
     30  O30      -11.9620   10.3850  -17.5040 O.2     1  03C1       -0.1572
     31  C31      -13.0300    9.4410  -15.4170 C.3     1  03C1        0.1960
@<TRIPOS>BOND
     1    20    22   ar
     2    20    18   ar
     3    22    19   ar
     4    18    15   ar
     5    19    21    1
     6    19    17   ar
     7    21    24    1
     8    21    23    1
     9    24    26    1
    10    15    17   ar
    11    15    13    1
    12    23    25    1
    13    16    13    2
    14    26    27    1
    15    13     7    1
    16    25    27    1
    17    27    28    1
    18    30    28    2
    19     7     9   ar
    20     7     3   ar
    21    28    29    2
    22    28    31    1
    23     9     4   ar
    24     8     3    1
    25     3     1   ar
    26     4     1   ar
    27     1     2    1
    28     2     6   ar
    29     2     5   ar
    30    11     5    1
    31     6    12   ar
    32     5    10   ar
    33    12    14   ar
    34    10    14   ar
