@<TRIPOS>MOLECULE
3pj1_LHL_A_1.pdb
 35 38 0 0 0
SMALL
GASTEIGER

@<TRIPOS>ATOM
      1  N1       -21.0620    4.9110  -18.9260 N.2     1  LHL1       -0.1685
      2  C2       -19.8070    5.3620  -19.1740 C.1     1  LHL1        0.1709
      3  N2       -19.4460    5.5690  -20.4630 N.pl3   1  LHL1       -0.1357
      4  N3       -18.9550    5.6060  -18.1530 N.2     1  LHL1       -0.3206
      5  C4       -19.3310    5.3980  -16.8730 C.2     1  LHL1        0.2022
      6  C5       -17.0800    6.1510  -16.0980 C.3     1  LHL1        0.1242
      7  N5       -18.4340    5.6570  -15.8140 N.am    1  LHL1       -0.2156
      8  C6       -18.8470    5.4200  -14.4810 C.2     1  LHL1        0.3169
      9  O6       -18.0620    5.6360  -13.5280 O.2     1  LHL1       -0.2516
     10  N7       -20.1550    4.9570  -14.2290 N.am    1  LHL1       -0.2367
     11  C8       -21.0340    4.7140  -15.3010 C.3     1  LHL1        0.1318
     12  C9       -20.6180    4.9360  -16.6110 C.2     1  LHL1        0.0633
     13  C10      -21.4820    4.6970  -17.6720 C.2     1  LHL1        0.1130
     14  C21      -18.2090    5.8720  -20.9360 C.ar    1  LHL1        0.0828
     15  C22      -17.2980    6.6400  -20.2080 C.ar    1  LHL1        0.0205
     16  C23      -16.0450    6.9440  -20.7430 C.ar    1  LHL1        0.0383
     17  C24      -15.7010    6.4920  -22.0140 C.ar    1  LHL1        0.1387
     18  O24      -14.4610    6.8120  -22.5170 O.3     1  LHL1       -0.4740
     19  C25      -16.6120    5.7310  -22.7510 C.ar    1  LHL1        0.0383
     20  C26      -17.8620    5.4250  -22.2130 C.ar    1  LHL1        0.0205
     21  C27      -14.0920    6.5170  -23.8660 C.3     1  LHL1        0.2226
     22  C28      -12.7620    7.1900  -24.2170 C.3     1  LHL1        0.1200
     23  N28      -11.6060    6.8010  -23.3730 N.3     1  LHL1       -0.2696
     24  C29      -11.3920    7.7960  -22.3030 C.3     1  LHL1        0.0722
     25  C30      -10.2090    8.6870  -22.6280 C.3     1  LHL1        0.0188
     26  C31      -11.7340    5.4550  -22.7830 C.3     1  LHL1        0.0722
     27  C32      -10.6400    4.5420  -23.2920 C.3     1  LHL1        0.0188
     28  C71      -20.5540    4.6950  -12.9080 C.ar    1  LHL1        0.0767
     29  C72      -20.5060    3.3710  -12.4950 C.ar    1  LHL1        0.0722
     30 CL72      -19.9750    2.1150  -13.6650 Cl      1  LHL1       -0.0809
     31  C73      -20.8670    3.0280  -11.1930 C.ar    1  LHL1        0.0127
     32  C74      -21.2780    4.0230  -10.3030 C.ar    1  LHL1        0.0018
     33  C75      -21.3190    5.3540  -10.7190 C.ar    1  LHL1        0.0127
     34  C76      -20.9500    5.6770  -12.0210 C.ar    1  LHL1        0.0722
     35 CL76      -20.9940    7.3610  -12.5880 Cl      1  LHL1       -0.0809
@<TRIPOS>BOND
     1    22    21    1
     2    22    23    1
     3    21    18    1
     4    23    26    1
     5    23    24    1
     6    27    26    1
     7    19    20   ar
     8    19    17   ar
     9    25    24    1
    10    18    17    1
    11    20    14   ar
    12    17    16   ar
    13    14     3    1
    14    14    15   ar
    15    16    15   ar
    16     3     2    1
    17     2     1    2
    18     2     4    2
    19     1    13    1
    20     4     5    2
    21    13    12    2
    22     5    12    1
    23     5     7    1
    24    12    11    1
    25     6     7    1
    26     7     8   am
    27    11    10    1
    28     8    10   am
    29     8     9    2
    30    10    28    1
    31    30    29    1
    32    28    29   ar
    33    28    34   ar
    34    35    34    1
    35    29    31   ar
    36    34    33   ar
    37    31    32   ar
    38    33    32   ar
