@<TRIPOS>MOLECULE
3pj2_04K_A_1.pdb
 35 38 0 0 0
SMALL
GASTEIGER

@<TRIPOS>ATOM
      1  N1       -20.7200    5.0010  -19.0360 N.2     1  04K1       -0.1682
      2  C2       -19.5120    5.4970  -19.2960 C.1     1  04K1        0.1711
      3  N3       -18.6470    5.7880  -18.3260 N.2     1  04K1       -0.3179
      4  C4       -21.1230    4.7740  -17.7960 C.2     1  04K1        0.1159
      5  C5       -20.2440    5.0590  -16.7420 C.ar    1  04K1        0.0707
      6  C6       -18.9630    5.5910  -17.0430 C.ar    1  04K1        0.2119
      7  N7       -18.0910    5.8730  -16.0100 N.ar    1  04K1       -0.2655
      8  C8       -18.4330    5.6300  -14.7170 C.ar    1  04K1        0.2974
      9  C9       -19.7050    5.0930  -14.3620 C.ar    1  04K1        0.2013
     10  C10      -20.6080    4.8080  -15.3470 C.ar    1  04K1        0.0481
     11  O11      -20.0090    4.8320  -13.0490 O.3     1  04K1       -0.4487
     12  C12      -20.7550    5.7360  -12.3440 C.ar    1  04K1        0.1457
     13  N13      -19.2040    5.7010  -20.6310 N.pl3   1  04K1       -0.1357
     14  C14      -17.9480    5.9990  -21.1960 C.ar    1  04K1        0.0828
     15  C15      -17.7210    5.6070  -22.5160 C.ar    1  04K1        0.0205
     16  C16      -16.5160    5.8880  -23.1400 C.ar    1  04K1        0.0383
     17  C17      -15.5140    6.5660  -22.4540 C.ar    1  04K1        0.1387
     18  C18      -15.7390    6.9760  -21.1360 C.ar    1  04K1        0.0383
     19  C19      -16.9470    6.6940  -20.5100 C.ar    1  04K1        0.0205
     20  O20      -14.3380    6.8350  -23.1010 O.3     1  04K1       -0.4740
     21  C21      -13.2400    6.2870  -22.3680 C.3     1  04K1        0.2226
     22  C22      -11.9320    6.4620  -23.1490 C.3     1  04K1        0.1200
     23  N23      -11.8790    5.5680  -24.3190 N.3     1  04K1       -0.2696
     24  C24      -10.7190    6.0120  -25.1130 C.3     1  04K1        0.0722
     25  C25      -11.0750    6.0610  -26.6020 C.3     1  04K1        0.0188
     26  C26      -11.5590    4.2110  -23.8390 C.3     1  04K1        0.0722
     27  C27      -12.5090    3.1910  -24.4760 C.3     1  04K1        0.0188
     28  O28      -17.6350    5.8750  -13.8230 O.2     1  04K1       -0.2635
     29  C29      -16.7650    6.4240  -16.3300 C.3     1  04K1        0.1362
     30  C30      -20.5020    5.8290  -10.9770 C.ar    1  04K1        0.0398
     31  C31      -21.2200    6.7030  -10.1780 C.ar    1  04K1        0.0328
     32  C32      -22.2140    7.4910  -10.7410 C.ar    1  04K1        0.1403
     33  C33      -22.4850    7.3950  -12.1020 C.ar    1  04K1        0.0328
     34  C34      -21.7640    6.5190  -12.9030 C.ar    1  04K1        0.0398
     35  F35      -22.9170    8.3480   -9.9620 F       1  04K1       -0.2042
@<TRIPOS>BOND
     1    25    24    1
     2    24    23    1
     3    27    26    1
     4    23    26    1
     5    23    22    1
     6    22    21    1
     7    16    15   ar
     8    16    17   ar
     9    20    17    1
    10    20    21    1
    11    15    14   ar
    12    17    18   ar
    13    14    13    1
    14    14    19   ar
    15    18    19   ar
    16    13     2    1
    17     2     1    2
    18     2     3    2
    19     1     4    1
    20     3     6    2
    21     4     5    2
    22     6     5   ar
    23     6     7   ar
    24     5    10   ar
    25    29     7    1
    26     7     8   ar
    27    10     9   ar
    28     8     9   ar
    29     8    28    2
    30     9    11    1
    31    11    12    1
    32    34    12   ar
    33    34    33   ar
    34    12    30   ar
    35    33    32   ar
    36    30    31   ar
    37    32    31   ar
    38    32    35    1
