@<TRIPOS>MOLECULE
3pj3_04L_A_1.pdb
 36 40 0 0 0
SMALL
GASTEIGER

@<TRIPOS>ATOM
      1  C1       -18.1040    5.8430  -20.4070 C.1     1  04L1        0.1486
      2  N2       -19.4110    5.5190  -20.5390 N.2     1  04L1       -0.2842
      3  N3       -17.8100    5.8760  -19.0880 N.2     1  04L1       -0.3321
      4  C4       -19.9410    5.3390  -19.3170 C.1     1  04L1        0.1271
      5  C5       -20.1110    5.3690  -14.2500 C.2     1  04L1        0.2685
      6  C6       -18.9260    5.5720  -18.3960 C.2     1  04L1        0.2008
      7  C7       -20.6560    5.1520  -12.8700 C.ar    1  04L1        0.0527
      8  N8       -21.1930    5.0080  -18.9020 N.2     1  04L1       -0.1787
      9  N9       -20.8320    4.9910  -15.3130 N.am    1  04L1       -0.1778
     10  C10      -19.1950    5.4560  -17.0350 C.3     1  04L1        0.1164
     11  C11      -23.0900    8.0760  -10.7740 C.2     1  04L1        0.2691
     12  C12      -23.5970    9.0820  -10.0030 C.2     1  04L1        0.0598
     13  N13      -22.2710    7.1580  -10.2330 N.am    1  04L1       -0.1754
     14  C14      -20.4880    5.1190  -16.6220 C.2     1  04L1        0.0791
     15  C15      -24.8090    9.4170  -10.1300 C.2     1  04L1        0.0047
     16  C16      -21.2010    6.2430  -12.1940 C.ar    1  04L1        0.0209
     17  C17      -17.1650    6.1230  -21.5330 C.ar    1  04L1        0.0864
     18  O18      -19.0180    5.9000  -14.3530 O.2     1  04L1       -0.2680
     19  C19      -20.6050    3.9000  -12.2590 C.ar    1  04L1       -0.0173
     20  C20      -21.7220    6.1040  -10.9070 C.ar    1  04L1        0.0738
     21  O21      -23.3980    8.0280  -11.9610 O.2     1  04L1       -0.2680
     22  C22      -21.4750    4.9000  -17.5900 C.2     1  04L1        0.1232
     23  C23      -21.1160    3.7520  -10.9680 C.ar    1  04L1       -0.0028
     24  C24      -21.6730    4.8470  -10.2980 C.ar    1  04L1        0.0163
     25  C25      -25.4630   10.4980   -9.3440 C.ar    1  04L1        0.0001
     26  C26      -20.0160    2.7110  -12.9770 C.3     1  04L1        0.0312
     27  C27      -17.5000    5.7490  -22.8340 C.ar    1  04L1        0.0121
     28  C28      -15.9480    6.7710  -21.2940 C.ar    1  04L1        0.0121
     29  C29      -26.1140   11.5330  -10.0160 C.ar    1  04L1        0.0000
     30  C30      -25.4580   10.4820   -7.9460 C.ar    1  04L1        0.0000
     31  C31      -16.6310    6.0130  -23.8920 C.ar    1  04L1        0.0007
     32  C32      -15.0760    7.0360  -22.3510 C.ar    1  04L1        0.0007
     33  C33      -26.7430   12.5560   -9.3010 C.ar    1  04L1        0.0000
     34  C34      -26.0870   11.5010   -7.2280 C.ar    1  04L1        0.0000
     35  C35      -15.4190    6.6560  -23.6520 C.ar    1  04L1        0.0000
     36  C36      -26.7320   12.5380   -7.9070 C.ar    1  04L1        0.0000
@<TRIPOS>BOND
     1    31    35   ar
     2    31    27   ar
     3    35    32   ar
     4    27    17   ar
     5    32    28   ar
     6    17    28   ar
     7    17     1    1
     8     2     1    2
     9     2     4    2
    10     1     3    2
    11     4     8    2
    12     4     6    1
    13     3     6    2
    14     8    22    1
    15     6    10    1
    16    22    14    2
    17    10    14    1
    18    14     9    1
    19     9     5   am
    20    18     5    2
    21     5     7    1
    22    26    19    1
    23     7    19   ar
    24     7    16   ar
    25    19    23   ar
    26    16    20   ar
    27    21    11    2
    28    23    24   ar
    29    20    24   ar
    30    20    13    1
    31    11    13   am
    32    11    12    1
    33    15    12    2
    34    15    25    1
    35    29    25   ar
    36    29    33   ar
    37    25    30   ar
    38    33    36   ar
    39    30    34   ar
    40    36    34   ar
