@<TRIPOS>MOLECULE
3pj8_404_A_1.pdb
 26 28 0 0 0
SMALL
GASTEIGER

@<TRIPOS>ATOM
      1  C1        11.1770   10.3100  -11.5830 C.2   299  404299      0.2353
      2  C2        12.0910   10.3960  -12.7450 C.2   299  404299      0.1805
      3  C3        13.3190    9.5920  -12.6890 C.2   299  404299      0.1833
      4  N4        13.6010    8.7900  -11.6140 N.2   299  404299     -0.3240
      5  C5        12.6980    8.7580  -10.5770 C.1   299  404299      0.2215
      6  N6        11.5490    9.5020  -10.5730 N.2   299  404299     -0.3084
      7  N7        12.0930   11.0730  -13.9130 N.2   299  404299     -0.1415
      8  N8        13.2450   10.7550  -14.6600 N.2   299  404299     -0.1495
      9  C9        14.0070    9.8830  -13.9780 C.2   299  404299      0.1122
     10  C10       15.3130    9.2500  -14.3210 C.3   299  404299      0.0448
     11  C11       15.1580    7.7330  -14.4780 C.3   299  404299      0.0065
     12  C12       16.3970    9.5970  -13.2980 C.3   299  404299      0.0065
     13  N13       10.0270   11.0220  -11.5370 N.pl3 299  404299     -0.2027
     14  C14        9.0420   10.7800  -10.4920 C.3   299  404299      0.1413
     15  C15        9.0530   11.9090   -9.4830 C.ar  299  404299     -0.0006
     16  C16        9.3700   11.6450   -8.1570 C.ar  299  404299     -0.0026
     17  C17        9.3860   12.6750   -7.2270 C.ar  299  404299     -0.0003
     18  C18        9.0850   13.9710   -7.6260 C.ar  299  404299     -0.0000
     19  C19        8.7680   14.2410   -8.9500 C.ar  299  404299     -0.0003
     20  C20        8.7570   13.2100   -9.8780 C.ar  299  404299     -0.0026
     21  N21       12.8930    8.0020   -9.4650 N.pl3 299  404299     -0.1508
     22  C22       13.7100    6.8020   -9.3950 C.3   299  404299      0.1385
     23  C23       15.1040    7.1570   -8.8900 C.3   299  404299      0.0252
     24  C24       15.0160    8.1630   -7.7660 C.3   299  404299      0.0019
     25  C25       13.8180    6.0990  -10.7430 C.3   299  404299      0.2044
     26  O26       15.0520    6.4970  -11.3520 O.3   299  404299     -0.2185
@<TRIPOS>BOND
     1     8     9    2
     2     8     7    1
     3    11    10    1
     4    10     9    1
     5    10    12    1
     6     9     3    1
     7     7     2    2
     8     2     3    1
     9     2     1    1
    10     3     4    2
    11     4     5    2
    12     1    13    1
    13     1     6    2
    14    13    14    1
    15    26    25    1
    16    25    22    1
    17     5     6    2
    18     5    21    1
    19    14    15    1
    20    20    15   ar
    21    20    19   ar
    22    15    16   ar
    23    21    22    1
    24    22    23    1
    25    19    18   ar
    26    23    24    1
    27    16    17   ar
    28    18    17   ar
