@<TRIPOS>MOLECULE
3pjc_PJC_A_1.pdb
 33 37 0 0 0
SMALL
GASTEIGER

@<TRIPOS>ATOM
      1  C5         6.9060   -4.9890    8.4100 C.2   800  PJC800      0.1225
      2  C6         7.8390   -4.3930    9.2970 C.2   800  PJC800      0.1621
      3  C8         6.3930   -4.9250   11.1290 C.1   800  PJC800      0.1480
      4  C10        5.7720   -5.6080    8.9690 C.2   800  PJC800      0.1182
      5  N12        6.2410   -4.9710   12.4880 N.pl3 800  PJC800     -0.2427
      6  C13        7.1870   -4.2920   13.3850 C.3   800  PJC800      0.1100
      7  C20        6.1520   -7.1230   13.5760 C.3   800  PJC800      0.0867
      8  C28       10.3840   -3.9280    9.3560 C.2   800  PJC800      0.1114
      9  F1         6.3820   -4.2730    6.1850 F     800  PJC800     -0.1657
     10  C2         7.0970   -5.1730    6.9060 C.3   800  PJC800      0.4225
     11  F3         8.4040   -5.1100    6.5590 F     800  PJC800     -0.1657
     12  F4         6.7030   -6.4360    6.6030 F     800  PJC800     -0.1657
     13  N7         7.5200   -4.3750   10.6040 N.2   800  PJC800     -0.3367
     14  N9         5.5640   -5.6010   10.2960 N.2   800  PJC800     -0.1699
     15  C16        8.1780   -5.4090   13.8430 C.3   800  PJC800      0.0867
     16  C19        7.4190   -6.6550   14.2810 C.2   800  PJC800      0.1542
     17  C23        5.2930   -5.8960   13.1330 C.3   800  PJC800      0.1100
     18  O26        7.8330   -7.2830   15.2290 O.2   800  PJC800     -0.2959
     19  C27        9.1260   -3.6660    8.9310 C.2   800  PJC800      0.1377
     20  C29       11.2240   -2.8940    8.7150 C.1   800  PJC800      0.2159
     21  N30       10.4940   -2.1540    7.8620 N.2   800  PJC800     -0.2575
     22  C32        9.2240   -2.5860    7.9510 C.1   800  PJC800      0.2183
     23  O33        8.2700   -2.1470    7.3370 O.2   800  PJC800     -0.2085
     24  O34       12.4200   -2.7620    8.9020 O.2   800  PJC800     -0.2085
     25  C35       10.8720   -4.8370   10.4280 C.2   800  PJC800      0.0330
     26  C36       11.9670   -4.6160   11.1910 C.2   800  PJC800      0.0996
     27  N38       12.1360   -5.5780   12.0590 N.2   800  PJC800     -0.2438
     28  C40       11.2000   -6.5310   11.9160 C.2   800  PJC800      0.0808
     29  C41       10.3360   -6.1800   10.8690 C.2   800  PJC800      0.0160
     30  C42        9.2930   -7.0330   10.4880 C.2   800  PJC800     -0.0199
     31  C44        9.1190   -8.2100   11.2460 C.3   800  PJC800      0.0521
     32  C46        9.9780   -8.5420   12.3290 C.2   800  PJC800     -0.0199
     33  C48       11.0580   -7.7080   12.6720 C.2   800  PJC800      0.0149
@<TRIPOS>BOND
     1     9    10    1
     2    11    10    1
     3    12    10    1
     4    10     1    1
     5    23    22    2
     6    21    22    2
     7    21    20    2
     8    22    19    1
     9     1     4    2
    10     1     2    1
    11    20    24    2
    12    20     8    1
    13    19     2    1
    14    19     8    2
    15     4    14    1
    16     2    13    2
    17     8    25    1
    18    14     3    2
    19    25    29    1
    20    25    26    2
    21    30    29    2
    22    30    31    1
    23    13     3    2
    24    29    28    1
    25     3     5    1
    26    26    27    1
    27    31    32    1
    28    28    27    2
    29    28    33    1
    30    32    33    2
    31     5    17    1
    32     5     6    1
    33    17     7    1
    34     6    15    1
    35     7    16    1
    36    15    16    1
    37    16    18    2
