@<TRIPOS>MOLECULE
3pjd_NAD_A_1.pdb
 44 48 0 0 0
SMALL
GASTEIGER

@<TRIPOS>ATOM
      1  PA         6.7830   16.5850  301.3180 P.3   701  NAD701      0.2189
      2  O1A        5.6980   15.4380  301.0700 O.3   701  NAD701     -0.4371
      3  O2A        8.1310   16.1040  300.6090 O.2   701  NAD701     -0.5170
      4  O5B        7.0490   16.7320  302.9000 O.3   701  NAD701     -0.3112
      5  C5B        6.0020   17.1080  303.6110 C.3   701  NAD701      0.1813
      6  C4B        6.2220   16.6910  304.9640 C.3   701  NAD701      0.1821
      7  O4B        5.2630   16.9780  305.8650 O.3   701  NAD701     -0.3135
      8  C3B        6.4290   15.2770  305.0740 C.3   701  NAD701      0.2184
      9  O3B        7.6890   15.0320  305.3150 O.3   701  NAD701     -0.2174
     10  C2B        5.5300   14.9310  306.0860 C.3   701  NAD701      0.2570
     11  O2B        5.7630   13.8080  306.7300 O.3   701  NAD701     -0.2130
     12  C1B        5.4950   16.1060  306.8570 C.3   701  NAD701      0.3186
     13  N9A        4.4710   16.0240  307.8030 N.pl3 701  NAD701     -0.1439
     14  C8A        3.1150   16.0740  307.5570 C.3   701  NAD701      0.3377
     15  N7A        2.4050   15.9540  308.7240 N.2   701  NAD701     -0.2095
     16  C5A        3.3470   15.8330  309.7070 C.2   701  NAD701      0.2526
     17  C6A        3.1850   15.6710  311.0960 C.2   701  NAD701      0.4393
     18  N6A        1.9580   15.6270  311.6530 N.pl3 701  NAD701      0.2180
     19  N1A        4.3210   15.5690  311.8730 N.2   701  NAD701      0.0021
     20  C2A        5.5940   15.6140  311.3090 C.3   701  NAD701      0.5254
     21  N3A        5.7460   15.7680  309.9360 N.2   701  NAD701     -0.0055
     22  C4A        4.6130   15.8700  309.1570 C.2   701  NAD701      0.3518
     23  O3         6.2460   17.9190  300.5370 O.3   701  NAD701     -0.2703
     24  PN         7.0890   19.3210  300.5670 P.3   701  NAD701      0.2189
     25  O1N        6.7530   20.0870  299.2090 O.2   701  NAD701     -0.5170
     26  O2N        8.6790   19.0840  300.6260 O.3   701  NAD701     -0.4371
     27  O5D        6.4990   20.2990  301.7180 O.3   701  NAD701     -0.3112
     28  C5D        7.3600   20.7660  302.5770 C.3   701  NAD701      0.1813
     29  C4D        7.1530   22.1780  302.8870 C.3   701  NAD701      0.1799
     30  O4D        7.4460   22.9620  301.8120 O.3   701  NAD701     -0.3327
     31  C3D        5.8040   22.5910  303.2850 C.3   701  NAD701      0.2158
     32  O3D        5.8180   23.5150  304.2210 O.3   701  NAD701     -0.2175
     33  C2D        5.3140   23.0490  302.0580 C.3   701  NAD701      0.2309
     34  O2D        4.1680   23.6790  302.0380 O.3   701  NAD701     -0.2158
     35  C1D        6.4290   23.7850  301.6450 C.3   701  NAD701      0.2263
     36  N1N        6.3580   24.3050  300.3690 N.pl3 701  NAD701     -0.2787
     37  C2N        6.2720   23.4380  299.2850 C.3   701  NAD701      0.1244
     38  C3N        6.2190   23.9280  297.9510 C.2   701  NAD701      0.0544
     39  C7N        6.1290   23.0060  296.8610 C.2   701  NAD701      0.2818
     40  O7N        6.0680   23.4350  295.6350 O.2   701  NAD701     -0.2670
     41  N7N        6.1070   21.6730  297.0820 N.am  701  NAD701     -0.0839
     42  C4N        6.2350   25.3420  297.7050 C.2   701  NAD701      0.0033
     43  C5N        6.3240   26.2040  298.8510 C.2   701  NAD701      0.0157
     44  C6N        6.3790   25.6680  300.1720 C.2   701  NAD701      0.0633
@<TRIPOS>BOND
     1    40    39    2
     2    39    41   am
     3    39    38    1
     4    42    38    2
     5    42    43    1
     6    38    37    1
     7    43    44    2
     8    25    24    2
     9    37    36    1
    10    44    36    1
    11    36    35    1
    12    23    24    1
    13    23     1    1
    14    24    26    1
    15    24    27    1
    16     3     1    2
    17     2     1    1
    18     1     4    1
    19    35    30    1
    20    35    33    1
    21    27    28    1
    22    30    29    1
    23    34    33    1
    24    33    31    1
    25    28    29    1
    26    29    31    1
    27     4     5    1
    28    31    32    1
    29     5     6    1
    30     6     8    1
    31     6     7    1
    32     8     9    1
    33     8    10    1
    34     7    12    1
    35    10    11    1
    36    10    12    1
    37    12    13    1
    38    14    13    1
    39    14    15    1
    40    13    22    1
    41    15    16    2
    42    22    16    1
    43    22    21    2
    44    16    17    1
    45    21    20    1
    46    17    18    1
    47    17    19    2
    48    20    19    1
