@<TRIPOS>MOLECULE
3pjd_TCL_A_1.pdb
 17 18 0 0 0
SMALL
GASTEIGER

@<TRIPOS>ATOM
      1  C1         2.5340   24.6280  297.8370 C.ar  801  TCL801      0.0566
      2  C2         2.6650   23.9610  296.5770 C.ar  801  TCL801      0.0611
      3  C6         2.5500   23.8180  299.0320 C.ar  801  TCL801      0.2307
      4  C5         2.6950   22.4080  298.8940 C.ar  801  TCL801      0.1840
      5  C4         2.8250   21.7740  297.6040 C.ar  801  TCL801      0.0417
      6  C3         2.8110   22.5540  296.4170 C.ar  801  TCL801      0.0147
      7  C11       -0.6710   19.7500  301.8150 C.ar  801  TCL801      0.0587
      8  C10        0.6540   19.4950  302.3230 C.ar  801  TCL801      0.0259
      9  C9         1.7670   20.1440  301.7130 C.ar  801  TCL801      0.0929
     10  C8         1.5710   21.0470  300.6020 C.ar  801  TCL801      0.1559
     11  C12       -0.8890   20.6420  300.7120 C.ar  801  TCL801      0.0146
     12  C13        0.2200   21.2740  300.1220 C.ar  801  TCL801      0.0392
     13  O7         2.6920   21.6550  300.0430 O.3   801  TCL801     -0.4494
     14 CL14        2.6410   24.9220  295.1460 Cl    801  TCL801     -0.0821
     15 CL15       -2.0320   18.9740  302.5380 Cl    801  TCL801     -0.0822
     16 CL16        3.3740   19.8090  302.3560 Cl    801  TCL801     -0.0790
     17  O17        2.4220   24.4030  300.2450 O.3   801  TCL801     -0.2833
@<TRIPOS>BOND
     1    14     2    1
     2     6     2   ar
     3     6     5   ar
     4     2     1   ar
     5     5     4   ar
     6     1     3   ar
     7     4     3   ar
     8     4    13    1
     9     3    17    1
    10    13    10    1
    11    12    10   ar
    12    12    11   ar
    13    10     9   ar
    14    11     7   ar
    15     9     8   ar
    16     9    16    1
    17     7     8   ar
    18     7    15    1
