@<TRIPOS>MOLECULE
3pje_NAD_A_1.pdb
 44 48 0 0 0
SMALL
GASTEIGER

@<TRIPOS>ATOM
      1  PA         6.8890   16.5140  301.3330 P.3   701  NAD701      0.2189
      2  O1A        5.7500   15.4110  301.1030 O.3   701  NAD701     -0.4371
      3  O2A        8.2030   16.0200  300.5790 O.2   701  NAD701     -0.5170
      4  O5B        7.2020   16.6100  302.9070 O.3   701  NAD701     -0.3112
      5  C5B        6.1740   16.9910  303.6440 C.3   701  NAD701      0.1813
      6  C4B        6.3890   16.5630  305.0000 C.3   701  NAD701      0.1821
      7  O4B        5.4340   16.8800  305.8980 O.3   701  NAD701     -0.3135
      8  C3B        6.5490   15.1340  305.1220 C.3   701  NAD701      0.2184
      9  O3B        7.7980   14.8350  305.3710 O.3   701  NAD701     -0.2174
     10  C2B        5.6420   14.8250  306.1310 C.3   701  NAD701      0.2570
     11  O2B        5.8460   13.7130  306.7820 O.3   701  NAD701     -0.2130
     12  C1B        5.6390   16.0050  306.8890 C.3   701  NAD701      0.3186
     13  N9A        4.6140   15.9910  307.8250 N.pl3 701  NAD701     -0.1439
     14  C8A        3.2620   16.1060  307.5740 C.3   701  NAD701      0.3377
     15  N7A        2.5500   16.0430  308.7500 N.2   701  NAD701     -0.2095
     16  C5A        3.4820   15.8900  309.7250 C.2   701  NAD701      0.2526
     17  C6A        3.3180   15.7630  311.1100 C.2   701  NAD701      0.4393
     18  N6A        2.0960   15.7980  311.6800 N.pl3 701  NAD701      0.2180
     19  N1A        4.4540   15.6120  311.8760 N.2   701  NAD701      0.0021
     20  C2A        5.7210   15.5750  311.3050 C.3   701  NAD701      0.5254
     21  N3A        5.8730   15.6990  309.9380 N.2   701  NAD701     -0.0055
     22  C4A        4.7480   15.8440  309.1710 C.2   701  NAD701      0.3518
     23  O3         6.3430   17.8600  300.5810 O.3   701  NAD701     -0.2703
     24  PN         7.2060   19.2400  300.5710 P.3   701  NAD701      0.2189
     25  O1N        6.9270   19.9580  299.1790 O.2   701  NAD701     -0.5170
     26  O2N        8.7820   18.9590  300.6940 O.3   701  NAD701     -0.4371
     27  O5D        6.5910   20.2490  301.6720 O.3   701  NAD701     -0.3112
     28  C5D        7.4440   20.6900  302.5540 C.3   701  NAD701      0.1813
     29  C4D        7.2590   22.0930  302.8750 C.3   701  NAD701      0.1799
     30  O4D        7.5200   22.8630  301.7830 O.3   701  NAD701     -0.3327
     31  C3D        5.9200   22.4990  303.3150 C.3   701  NAD701      0.2158
     32  O3D        5.9420   23.4130  304.2600 O.3   701  NAD701     -0.2175
     33  C2D        5.3870   22.9550  302.1040 C.3   701  NAD701      0.2309
     34  O2D        4.2390   23.5890  302.1210 O.3   701  NAD701     -0.2158
     35  C1D        6.5030   23.6810  301.6420 C.3   701  NAD701      0.2263
     36  N1N        6.3920   24.2010  300.3620 N.pl3 701  NAD701     -0.2787
     37  C2N        6.3060   23.3410  299.2630 C.3   701  NAD701      0.1244
     38  C3N        6.1990   23.8520  297.9380 C.2   701  NAD701      0.0544
     39  C7N        6.1080   22.9640  296.8240 C.2   701  NAD701      0.2818
     40  O7N        6.0040   23.4380  295.6140 O.2   701  NAD701     -0.2670
     41  N7N        6.1120   21.6200  296.9970 N.am  701  NAD701     -0.0839
     42  C4N        6.1910   25.2680  297.7160 C.2   701  NAD701      0.0033
     43  C5N        6.2840   26.1160  298.8650 C.2   701  NAD701      0.0157
     44  C6N        6.3870   25.5660  300.1770 C.2   701  NAD701      0.0633
@<TRIPOS>BOND
     1    40    39    2
     2    39    41   am
     3    39    38    1
     4    42    38    2
     5    42    43    1
     6    38    37    1
     7    43    44    2
     8    25    24    2
     9    37    36    1
    10    44    36    1
    11    36    35    1
    12    24    23    1
    13    24    26    1
    14    24    27    1
    15     3     1    2
    16    23     1    1
    17     2     1    1
    18     1     4    1
    19    35    30    1
    20    35    33    1
    21    27    28    1
    22    30    29    1
    23    33    34    1
    24    33    31    1
    25    28    29    1
    26    29    31    1
    27     4     5    1
    28    31    32    1
    29     5     6    1
    30     6     8    1
    31     6     7    1
    32     8     9    1
    33     8    10    1
    34     7    12    1
    35    10    11    1
    36    10    12    1
    37    12    13    1
    38    14    13    1
    39    14    15    1
    40    13    22    1
    41    15    16    2
    42    22    16    1
    43    22    21    2
    44    16    17    1
    45    21    20    1
    46    17    18    1
    47    17    19    2
    48    20    19    1
