@<TRIPOS>MOLECULE
3pje_TCL_A_1.pdb
 17 18 0 0 0
SMALL
GASTEIGER

@<TRIPOS>ATOM
      1  C1         2.5210   24.5880  297.8410 C.ar  801  TCL801      0.0566
      2  C2         2.6330   23.9620  296.5680 C.ar  801  TCL801      0.0611
      3  C6         2.5460   23.7520  299.0080 C.ar  801  TCL801      0.2307
      4  C5         2.6790   22.3510  298.8360 C.ar  801  TCL801      0.1840
      5  C4         2.7940   21.7460  297.5370 C.ar  801  TCL801      0.0417
      6  C3         2.7710   22.5580  296.3700 C.ar  801  TCL801      0.0147
      7  C11       -0.5720   19.5630  301.8210 C.ar  801  TCL801      0.0587
      8  C10        0.7820   19.2840  302.2250 C.ar  801  TCL801      0.0259
      9  C9         1.8420   19.9770  301.5850 C.ar  801  TCL801      0.0929
     10  C8         1.5890   20.9390  300.5500 C.ar  801  TCL801      0.1559
     11  C12       -0.8620   20.5200  300.7920 C.ar  801  TCL801      0.0146
     12  C13        0.2190   21.1960  300.1690 C.ar  801  TCL801      0.0392
     13  O7         2.6850   21.5740  299.9710 O.3   801  TCL801     -0.4494
     14 CL14        2.5840   24.9770  295.1580 Cl    801  TCL801     -0.0821
     15 CL15       -1.8620   18.7470  302.5820 Cl    801  TCL801     -0.0822
     16 CL16        3.4690   19.6170  302.1080 Cl    801  TCL801     -0.0790
     17  O17        2.4370   24.3060  300.2360 O.3   801  TCL801     -0.2833
@<TRIPOS>BOND
     1    14     2    1
     2     6     2   ar
     3     6     5   ar
     4     2     1   ar
     5     5     4   ar
     6     1     3   ar
     7     4     3   ar
     8     4    13    1
     9     3    17    1
    10    13    10    1
    11    12    10   ar
    12    12    11   ar
    13    10     9   ar
    14    11     7   ar
    15     9    16    1
    16     9     8   ar
    17     7     8   ar
    18     7    15    1
