@<TRIPOS>MOLECULE
3pjf_NAD_A_1.pdb
 44 48 0 0 0
SMALL
GASTEIGER

@<TRIPOS>ATOM
      1  PA        30.0420   35.3730 -222.0670 P.3   501  NAD501      0.2189
      2  O1A       29.5850   34.7840 -220.6440 O.3   501  NAD501     -0.4371
      3  O2A       30.7310   36.8000 -221.8740 O.2   501  NAD501     -0.5170
      4  O5B       28.7510   35.5640 -223.0210 O.3   501  NAD501     -0.3112
      5  C5B       27.9850   34.4970 -223.2650 C.3   501  NAD501      0.1813
      6  C4B       26.6130   34.9570 -223.5000 C.3   501  NAD501      0.1821
      7  O4B       25.6660   34.0110 -223.7330 O.3   501  NAD501     -0.3135
      8  C3B       26.0560   35.7880 -222.4330 C.3   501  NAD501      0.2184
      9  O3B       26.0390   37.0500 -222.7760 O.3   501  NAD501     -0.2174
     10  C2B       24.8120   35.2030 -222.2000 C.3   501  NAD501      0.2570
     11  O2B       23.8740   35.9280 -221.6450 O.3   501  NAD501     -0.2130
     12  C1B       24.4840   34.6270 -223.4720 C.3   501  NAD501      0.3186
     13  N9A       23.3960   33.7160 -223.3370 N.pl3 501  NAD501     -0.1439
     14  C8A       23.4030   32.4650 -222.6910 C.3   501  NAD501      0.3377
     15  N7A       22.1670   31.8540 -222.7580 N.2   501  NAD501     -0.2095
     16  C5A       21.3770   32.7300 -223.4500 C.2   501  NAD501      0.2526
     17  C6A       19.9900   32.6400 -223.8260 C.2   501  NAD501      0.4393
     18  N6A       19.2240   31.5610 -223.4980 N.pl3 501  NAD501      0.2180
     19  N1A       19.4370   33.7080 -224.5480 N.2   501  NAD501      0.0021
     20  C2A       20.2010   34.8410 -224.9020 C.3   501  NAD501      0.5254
     21  N3A       21.5530   34.9230 -224.5280 N.2   501  NAD501     -0.0055
     22  C4A       22.1230   33.8770 -223.8130 C.2   501  NAD501      0.3518
     23  O3        31.2670   34.4150 -222.5370 O.3   501  NAD501     -0.2703
     24  PN        32.0840   34.6270 -223.9280 P.3   501  NAD501      0.2189
     25  O1N       33.5770   34.1610 -223.6350 O.3   501  NAD501     -0.4371
     26  O2N       32.0900   36.1900 -224.4020 O.2   501  NAD501     -0.5170
     27  O5D       31.4370   33.5840 -224.9700 O.3   501  NAD501     -0.3112
     28  C5D       30.9500   34.0760 -226.0930 C.3   501  NAD501      0.1813
     29  C4D       31.1190   33.1680 -227.2470 C.3   501  NAD501      0.1799
     30  O4D       32.4620   32.9700 -227.4880 O.3   501  NAD501     -0.3327
     31  C3D       30.5600   31.7760 -227.1510 C.3   501  NAD501      0.2158
     32  O3D       29.9990   31.2870 -228.2520 O.3   501  NAD501     -0.2175
     33  C2D       31.6860   31.1170 -226.6560 C.3   501  NAD501      0.2309
     34  O2D       31.6120   29.8250 -226.4860 O.3   501  NAD501     -0.2158
     35  C1D       32.6580   31.6630 -227.5380 C.3   501  NAD501      0.2263
     36  N1N       34.0060   31.3200 -227.2810 N.pl3 501  NAD501     -0.2787
     37  C2N       34.6490   31.8420 -226.1160 C.3   501  NAD501      0.1244
     38  C3N       36.0220   31.5490 -225.8260 C.2   501  NAD501      0.0544
     39  C7N       36.6400   32.0880 -224.6440 C.2   501  NAD501      0.2818
     40  O7N       37.8860   31.8220 -224.3670 O.2   501  NAD501     -0.2670
     41  N7N       35.9570   32.8740 -223.7850 N.am  501  NAD501     -0.0839
     42  C4N       36.7670   30.7020 -226.7430 C.2   501  NAD501      0.0033
     43  C5N       36.0830   30.1910 -227.9080 C.2   501  NAD501      0.0157
     44  C6N       34.7060   30.5110 -228.1610 C.2   501  NAD501      0.0633
@<TRIPOS>BOND
     1    32    31    1
     2    44    43    2
     3    44    36    1
     4    43    42    1
     5    35    30    1
     6    35    36    1
     7    35    33    1
     8    30    29    1
     9    36    37    1
    10    29    31    1
    11    29    28    1
    12    31    33    1
    13    42    38    2
    14    33    34    1
    15    37    38    1
    16    28    27    1
    17    38    39    1
    18    27    24    1
    19    20    19    1
    20    20    21    1
    21    39    40    2
    22    39    41   am
    23    19    17    2
    24    21    22    2
    25    26    24    2
    26    24    25    1
    27    24    23    1
    28    17    18    1
    29    17    16    1
    30    22    16    1
    31    22    13    1
    32     7     6    1
    33     7    12    1
    34     6     5    1
    35     6     8    1
    36    12    13    1
    37    12    10    1
    38    16    15    2
    39    13    14    1
    40     5     4    1
    41     4     1    1
    42     9     8    1
    43    15    14    1
    44    23     1    1
    45     8    10    1
    46    10    11    1
    47     1     3    2
    48     1     2    1
