@<TRIPOS>MOLECULE
3pjf_TCL_A_1.pdb
 17 18 0 0 0
SMALL
GASTEIGER

@<TRIPOS>ATOM
      1  C1        35.5300   27.8700 -225.0820 C.ar  502  TCL502      0.0566
      2  C2        36.5070   28.2410 -224.1650 C.ar  502  TCL502      0.0611
      3  C6        34.2030   28.3060 -224.8740 C.ar  502  TCL502      0.2307
      4  C5        33.8980   29.1190 -223.7280 C.ar  502  TCL502      0.1840
      5  C4        34.8560   29.4710 -222.8390 C.ar  502  TCL502      0.0417
      6  C3        36.2460   29.0290 -223.0300 C.ar  502  TCL502      0.0147
      7  C11       29.5860   27.6180 -221.2060 C.ar  502  TCL502      0.0587
      8  C10       29.7230   29.0390 -221.1930 C.ar  502  TCL502      0.0259
      9  C9        30.7170   29.6390 -221.9950 C.ar  502  TCL502      0.0929
     10  C8        31.5700   28.8580 -222.8020 C.ar  502  TCL502      0.1559
     11  C12       30.4280   26.8000 -222.0080 C.ar  502  TCL502      0.0146
     12  C13       31.4230   27.4180 -222.8090 C.ar  502  TCL502      0.0392
     13  O7        32.5250   29.5490 -223.5700 O.3   502  TCL502     -0.4494
     14 CL14       38.1170   27.7350 -224.4230 Cl    502  TCL502     -0.0821
     15 CL15       28.3790   26.8760 -220.2330 Cl    502  TCL502     -0.0822
     16 CL16       30.8650   31.3830 -221.9640 Cl    502  TCL502     -0.0790
     17  O17       33.2280   27.9730 -225.7360 O.3   502  TCL502     -0.2833
@<TRIPOS>BOND
     1    17     3    1
     2     1     3   ar
     3     1     2   ar
     4     3     4   ar
     5    14     2    1
     6     2     6   ar
     7     4    13    1
     8     4     5   ar
     9    13    10    1
    10     6     5   ar
    11    12    10   ar
    12    12    11   ar
    13    10     9   ar
    14    11     7   ar
    15     9    16    1
    16     9     8   ar
    17     7     8   ar
    18     7    15    1
