@<TRIPOS>MOLECULE
3pjg_UGA_A_1.pdb
 37 39 0 0 0
SMALL
GASTEIGER

@<TRIPOS>ATOM
      1  C1'       43.0060   -9.9020   10.8250 C.3   901  UGA901      0.2746
      2  C2'       42.0530   -9.7670    9.6100 C.3   901  UGA901      0.2409
      3  O2'       41.1340   -8.7100    9.8760 O.3   901  UGA901     -0.2149
      4  C3'       41.3230  -11.1240    9.3820 C.3   901  UGA901      0.2203
      5  O3'       40.5130  -11.0800    8.2310 O.3   901  UGA901     -0.2174
      6  C4'       42.3540  -12.2340    9.2070 C.3   901  UGA901      0.2229
      7  O4'       41.7110  -13.5020    9.0570 O.3   901  UGA901     -0.2171
      8  C5'       43.2760  -12.2340   10.4350 C.3   901  UGA901      0.2529
      9  O5'       43.9230  -10.9510   10.5660 O.3   901  UGA901     -0.3167
     10  C6'       44.3970  -13.2590   10.3380 C.2   901  UGA901      0.3941
     11  O'P       45.1650  -13.3380   11.2670 O.co2 901  UGA901     -0.2429
     12  O'Q       44.5850  -14.0520    9.2520 O.co2 901  UGA901     -0.2429
     13  PB        42.8900   -9.4680   13.4190 P.3   901  UGA901      0.2208
     14  O1B       44.4220   -9.2890   13.3860 O.2   901  UGA901     -0.5170
     15  O2B       42.5110  -10.3940   14.6460 O.3   901  UGA901     -0.4371
     16  O3B       42.2610  -10.1990   12.0520 O.3   901  UGA901     -0.2857
     17  O3A       42.0430   -8.0970   13.7330 O.3   901  UGA901     -0.2703
     18  PA        42.3990   -6.7550   12.8830 P.3   901  UGA901      0.2189
     19  O1A       41.3330   -5.8290   13.2670 O.3   901  UGA901     -0.4371
     20  O2A       42.3580   -6.9880   11.3110 O.2   901  UGA901     -0.5170
     21  O5D       43.7800   -6.1200   13.4330 O.3   901  UGA901     -0.3112
     22  C5D       44.8670   -6.2640   12.5250 C.3   901  UGA901      0.1813
     23  C4D       46.0160   -5.2780   12.9240 C.3   901  UGA901      0.1799
     24  O4D       45.7680   -3.9810   12.4050 O.3   901  UGA901     -0.3320
     25  C3D       46.2120   -5.0370   14.4240 C.3   901  UGA901      0.2158
     26  O3D       47.5520   -4.6460   14.6070 O.3   901  UGA901     -0.2175
     27  C2D       45.2870   -3.8980   14.7300 C.3   901  UGA901      0.2319
     28  O2D       45.5920   -3.3240   16.0200 O.3   901  UGA901     -0.2157
     29  C1D       45.5890   -3.0140   13.4870 C.3   901  UGA901      0.2401
     30  N1        44.4930   -2.1200   13.0860 N.am  901  UGA901     -0.1766
     31  C6        43.3180   -2.6590   12.5610 C.2   901  UGA901      0.0929
     32  C2        44.6550   -0.7470   13.2210 C.1   901  UGA901      0.2845
     33  O2        45.7130   -0.2850   13.6810 O.2   901  UGA901     -0.1918
     34  N3        43.6250    0.1150   12.8310 N.2   901  UGA901     -0.2452
     35  C4        42.4480   -0.3940   12.3080 C.1   901  UGA901      0.2182
     36  O4        41.5170    0.3720   11.9560 O.2   901  UGA901     -0.2085
     37  C5        42.3000   -1.8420   12.1700 C.2   901  UGA901      0.1242
@<TRIPOS>BOND
     1     5     4    1
     2     7     6    1
     3     6     4    1
     4     6     8    1
     5    12    10   ar
     6     4     2    1
     7     2     3    1
     8     2     1    1
     9    10     8    1
    10    10    11   ar
    11     8     9    1
    12     9     1    1
    13     1    16    1
    14    20    18    2
    15    36    35    2
    16    16    13    1
    17    37    35    1
    18    37    31    2
    19    35    34    2
    20    24    23    1
    21    24    29    1
    22    22    23    1
    23    22    21    1
    24    31    30    1
    25    34    32    2
    26    18    19    1
    27    18    21    1
    28    18    17    1
    29    23    25    1
    30    30    32   am
    31    30    29    1
    32    32    33    2
    33    14    13    2
    34    13    17    1
    35    13    15    1
    36    29    27    1
    37    25    26    1
    38    25    27    1
    39    27    28    1
