@<TRIPOS>MOLECULE
3pjk_AZA_A_1.pdb
 11 12 0 0 0
SMALL
GASTEIGER

@<TRIPOS>ATOM
      1  N1        30.1300   27.7190   36.7030 N.2   302  AZA302     -0.2300
      2  C2        29.4600   27.4520   37.8510 C.1   302  AZA302      0.3745
      3  O2        28.2930   27.8820   37.9290 O.2   302  AZA302     -0.1738
      4  N3        29.9970   26.7310   38.8870 N.2   302  AZA302     -0.2491
      5  C4        31.2470   26.2600   38.7290 C.1   302  AZA302      0.1531
      6  C5        32.0120   26.4860   37.5390 C.2   302  AZA302      0.2717
      7  C6        31.3690   27.2720   36.4730 C.1   302  AZA302      0.2477
      8  O6        31.9980   27.5350   35.4410 O.2   302  AZA302     -0.2062
      9  N7        33.2370   25.8950   37.6450 N.2   302  AZA302     -0.1149
     10  N8        33.1740   25.3240   38.9290 N.pl3 302  AZA302     -0.0026
     11  N9        31.9700   25.5150   39.6290 N.2   302  AZA302     -0.0705
@<TRIPOS>BOND
     1     8     7    2
     2     7     1    2
     3     7     6    1
     4     1     2    2
     5     6     9    2
     6     6     5    1
     7     9    10    1
     8     2     3    2
     9     2     4    2
    10     5     4    2
    11     5    11    2
    12    10    11    1
