@<TRIPOS>MOLECULE
3pjq_LBT_A_1.pdb
 23 24 0 0 0
SMALL
GASTEIGER

@<TRIPOS>ATOM
      1  C1       -10.0650   19.7120    0.4020 C.3   901  LBT901      0.2695
      2  C2        -9.9530   19.3360    1.8730 C.3   901  LBT901      0.2406
      3  C3       -10.5410   17.9480    2.1910 C.3   901  LBT901      0.2198
      4  C4       -11.9860   17.8140    1.6670 C.3   901  LBT901      0.2144
      5  C5       -12.0030   18.2100    0.1740 C.3   901  LBT901      0.1835
      6  C6       -13.3880   18.1660   -0.4680 C.3   901  LBT901      0.2142
      7  O1        -9.7230   21.0930    0.2970 O.3   901  LBT901     -0.3257
      8  O2        -8.5700   19.2820    2.1860 O.3   901  LBT901     -0.2149
      9  O3       -10.3780   17.7240    3.5970 O.3   901  LBT901     -0.2174
     10  O4       -12.9280   18.6160    2.4160 O.3   901  LBT901     -0.2176
     11  O5       -11.4160   19.5190   -0.0300 O.3   901  LBT901     -0.3256
     12  O6       -13.2250   18.1920   -1.8730 O.3   901  LBT901     -0.2176
     13  C1'       -8.8440   23.6260   -2.9460 C.3   901  LBT901      0.3023
     14  C2'       -9.7240   22.3930   -3.2750 C.3   901  LBT901      0.2433
     15  C3'      -10.3130   21.8510   -1.9780 C.3   901  LBT901      0.2168
     16  C4'       -9.1860   21.4510   -0.9850 C.3   901  LBT901      0.1804
     17  C5'       -8.1790   22.6250   -0.7840 C.3   901  LBT901      0.1804
     18  C6'       -6.9060   22.2380   -0.0300 C.3   901  LBT901      0.2141
     19  O1'       -9.5570   24.6700   -2.2700 O.3   901  LBT901     -0.1869
     20  O2'      -10.7920   22.5920   -4.2330 O.3   901  LBT901     -0.2148
     21  O3'      -11.2040   20.7720   -2.3280 O.3   901  LBT901     -0.2175
     22  O5'       -7.7940   23.1980   -2.0500 O.3   901  LBT901     -0.3237
     23  O6'       -6.2260   23.4180    0.4110 O.3   901  LBT901     -0.2176
@<TRIPOS>BOND
     1    20    14    1
     2    14    13    1
     3    14    15    1
     4    13    19    1
     5    13    22    1
     6    21    15    1
     7    22    17    1
     8    15    16    1
     9    12     6    1
    10    16    17    1
    11    16     7    1
    12    17    18    1
    13     6     5    1
    14    11     5    1
    15    11     1    1
    16    18    23    1
    17     5     4    1
    18     7     1    1
    19     1     2    1
    20     4     3    1
    21     4    10    1
    22     2     8    1
    23     2     3    1
    24     3     9    1
