@<TRIPOS>MOLECULE
3pjt_C2E_A_1.pdb
 46 52 0 0 0
SMALL
GASTEIGER

@<TRIPOS>ATOM
      1  P1       -18.7560  -46.1670   15.6700 P.3   2256  C2E2256     0.2141
      2  O2P      -17.8040  -45.3260   16.4680 O.3   2256  C2E2256    -0.4373
      3  O1P      -18.8470  -47.5270   16.3410 O.2   2256  C2E2256    -0.5172
      4  O5'      -20.1820  -45.4520   15.6880 O.3   2256  C2E2256    -0.3114
      5  C5'      -21.3060  -46.2210   15.3870 C.3   2256  C2E2256     0.1812
      6  C4'      -21.6970  -46.2070   13.9390 C.3   2256  C2E2256     0.1771
      7  O4'      -22.7340  -47.1110   13.7190 O.3   2256  C2E2256    -0.3327
      8  C3'      -22.2990  -44.9220   13.4380 C.3   2256  C2E2256     0.1857
      9  O3'      -22.2790  -44.9250   12.0580 O.3   2256  C2E2256    -0.3112
     10  C2'      -23.6320  -45.0140   13.8850 C.3   2256  C2E2256     0.2282
     11  O2'      -24.5720  -44.2590   13.1390 O.3   2256  C2E2256    -0.2159
     12  C1'      -23.9570  -46.4130   13.7910 C.3   2256  C2E2256     0.2292
     13  N9       -24.9000  -47.0730   14.8860 N.pl3 2256  C2E2256    -0.2354
     14  C8       -24.9570  -46.6720   16.1660 C.3   2256  C2E2256     0.2246
     15  N7       -25.7830  -47.5010   16.8250 N.2   2256  C2E2256    -0.2322
     16  C5       -26.2320  -48.4350   15.9630 C.2   2256  C2E2256     0.2182
     17  C6       -27.1040  -49.5180   16.1170 C.1   2256  C2E2256     0.2372
     18  O6       -27.6560  -49.8420   17.3340 O.2   2256  C2E2256    -0.2069
     19  N1       -27.3700  -50.2780   15.0490 N.2   2256  C2E2256    -0.2485
     20  C2       -26.8110  -49.9930   13.8640 C.1   2256  C2E2256     0.2531
     21  N2       -27.1560  -50.8000   12.7480 N.pl3 2256  C2E2256    -0.0226
     22  N3       -25.9610  -48.9620   13.6900 N.2   2256  C2E2256    -0.3074
     23  C4       -25.6530  -48.1670   14.7180 C.2   2256  C2E2256     0.2300
     24  P11      -21.3540  -43.8660   11.3590 P.3   2256  C2E2256     0.2141
     25  O21      -21.2090  -42.6500   12.2230 O.3   2256  C2E2256    -0.4373
     26  O11      -21.9080  -43.4720   10.0250 O.2   2256  C2E2256    -0.5172
     27  O5A      -19.9490  -44.4530   11.0300 O.3   2256  C2E2256    -0.3114
     28  C5A      -19.1120  -44.3100   12.0850 C.3   2256  C2E2256     0.1812
     29  C4A      -18.0690  -45.3360   12.1560 C.3   2256  C2E2256     0.1771
     30  O4A      -16.8900  -44.8540   11.4330 O.3   2256  C2E2256    -0.3327
     31  C3A      -17.7500  -45.3030   13.5900 C.3   2256  C2E2256     0.1857
     32  O3A      -18.1740  -46.4410   14.2410 O.3   2256  C2E2256    -0.3112
     33  C2A      -16.3340  -44.9130   13.7200 C.3   2256  C2E2256     0.2282
     34  O2A      -15.5280  -45.9720   14.0010 O.3   2256  C2E2256    -0.2159
     35  C1A      -16.0080  -44.3230   12.3760 C.3   2256  C2E2256     0.2292
     36  N91      -15.7870  -42.7590   12.4050 N.pl3 2256  C2E2256    -0.2354
     37  C81      -16.7490  -41.8500   12.6340 C.3   2256  C2E2256     0.2246
     38  N71      -16.1770  -40.6400   12.7320 N.2   2256  C2E2256    -0.2322
     39  C51      -14.8490  -40.7830   12.5650 C.2   2256  C2E2256     0.2182
     40  C61      -13.7740  -39.8960   12.5670 C.1   2256  C2E2256     0.2372
     41  O61      -13.9970  -38.5600   12.8260 O.2   2256  C2E2256    -0.2069
     42  N11      -12.5250  -40.3790   12.3760 N.2   2256  C2E2256    -0.2485
     43  C21      -12.3060  -41.6840   12.1680 C.1   2256  C2E2256     0.2531
     44  N21      -10.9710  -42.1710   11.9510 N.pl3 2256  C2E2256    -0.0226
     45  N31      -13.3380  -42.5420   12.1700 N.2   2256  C2E2256    -0.3074
     46  C41      -14.5980  -42.1330   12.3650 C.2   2256  C2E2256     0.2300
@<TRIPOS>BOND
     1    26    24    2
     2    27    24    1
     3    27    28    1
     4    24     9    1
     5    24    25    1
     6    30    29    1
     7    30    35    1
     8    44    43    1
     9     9     8    1
    10    28    29    1
    11    29    31    1
    12    43    45    2
    13    43    42    2
    14    45    46    2
    15    46    36    1
    16    46    39    1
    17    42    40    2
    18    35    36    1
    19    35    33    1
    20    36    37    1
    21    39    40    1
    22    39    38    2
    23    40    41    2
    24    37    38    1
    25    21    20    1
    26    11    10    1
    27     8    10    1
    28     8     6    1
    29    31    33    1
    30    31    32    1
    31    22    20    2
    32    22    23    2
    33     7    12    1
    34     7     6    1
    35    33    34    1
    36    12    10    1
    37    12    13    1
    38    20    19    2
    39     6     5    1
    40    32     1    1
    41    23    13    1
    42    23    16    1
    43    13    14    1
    44    19    17    2
    45     5     4    1
    46     1     4    1
    47     1     3    2
    48     1     2    1
    49    16    17    1
    50    16    15    2
    51    17    18    2
    52    14    15    1
