@<TRIPOS>MOLECULE
3pju_C2E_A_1.pdb
 46 52 0 0 0
SMALL
GASTEIGER

@<TRIPOS>ATOM
      1  P1        29.1140   33.4840    4.7330 P.3   2256  C2E2256     0.2141
      2  O2P       28.8680   32.8920    6.1040 O.3   2256  C2E2256    -0.4373
      3  O1P       28.4860   32.5680    3.7030 O.2   2256  C2E2256    -0.5172
      4  O5'       28.3360   34.8690    4.7310 O.3   2256  C2E2256    -0.3114
      5  C5'       28.0560   35.4950    3.5200 C.3   2256  C2E2256     0.1812
      6  C4'       29.0650   36.5020    3.0370 C.3   2256  C2E2256     0.1771
      7  O4'       28.6810   36.9540    1.7660 O.3   2256  C2E2256    -0.3327
      8  C3'       29.1450   37.7670    3.8590 C.3   2256  C2E2256     0.1857
      9  O3'       30.3150   38.4630    3.5660 O.3   2256  C2E2256    -0.3112
     10  C2'       28.0330   38.4800    3.3750 C.3   2256  C2E2256     0.2282
     11  O2'       28.0920   39.9030    3.5380 O.3   2256  C2E2256    -0.2159
     12  C1'       27.9360   38.1220    1.9710 C.3   2256  C2E2256     0.2292
     13  N9        26.4970   37.9580    1.3460 N.pl3 2256  C2E2256    -0.2354
     14  C8        25.4030   37.5840    2.0440 C.3   2256  C2E2256     0.2246
     15  N7        24.3820   37.4890    1.1790 N.2   2256  C2E2256    -0.2322
     16  C5        24.8450   37.7870   -0.0590 C.2   2256  C2E2256     0.2182
     17  C6        24.2240   37.8420   -1.3090 C.1   2256  C2E2256     0.2372
     18  O6        22.8660   37.5800   -1.4450 O.2   2256  C2E2256    -0.2069
     19  N1        24.9740   38.1950   -2.3740 N.2   2256  C2E2256    -0.2485
     20  C2        26.2860   38.4770   -2.2530 C.1   2256  C2E2256     0.2531
     21  N2        27.0180   38.8320   -3.4330 N.pl3 2256  C2E2256    -0.0226
     22  N3        26.9130   38.4230   -1.0610 N.2   2256  C2E2256    -0.3074
     23  C4        26.2140   38.0910    0.0420 C.2   2256  C2E2256     0.2300
     24  P11       31.4350   38.5310    4.6700 P.3   2256  C2E2256     0.2141
     25  O21       30.8090   38.5990    6.0450 O.3   2256  C2E2256    -0.4373
     26  O11       32.4010   39.6740    4.4880 O.2   2256  C2E2256    -0.5172
     27  O5A       32.3780   37.3130    4.5310 O.3   2256  C2E2256    -0.3114
     28  C5A       31.9660   36.3290    5.3590 C.3   2256  C2E2256     0.1812
     29  C4A       32.4760   35.0500    4.8860 C.3   2256  C2E2256     0.1771
     30  O4A       33.7570   34.8980    5.5700 O.3   2256  C2E2256    -0.3327
     31  C3A       31.4870   34.0790    5.4110 C.3   2256  C2E2256     0.1857
     32  O3A       30.6590   33.5220    4.4310 O.3   2256  C2E2256    -0.3112
     33  C2A       32.2880   33.1830    6.2630 C.3   2256  C2E2256     0.2282
     34  O2A       32.5690   32.0200    5.6200 O.3   2256  C2E2256    -0.2159
     35  C1A       33.5320   34.0000    6.6120 C.3   2256  C2E2256     0.2292
     36  N91       33.5320   34.5560    8.1020 N.pl3 2256  C2E2256    -0.2354
     37  C81       32.6950   35.4980    8.5710 C.3   2256  C2E2256     0.2246
     38  N71       32.7980   35.5730    9.9100 N.2   2256  C2E2256    -0.2322
     39  C51       33.7110   34.6570   10.3010 C.2   2256  C2E2256     0.2182
     40  C61       34.2340   34.2770   11.5380 C.1   2256  C2E2256     0.2372
     41  O61       33.7770   34.8690   12.6960 O.2   2256  C2E2256    -0.2069
     42  N11       35.1580   33.2900   11.5830 N.2   2256  C2E2256    -0.2485
     43  C21       35.5890   32.6710   10.4770 C.1   2256  C2E2256     0.2531
     44  N21       36.6160   31.6810   10.5560 N.pl3 2256  C2E2256    -0.0226
     45  N31       35.0890   33.0300    9.2810 N.2   2256  C2E2256    -0.3074
     46  C41       34.1640   34.0040    9.1520 C.2   2256  C2E2256     0.2300
@<TRIPOS>BOND
     1    21    20    1
     2    19    20    2
     3    19    17    2
     4    20    22    2
     5    18    17    2
     6    17    16    1
     7    22    23    2
     8    16    23    1
     9    16    15    2
    10    23    13    1
    11    15    14    1
    12    13    12    1
    13    13    14    1
    14     7    12    1
    15     7     6    1
    16    12    10    1
    17     6     5    1
    18     6     8    1
    19    10    11    1
    20    10     8    1
    21     5     4    1
    22     9     8    1
    23     9    24    1
    24     3     1    2
    25    32     1    1
    26    32    31    1
    27    26    24    2
    28    27    24    1
    29    27    28    1
    30    24    25    1
    31     4     1    1
    32     1     2    1
    33    29    28    1
    34    29    31    1
    35    29    30    1
    36    31    33    1
    37    30    35    1
    38    34    33    1
    39    33    35    1
    40    35    36    1
    41    36    37    1
    42    36    46    1
    43    37    38    1
    44    46    45    2
    45    46    39    1
    46    45    43    2
    47    38    39    2
    48    39    40    1
    49    43    44    1
    50    43    42    2
    51    40    42    2
    52    40    41    2
