@<TRIPOS>MOLECULE
3pk2_4IR_A_1.pdb
 41 42 0 0 0
SMALL
GASTEIGER

@<TRIPOS>ATOM
      1 CL1        28.2120   28.3640  -16.4810 Cl    400  4IR400      0.0000
      2 IR1        28.7900   26.2370  -16.1410 Ir    400  4IR400      0.0000
      3  C1        15.4140   29.4750   -8.4930 C.1   400  4IR400      0.0000
      4  N1        16.4450   29.4650   -7.5020 N.2   400  4IR400      0.0000
      5  O1        14.0360   29.3990   -8.1850 O.2   400  4IR400      0.0000
      6  S1        17.8140   26.7520   -8.5970 S.3   400  4IR400      0.0000
      7  C2        17.7110   29.3270   -8.1860 C.3   400  4IR400      0.0000
      8  N2        15.9720   29.1700   -9.7780 N.2   400  4IR400      0.0000
      9  O2        19.6820   26.0650  -15.0360 O.2   400  4IR400      0.0000
     10  S2        25.9590   26.6860  -15.4590 S.O2  400  4IR400      0.0000
     11  C3        18.4170   28.1030   -7.6410 C.3   400  4IR400      0.0000
     12  N3        20.9480   24.1460  -14.1270 N.am  400  4IR400      0.0000
     13  O3        26.1360   26.5660  -16.9310 O.2   400  4IR400      0.0000
     14  C4        17.4170   29.1020   -9.6750 C.3   400  4IR400      0.0000
     15  N4        27.1810   25.9930  -14.7040 N.3   400  4IR400      0.0000
     16  O4        25.8710   28.1220  -15.0750 O.2   400  4IR400      0.0000
     17  C5        17.9880   27.7400  -10.0680 C.3   400  4IR400      0.0000
     18  N5        29.7860   26.6160  -14.2270 N.3   400  4IR400      0.0000
     19  C6        17.3200   27.0810  -11.2830 C.3   400  4IR400      0.0000
     20  C7        18.1830   25.9920  -11.9250 C.3   400  4IR400      0.0000
     21  C8        17.5140   25.3570  -13.1470 C.3   400  4IR400      0.0000
     22  C9        18.3780   24.2820  -13.8100 C.3   400  4IR400      0.0000
     23  C10       19.7130   24.8900  -14.2230 C.2   400  4IR400      0.0000
     24  C11       22.1410   24.7030  -14.4610 C.ar  400  4IR400      0.0000
     25  C12       22.3490   26.0500  -14.1870 C.ar  400  4IR400      0.0000
     26  C13       23.5580   26.6570  -14.5060 C.ar  400  4IR400      0.0000
     27  C14       23.1620   23.9510  -15.0550 C.ar  400  4IR400      0.0000
     28  C15       24.3880   24.5630  -15.3740 C.ar  400  4IR400      0.0000
     29  C16       24.5880   25.9260  -15.0900 C.ar  400  4IR400      0.0000
     30  C17       30.4840   26.2290  -17.3990 C.2   400  4IR400      0.0000
     31  C18       30.3270   24.9130  -16.7070 C.2   400  4IR400      0.0000
     32  C19       28.9860   24.3550  -17.0620 C.3   400  4IR400      0.0000
     33  C20       28.3200   25.3230  -17.9800 C.2   400  4IR400      0.0000
     34  C21       29.2470   26.4790  -18.1860 C.2   400  4IR400      0.0000
     35  C22       31.6740   27.1720  -17.2840 C.3   400  4IR400      0.0000
     36  C23       31.3250   24.2730  -15.7520 C.3   400  4IR400      0.0000
     37  C24       28.3870   23.0580  -16.5350 C.3   400  4IR400      0.0000
     38  C25       26.9130   25.1910  -18.5470 C.3   400  4IR400      0.0000
     39  C26       28.9510   27.7290  -19.0040 C.3   400  4IR400      0.0000
     40  C27       27.4520   26.6220  -13.3880 C.3   400  4IR400      0.0000
     41  C28       28.9360   26.8390  -13.0800 C.3   400  4IR400      0.0000
@<TRIPOS>BOND
     1    39    34    1
     2    38    33    1
     3    34    33    2
     4    34    30    1
     5    33    32    1
     6    30    35    1
     7    30    31    2
     8    32    31    1
     9    32    37    1
    10    32     2    1
    11    13    10    2
    12    31    36    1
    13    10    29    1
    14    10    16    2
    15    10    15    1
    16    28    29   ar
    17    28    27   ar
    18    29    26   ar
    19    27    24   ar
    20     9    23    2
    21    15    40    1
    22    26    25   ar
    23    24    25   ar
    24    24    12    1
    25    18    41    1
    26    23    12   am
    27    23    22    1
    28    22    21    1
    29    40    41    1
    30    21    20    1
    31    20    19    1
    32    19    17    1
    33    17    14    1
    34    17     6    1
    35     8    14    1
    36     8     3    2
    37    14     7    1
    38     6    11    1
    39     3     5    2
    40     3     4    2
    41     7    11    1
    42     7     4    1
