@<TRIPOS>MOLECULE
3pk3_AZA_A_1.pdb
 11 12 0 0 0
SMALL
GASTEIGER

@<TRIPOS>ATOM
      1  N1        30.0780   27.8100   36.7740 N.2   302  AZA302     -0.2300
      2  C2        29.4130   27.5590   37.9240 C.1   302  AZA302      0.3745
      3  O2        28.2490   27.9910   38.0130 O.2   302  AZA302     -0.1738
      4  N3        29.9550   26.8410   38.9660 N.2   302  AZA302     -0.2491
      5  C4        31.1980   26.3440   38.8370 C.1   302  AZA302      0.1531
      6  C5        31.9670   26.5950   37.6160 C.2   302  AZA302      0.2717
      7  C6        31.3270   27.3830   36.5470 C.1   302  AZA302      0.2477
      8  O6        31.9480   27.6320   35.5020 O.2   302  AZA302     -0.2062
      9  N7        33.1680   26.0030   37.7170 N.2   302  AZA302     -0.1149
     10  N8        33.2000   25.3980   38.9630 N.pl3 302  AZA302     -0.0026
     11  N9        32.0000   25.6130   39.6290 N.2   302  AZA302     -0.0705
@<TRIPOS>BOND
     1     8     7    2
     2     7     1    2
     3     7     6    1
     4     1     2    2
     5     6     9    2
     6     6     5    1
     7     9    10    1
     8     2     3    2
     9     2     4    2
    10     5     4    2
    11     5    11    2
    12    10    11    1
