@<TRIPOS>MOLECULE
3pk4_AZA_A_1.pdb
 11 12 0 0 0
SMALL
GASTEIGER

@<TRIPOS>ATOM
      1  N1        30.1410   27.8300   36.7770 N.2   302  AZA302     -0.2300
      2  C2        29.4710   27.5700   37.9300 C.1   302  AZA302      0.3745
      3  O2        28.3070   28.0020   38.0300 O.2   302  AZA302     -0.1738
      4  N3        30.0210   26.8470   38.9640 N.2   302  AZA302     -0.2491
      5  C4        31.2670   26.3680   38.8290 C.1   302  AZA302      0.1531
      6  C5        32.0440   26.5820   37.6390 C.2   302  AZA302      0.2717
      7  C6        31.4000   27.3830   36.5670 C.1   302  AZA302      0.2477
      8  O6        32.0240   27.6350   35.5140 O.2   302  AZA302     -0.2062
      9  N7        33.2680   25.9690   37.7800 N.2   302  AZA302     -0.1149
     10  N8        33.1650   25.4000   39.0670 N.pl3 302  AZA302     -0.0026
     11  N9        31.9610   25.6190   39.7500 N.2   302  AZA302     -0.0705
@<TRIPOS>BOND
     1     8     7    2
     2     7     1    2
     3     7     6    1
     4     1     2    2
     5     6     9    2
     6     6     5    1
     7     9    10    1
     8     2     3    2
     9     2     4    2
    10     5     4    2
    11     5    11    2
    12    10    11    1
