@<TRIPOS>MOLECULE
3pk5_AZA_A_1.pdb
 11 12 0 0 0
SMALL
GASTEIGER

@<TRIPOS>ATOM
      1  N1        30.1560   27.7980   36.7940 N.2   302  AZA302     -0.2300
      2  C2        29.4910   27.5350   37.9410 C.1   302  AZA302      0.3745
      3  O2        28.3480   27.9920   38.0210 O.2   302  AZA302     -0.1738
      4  N3        30.0390   26.8100   38.9720 N.2   302  AZA302     -0.2491
      5  C4        31.2770   26.3070   38.8030 C.1   302  AZA302      0.1531
      6  C5        32.0450   26.5390   37.6190 C.2   302  AZA302      0.2717
      7  C6        31.4030   27.3490   36.5670 C.1   302  AZA302      0.2477
      8  O6        32.0260   27.5930   35.5190 O.2   302  AZA302     -0.2062
      9  N7        33.2630   25.9240   37.7230 N.2   302  AZA302     -0.1149
     10  N8        33.2070   25.3320   38.9990 N.pl3 302  AZA302     -0.0026
     11  N9        32.0070   25.5510   39.6950 N.2   302  AZA302     -0.0705
@<TRIPOS>BOND
     1     8     7    2
     2     7     1    2
     3     7     6    1
     4     1     2    2
     5     6     9    2
     6     6     5    1
     7     9    10    1
     8     2     3    2
     9     2     4    2
    10     5     4    2
    11     5    11    2
    12    10    11    1
