@<TRIPOS>MOLECULE
3pk6_AZA_A_1.pdb
 11 12 0 0 0
SMALL
GASTEIGER

@<TRIPOS>ATOM
      1  N1        30.0360   27.7180   36.6810 N.2   302  AZA302     -0.2300
      2  C2        29.3760   27.4620   37.8310 C.1   302  AZA302      0.3745
      3  O2        28.2130   27.9050   37.9280 O.2   302  AZA302     -0.1738
      4  N3        29.9200   26.7430   38.8570 N.2   302  AZA302     -0.2491
      5  C4        31.1670   26.2610   38.7050 C.1   302  AZA302      0.1531
      6  C5        31.9340   26.4900   37.5190 C.2   302  AZA302      0.2717
      7  C6        31.2830   27.2900   36.4590 C.1   302  AZA302      0.2477
      8  O6        31.8860   27.5340   35.4070 O.2   302  AZA302     -0.2062
      9  N7        33.1550   25.8830   37.6340 N.2   302  AZA302     -0.1149
     10  N8        33.0710   25.2960   38.9160 N.pl3 302  AZA302     -0.0026
     11  N9        31.8700   25.5120   39.6110 N.2   302  AZA302     -0.0705
@<TRIPOS>BOND
     1     8     7    2
     2     7     1    2
     3     7     6    1
     4     1     2    2
     5     6     9    2
     6     6     5    1
     7     9    10    1
     8     2     3    2
     9     2     4    2
    10     5     4    2
    11     5    11    2
    12    10    11    1
