@<TRIPOS>MOLECULE
3pk8_AZA_A_1.pdb
 11 12 0 0 0
SMALL
GASTEIGER

@<TRIPOS>ATOM
      1  N1        30.1450   27.8050   36.7770 N.2   302  AZA302     -0.2300
      2  C2        29.4750   27.5600   37.9350 C.1   302  AZA302      0.3745
      3  O2        28.3140   28.0010   38.0290 O.2   302  AZA302     -0.1738
      4  N3        30.0060   26.8380   38.9760 N.2   302  AZA302     -0.2491
      5  C4        31.2510   26.3500   38.7950 C.1   302  AZA302      0.1531
      6  C5        32.0180   26.5790   37.6070 C.2   302  AZA302      0.2717
      7  C6        31.3830   27.3710   36.5380 C.1   302  AZA302      0.2477
      8  O6        32.0000   27.6200   35.4910 O.2   302  AZA302     -0.2062
      9  N7        33.2460   25.9740   37.7150 N.2   302  AZA302     -0.1149
     10  N8        33.1880   25.3850   38.9930 N.pl3 302  AZA302     -0.0026
     11  N9        31.9770   25.5950   39.6840 N.2   302  AZA302     -0.0705
@<TRIPOS>BOND
     1     8     7    2
     2     7     1    2
     3     7     6    1
     4     1     2    2
     5     6     9    2
     6     6     5    1
     7     9    10    1
     8     2     3    2
     9     2     4    2
    10     5     4    2
    11     5    11    2
    12    10    11    1
