@<TRIPOS>MOLECULE
3pka_Y02_A_1.pdb
 30 30 0 0 0
SMALL
GASTEIGER

@<TRIPOS>ATOM
      1  N        -39.0750  -18.3020    3.0920 N.am  288  Y02288     -0.1993
      2  O1       -43.5630  -12.7910    2.4480 O.3   288  Y02288     -0.2155
      3  O2       -41.8820  -16.4960    1.8670 O.3   288  Y02288     -0.2171
      4  O3       -41.4110  -13.9150    1.4100 O.3   288  Y02288     -0.2172
      5  O4       -40.0680  -17.4710    4.9850 O.2   288  Y02288     -0.2706
      6  O5       -39.3350  -14.9680    3.9930 O.3   288  Y02288     -0.3419
      7  O6       -39.8790  -21.7280    3.9970 O.3   288  Y02288     -0.4742
      8  C01      -44.6040  -15.2820    6.4780 C.3   288  Y02288      0.0184
      9  C02      -44.3210  -15.0860    4.9900 C.2   288  Y02288     -0.0288
     10  C03      -43.6080  -14.1090    4.4770 C.2   288  Y02288      0.0042
     11  C04      -43.2240  -14.0920    3.0360 C.3   288  Y02288      0.2065
     12  C05      -41.7400  -14.2610    2.7640 C.3   288  Y02288      0.2193
     13  C06      -41.3860  -15.7230    3.0080 C.3   288  Y02288      0.2208
     14  C07      -39.8790  -16.0130    3.1530 C.3   288  Y02288      0.2256
     15  C08      -46.1230  -15.3620    6.6690 C.3   288  Y02288      0.0043
     16  C09      -43.9700  -16.6250    6.8650 C.3   288  Y02288      0.0043
     17  C10      -44.0910  -14.1760    7.3870 C.3   288  Y02288      0.0043
     18  C11      -39.6900  -17.3190    3.7900 C.2   288  Y02288      0.2714
     19  C19      -38.8800  -19.6570    3.6050 C.3   288  Y02288      0.1624
     20  C20      -40.0860  -20.5370    3.2650 C.3   288  Y02288      0.2287
     21  C21      -37.9320  -14.8470    3.9070 C.3   288  Y02288      0.1748
     22  C22      -40.7820  -22.7880    3.6420 C.ar  288  Y02288      0.1305
     23  C23      -42.0280  -22.8220    4.1890 C.ar  288  Y02288      0.0115
     24  C24      -42.8470  -23.8510    3.8600 C.ar  288  Y02288     -0.0055
     25  C25      -42.4720  -24.8330    3.0000 C.ar  288  Y02288     -0.0223
     26  C26      -41.2250  -24.7930    2.4350 C.ar  288  Y02288     -0.0055
     27  C27      -40.3310  -23.7530    2.7430 C.ar  288  Y02288      0.0115
     28  C28      -42.4610  -21.7450    5.1730 C.3   288  Y02288      0.0342
     29  C29      -43.3880  -25.9940    2.6550 C.3   288  Y02288      0.0310
     30  C30      -38.9080  -23.6480    2.1840 C.3   288  Y02288      0.0342
@<TRIPOS>BOND
     1     4    12    1
     2     3    13    1
     3    30    27    1
     4    26    27   ar
     5    26    25   ar
     6     2    11    1
     7    29    25    1
     8    27    22   ar
     9    12    13    1
    10    12    11    1
    11    25    24   ar
    12    13    14    1
    13    11    10    1
    14     1    19    1
    15     1    18   am
    16    14    18    1
    17    14     6    1
    18    20    19    1
    19    20     7    1
    20    22     7    1
    21    22    23   ar
    22    18     5    2
    23    24    23   ar
    24    21     6    1
    25    23    28    1
    26    10     9    2
    27     9     8    1
    28     8    15    1
    29     8    16    1
    30     8    17    1
