@<TRIPOS>MOLECULE
3pkb_Y16_A_1.pdb
 22 21 0 0 0
SMALL
GASTEIGER

@<TRIPOS>ATOM
      1  N1        -3.7590  -43.1910    2.8600 N.am  286  Y16286     -0.1933
      2  O1       -10.7900  -43.9830    2.5320 O.3   286  Y16286     -0.2155
      3  N2        -0.9380  -43.6850    5.1000 N.am  286  Y16286     -0.0862
      4  O2        -6.8030  -44.4650    1.8180 O.3   286  Y16286     -0.2171
      5  O3        -8.7410  -42.7190    1.4440 O.3   286  Y16286     -0.2172
      6  O4        -4.8490  -43.6130    4.8310 O.2   286  Y16286     -0.2706
      7  O5        -2.0020  -41.8150    4.4420 O.2   286  Y16286     -0.2697
      8  O6        -6.5870  -41.5750    4.0780 O.3   286  Y16286     -0.3419
      9  C01       -9.1620  -46.1980    6.5320 C.3   286  Y16286      0.0184
     10  C02       -9.2480  -45.7950    5.0640 C.2   286  Y16286     -0.0288
     11  C03       -9.6470  -44.6570    4.5690 C.2   286  Y16286      0.0042
     12  C04       -9.5110  -44.3110    3.1020 C.3   286  Y16286      0.2065
     13  C05       -8.5670  -43.2040    2.7960 C.3   286  Y16286      0.2193
     14  C06       -7.1630  -43.6610    2.9970 C.3   286  Y16286      0.2208
     15  C07       -6.0890  -42.5740    3.1320 C.3   286  Y16286      0.2256
     16  C08       -7.7050  -46.4100    6.8840 C.3   286  Y16286      0.0043
     17  C09       -9.7970  -45.1680    7.4940 C.3   286  Y16286      0.0043
     18  C10       -9.9060  -47.4800    6.7620 C.3   286  Y16286      0.0043
     19  C11       -4.8500  -43.2060    3.6490 C.2   286  Y16286      0.2717
     20  C12       -2.5050  -43.8050    3.2500 C.3   286  Y16286      0.2031
     21  C13       -1.8150  -42.9930    4.3050 C.2   286  Y16286      0.2828
     22  C14       -5.8480  -40.3800    4.0530 C.3   286  Y16286      0.1748
@<TRIPOS>BOND
     1     5    13    1
     2     4    14    1
     3     2    12    1
     4    13    14    1
     5    13    12    1
     6     1    20    1
     7     1    19   am
     8    14    15    1
     9    12    11    1
    10    15    19    1
    11    15     8    1
    12    20    21    1
    13    19     6    2
    14    22     8    1
    15    21     7    2
    16    21     3   am
    17    11    10    2
    18    10     9    1
    19     9    18    1
    20     9    16    1
    21     9    17    1
