@<TRIPOS>MOLECULE
3pkc_Y08_A_1.pdb
 30 31 0 0 0
SMALL
GASTEIGER

@<TRIPOS>ATOM
      1  N1       -25.0830   -3.8440  -11.3840 N.am  288  Y08288     -0.2033
      2  O1       -25.7780    1.8460  -15.3460 O.3   288  Y08288     -0.2155
      3  N2       -28.3820   -4.7900   -7.8240 N.am  288  Y08288     -0.2795
      4  O2       -26.5520   -1.7170  -13.5510 O.3   288  Y08288     -0.2171
      5  O3       -25.1310   -0.7100  -15.4290 O.3   288  Y08288     -0.2172
      6  O4       -23.9180   -2.1920  -10.4760 O.2   288  Y08288     -0.2706
      7  O5       -29.4440   -6.6510   -8.4060 O.2   288  Y08288     -0.2749
      8  O6       -22.9960   -1.3710  -12.9720 O.3   288  Y08288     -0.3419
      9  C01      -26.0730    2.9020  -10.6020 C.3   288  Y08288      0.0184
     10  C02      -26.3270    2.1160  -11.8640 C.2   288  Y08288     -0.0288
     11  C03      -25.5180    2.0730  -12.9230 C.2   288  Y08288      0.0042
     12  C04      -25.9440    1.1720  -14.0330 C.3   288  Y08288      0.2065
     13  C05      -25.0070   -0.0460  -14.1040 C.3   288  Y08288      0.2193
     14  C06      -25.3130   -1.0540  -13.0110 C.3   288  Y08288      0.2208
     15  C07      -24.2340   -2.1010  -12.8330 C.3   288  Y08288      0.2256
     16  C08      -26.1070    1.9040   -9.4510 C.3   288  Y08288      0.0043
     17  C09      -24.7530    3.6400  -10.6570 C.3   288  Y08288      0.0043
     18  C10      -27.1700    3.9890  -10.4350 C.3   288  Y08288      0.0043
     19  C11      -24.3860   -2.7260  -11.4770 C.2   288  Y08288      0.2712
     20  C12      -25.3740   -4.5240  -10.0790 C.3   288  Y08288      0.1169
     21  C13      -26.7650   -4.1970   -9.5720 C.3   288  Y08288      0.0416
     22  C14      -26.6100   -2.7520   -9.0200 C.3   288  Y08288      0.0052
     23  C15      -27.8380   -2.3620   -8.1560 C.3   288  Y08288      0.0216
     24  C16      -28.2710   -3.4800   -7.1400 C.3   288  Y08288      0.0934
     25  C17      -27.1060   -5.2210   -8.4360 C.3   288  Y08288      0.0951
     26  C18      -29.5220   -5.5490   -7.8380 C.2   288  Y08288      0.2251
     27  C19      -30.7420   -5.1500   -6.9530 C.3   288  Y08288      0.0767
     28  C20      -32.1430   -5.7080   -7.4480 C.3   288  Y08288      0.0096
     29  C21      -31.9070   -4.2190   -7.1850 C.3   288  Y08288      0.0096
     30  C22      -21.8450   -2.2930  -13.0610 C.3   288  Y08288      0.1748
@<TRIPOS>BOND
     1     5    13    1
     2     2    12    1
     3    13    12    1
     4    13    14    1
     5    12    11    1
     6     4    14    1
     7    30     8    1
     8    14    15    1
     9     8    15    1
    10    11    10    2
    11    15    19    1
    12    10     9    1
    13    19     1   am
    14    19     6    2
    15     1    20    1
    16    17     9    1
    17     9    18    1
    18     9    16    1
    19    20    21    1
    20    21    22    1
    21    21    25    1
    22    22    23    1
    23    25     3    1
    24     7    26    2
    25    23    24    1
    26    26     3   am
    27    26    27    1
    28     3    24    1
    29    28    29    1
    30    28    27    1
    31    29    27    1
