@<TRIPOS>MOLECULE
3pkd_Y10_A_1.pdb
 27 28 0 0 0
SMALL
GASTEIGER

@<TRIPOS>ATOM
      1  N         25.0240   -3.7110   11.1940 N.am  288  Y10288     -0.2044
      2  O1        25.5920    1.9260   15.2210 O.3   288  Y10288     -0.2155
      3  O2        26.3730   -1.6360   13.3520 O.3   288  Y10288     -0.2171
      4  O3        24.9880   -0.6680   15.3290 O.3   288  Y10288     -0.2172
      5  O4        23.9870   -1.8900   10.2950 O.2   288  Y10288     -0.2706
      6  O5        22.8750   -1.2990   12.6910 O.3   288  Y10288     -0.3419
      7  C01       25.8490    3.0370   10.4920 C.3   288  Y10288      0.0184
      8  C02       26.1540    2.2770   11.7630 C.2   288  Y10288     -0.0288
      9  C03       25.2870    2.1310   12.7760 C.2   288  Y10288      0.0042
     10  C04       25.7650    1.2360   13.9130 C.3   288  Y10288      0.2065
     11  C05       24.8190    0.0280   14.0460 C.3   288  Y10288      0.2193
     12  C06       25.1640   -0.9640   12.9270 C.3   288  Y10288      0.2208
     13  C07       24.0740   -2.0460   12.6550 C.3   288  Y10288      0.2256
     14  C08       24.4960    3.7400   10.5120 C.3   288  Y10288      0.0043
     15  C09       25.8560    2.0120    9.3610 C.3   288  Y10288      0.0043
     16  C10       26.9550    4.0740   10.2270 C.3   288  Y10288      0.0043
     17  C11       24.3420   -2.5670   11.2900 C.2   288  Y10288      0.2712
     18  C12       25.4710   -4.2520    9.9480 C.3   288  Y10288      0.1040
     19  C13       26.1630   -5.6050   10.2410 C.3   288  Y10288      0.0480
     20  C14       27.2130   -5.7040    9.2000 C.ar  288  Y10288     -0.0243
     21  C15       27.4420   -4.4880    8.6190 C.ar  288  Y10288     -0.0243
     22  C16       26.5020   -3.4370    9.1840 C.3   288  Y10288      0.0480
     23  C17       27.9430   -6.8940    8.8750 C.ar  288  Y10288     -0.0045
     24  C18       28.9530   -6.7410    7.8840 C.ar  288  Y10288     -0.0003
     25  C19       29.1240   -5.4810    7.2720 C.ar  288  Y10288     -0.0003
     26  C20       28.3910   -4.3080    7.5930 C.ar  288  Y10288     -0.0045
     27  C21       21.7350   -2.1770   12.7850 C.3   288  Y10288      0.1748
@<TRIPOS>BOND
     1    25    26   ar
     2    25    24   ar
     3    26    21   ar
     4    24    23   ar
     5    21    22    1
     6    21    20   ar
     7    23    20   ar
     8    22    18    1
     9    20    19    1
    10    15     7    1
    11    18    19    1
    12    18     1    1
    13    16     7    1
    14     5    17    2
    15     7    14    1
    16     7     8    1
    17     1    17   am
    18    17    13    1
    19     8     9    2
    20    13     6    1
    21    13    12    1
    22     6    27    1
    23     9    10    1
    24    12     3    1
    25    12    11    1
    26    10    11    1
    27    10     2    1
    28    11     4    1
