@<TRIPOS>MOLECULE
3pke_Y10_A_1.pdb
 27 28 0 0 0
SMALL
GASTEIGER

@<TRIPOS>ATOM
      1  N        -35.1810  -24.7210   -2.9600 N.am  286  Y10286     -0.2044
      2  O1       -32.5650  -31.2720   -2.2300 O.3   286  Y10286     -0.2155
      3  O2       -34.8600  -27.8360   -1.7110 O.3   286  Y10286     -0.2171
      4  O3       -32.3800  -28.8000   -1.2600 O.3   286  Y10286     -0.2172
      5  O4       -34.6470  -25.7590   -4.9530 O.2   286  Y10286     -0.2706
      6  O5       -32.1960  -26.4540   -3.8290 O.3   286  Y10286     -0.3419
      7  C01      -35.2370  -30.8870   -6.3490 C.3   286  Y10286      0.0184
      8  C02      -34.9010  -30.6450   -4.8830 C.2   286  Y10286     -0.0288
      9  C03      -33.6830  -30.5560   -4.3170 C.2   286  Y10286      0.0042
     10  C04      -33.4350  -30.2740   -2.8300 C.3   286  Y10286      0.2065
     11  C05      -32.8730  -28.8420   -2.6450 C.3   286  Y10286      0.2193
     12  C06      -33.9470  -27.7790   -2.9110 C.3   286  Y10286      0.2208
     13  C07      -33.3790  -26.3670   -2.9990 C.3   286  Y10286      0.2256
     14  C08      -36.1730  -32.0940   -6.5590 C.3   286  Y10286      0.0043
     15  C09      -33.9840  -31.0560   -7.1960 C.3   286  Y10286      0.0043
     16  C10      -35.9650  -29.6370   -6.8130 C.3   286  Y10286      0.0043
     17  C11      -34.4480  -25.5710   -3.7330 C.2   286  Y10286      0.2712
     18  C12      -36.3020  -23.9940   -3.5460 C.3   286  Y10286      0.1040
     19  C13      -37.1740  -23.4980   -2.3930 C.3   286  Y10286      0.0480
     20  C14      -37.6740  -22.2150   -3.0080 C.ar  286  Y10286     -0.0243
     21  C15      -36.9340  -21.8500   -4.1160 C.ar  286  Y10286     -0.0243
     22  C16      -35.8060  -22.8260   -4.4180 C.3   286  Y10286      0.0480
     23  C17      -38.7640  -21.4700   -2.5490 C.ar  286  Y10286     -0.0045
     24  C18      -39.0270  -20.2850   -3.2590 C.ar  286  Y10286     -0.0003
     25  C19      -38.2810  -19.8690   -4.3860 C.ar  286  Y10286     -0.0003
     26  C20      -37.1970  -20.6620   -4.8290 C.ar  286  Y10286     -0.0045
     27  C21      -31.5070  -25.1740   -3.8350 C.3   286  Y10286      0.1748
@<TRIPOS>BOND
     1    15     7    1
     2    16     7    1
     3    14     7    1
     4     7     8    1
     5     5    17    2
     6     8     9    2
     7    26    25   ar
     8    26    21   ar
     9    22    21    1
    10    22    18    1
    11    25    24   ar
    12     9    10    1
    13    21    20   ar
    14    27     6    1
    15     6    13    1
    16    17    13    1
    17    17     1   am
    18    18     1    1
    19    18    19    1
    20    24    23   ar
    21    20    23   ar
    22    20    19    1
    23    13    12    1
    24    12    11    1
    25    12     3    1
    26    10    11    1
    27    10     2    1
    28    11     4    1
