@<TRIPOS>MOLECULE
3pkf_AZA_A_1.pdb
 11 12 0 0 0
SMALL
GASTEIGER

@<TRIPOS>ATOM
      1  N1        30.2020   27.8040   36.7690 N.2   302  AZA302     -0.2300
      2  C2        29.5250   27.5470   37.9150 C.1   302  AZA302      0.3745
      3  O2        28.3580   27.9870   38.0170 O.2   302  AZA302     -0.1738
      4  N3        30.0620   26.8380   38.9680 N.2   302  AZA302     -0.2491
      5  C4        31.2950   26.3470   38.7890 C.1   302  AZA302      0.1531
      6  C5        32.0610   26.5750   37.6050 C.2   302  AZA302      0.2717
      7  C6        31.4320   27.3630   36.5270 C.1   302  AZA302      0.2477
      8  O6        32.0620   27.6160   35.4830 O.2   302  AZA302     -0.2062
      9  N7        33.2790   25.9750   37.7240 N.2   302  AZA302     -0.1149
     10  N8        33.2280   25.3880   38.9960 N.pl3 302  AZA302     -0.0026
     11  N9        32.0200   25.5960   39.6950 N.2   302  AZA302     -0.0705
@<TRIPOS>BOND
     1     8     7    2
     2     7     1    2
     3     7     6    1
     4     1     2    2
     5     6     9    2
     6     6     5    1
     7     9    10    1
     8     2     3    2
     9     2     4    2
    10     5     4    2
    11     5    11    2
    12    10    11    1
