@<TRIPOS>MOLECULE
3pkg_AZA_A_1.pdb
 11 12 0 0 0
SMALL
GASTEIGER

@<TRIPOS>ATOM
      1  N1        30.1750   27.8080   36.7820 N.2   302  AZA302     -0.2300
      2  C2        29.5030   27.5410   37.9240 C.1   302  AZA302      0.3745
      3  O2        28.3500   27.9940   38.0170 O.2   302  AZA302     -0.1738
      4  N3        30.0400   26.8350   38.9670 N.2   302  AZA302     -0.2491
      5  C4        31.2750   26.3510   38.7850 C.1   302  AZA302      0.1531
      6  C5        32.0420   26.5810   37.5970 C.2   302  AZA302      0.2717
      7  C6        31.4090   27.3690   36.5340 C.1   302  AZA302      0.2477
      8  O6        32.0360   27.6310   35.4900 O.2   302  AZA302     -0.2062
      9  N7        33.2660   25.9770   37.7050 N.2   302  AZA302     -0.1149
     10  N8        33.2120   25.4000   38.9830 N.pl3 302  AZA302     -0.0026
     11  N9        32.0070   25.6060   39.6860 N.2   302  AZA302     -0.0705
@<TRIPOS>BOND
     1     8     7    2
     2     7     1    2
     3     7     6    1
     4     1     2    2
     5     6     9    2
     6     6     5    1
     7     9    10    1
     8     2     3    2
     9     2     4    2
    10     5     4    2
    11     5    11    2
    12    10    11    1
