@<TRIPOS>MOLECULE
3pkh_AZA_A_1.pdb
 11 12 0 0 0
SMALL
GASTEIGER

@<TRIPOS>ATOM
      1  N1        30.1560   27.8190   36.7970 N.2   302  AZA302     -0.2300
      2  C2        29.4840   27.5680   37.9530 C.1   302  AZA302      0.3745
      3  O2        28.3270   28.0190   38.0510 O.2   302  AZA302     -0.1738
      4  N3        30.0350   26.8650   38.9980 N.2   302  AZA302     -0.2491
      5  C4        31.2710   26.3680   38.8240 C.1   302  AZA302      0.1531
      6  C5        32.0410   26.5890   37.6310 C.2   302  AZA302      0.2717
      7  C6        31.3950   27.3850   36.5710 C.1   302  AZA302      0.2477
      8  O6        32.0270   27.6230   35.5260 O.2   302  AZA302     -0.2062
      9  N7        33.2670   25.9820   37.7320 N.2   302  AZA302     -0.1149
     10  N8        33.2060   25.4080   39.0090 N.pl3 302  AZA302     -0.0026
     11  N9        32.0080   25.6270   39.7210 N.2   302  AZA302     -0.0705
@<TRIPOS>BOND
     1     8     7    2
     2     7     1    2
     3     7     6    1
     4     1     2    2
     5     6     9    2
     6     6     5    1
     7     9    10    1
     8     2     3    2
     9     2     4    2
    10     5     4    2
    11     5    11    2
    12    10    11    1
