@<TRIPOS>MOLECULE
3pki_AR6_A_1.pdb
 36 39 0 0 0
SMALL
GASTEIGER

@<TRIPOS>ATOM
      1  N1        -1.1120  -11.9890   25.1670 N.2   2000  AR62000     0.0021
      2  C2        -0.4630  -12.8250   24.3250 C.3   2000  AR62000     0.5254
      3  N3         0.3120  -12.3860   23.3100 N.2   2000  AR62000    -0.0055
      4  C4         0.4910  -11.0490   23.1080 C.2   2000  AR62000     0.3518
      5  C5        -0.1510  -10.0800   24.0000 C.2   2000  AR62000     0.2526
      6  C6        -1.0160  -10.6360   25.0670 C.2   2000  AR62000     0.4393
      7  N6        -1.6460   -9.8060   25.9390 N.pl3 2000  AR62000     0.2180
      8  N7         0.1910   -8.8490   23.5610 N.2   2000  AR62000    -0.2095
      9  C8         1.0120   -9.0210   22.4900 C.3   2000  AR62000     0.3377
     10  N9         1.1670  -10.3380   22.2240 N.pl3 2000  AR62000    -0.1439
     11  PA         7.3280   -8.8300   19.5840 P.3   2000  AR62000     0.2189
     12  PB         9.4720   -9.6490   21.2800 P.3   2000  AR62000     0.2189
     13  C1'        2.0820  -10.9630   21.2530 C.3   2000  AR62000     0.3186
     14  O1A        6.4430   -7.6050   19.5080 O.3   2000  AR62000    -0.4371
     15  O1B        9.3040  -11.0230   20.6930 O.2   2000  AR62000    -0.5170
     16  C1D       12.8310   -6.1090   19.4490 C.3   2000  AR62000     0.3023
     17  O1D       13.7350   -5.5870   18.4690 O.3   2000  AR62000    -0.1869
     18  C2'        2.1260  -10.2670   19.9140 C.3   2000  AR62000     0.2570
     19  O2'        1.1810  -10.9440   19.0890 O.3   2000  AR62000    -0.2130
     20  O2A        8.1590   -9.2290   18.3990 O.2   2000  AR62000    -0.5170
     21  O2B        9.7190   -9.5270   22.7630 O.3   2000  AR62000    -0.4371
     22  C2D       13.3010   -5.8440   20.8790 C.3   2000  AR62000     0.2433
     23  O2D       14.7400   -5.9050   20.9060 O.3   2000  AR62000    -0.2148
     24  C3'        3.5690  -10.4730   19.4500 C.3   2000  AR62000     0.2184
     25  O3'        3.6760  -11.5740   18.5370 O.3   2000  AR62000    -0.2174
     26  O3A        8.2590   -8.6680   20.8920 O.3   2000  AR62000    -0.2703
     27  C3D       12.7580   -7.0620   21.6080 C.3   2000  AR62000     0.2168
     28  O3D       13.4610   -7.3220   22.8300 O.3   2000  AR62000    -0.2175
     29  C4'        4.3350  -10.8720   20.7110 C.3   2000  AR62000     0.1821
     30  O4'        3.4050  -10.9050   21.7860 O.3   2000  AR62000    -0.3135
     31  C4D       12.9870   -8.1680   20.5890 C.3   2000  AR62000     0.1807
     32  O4D       12.7710   -7.5320   19.3190 O.3   2000  AR62000    -0.3237
     33  C5'        5.4440   -9.8930   21.0240 C.3   2000  AR62000     0.1813
     34  O5'        6.4470  -10.0770   20.0330 O.3   2000  AR62000    -0.3112
     35  C5D       12.0360   -9.3510   20.7660 C.3   2000  AR62000     0.1813
     36  O5D       10.6910   -8.9240   20.5300 O.3   2000  AR62000    -0.3112
@<TRIPOS>BOND
     1    20    11    2
     2    17    16    1
     3    25    24    1
     4    19    18    1
     5    32    16    1
     6    32    31    1
     7    16    22    1
     8    24    18    1
     9    24    29    1
    10    14    11    1
    11    11    34    1
    12    11    26    1
    13    18    13    1
    14    34    33    1
    15    36    35    1
    16    36    12    1
    17    31    35    1
    18    31    27    1
    19    15    12    2
    20    29    33    1
    21    29    30    1
    22    22    23    1
    23    22    27    1
    24    26    12    1
    25    13    30    1
    26    13    10    1
    27    12    21    1
    28    27    28    1
    29    10     9    1
    30    10     4    1
    31     9     8    1
    32     4     3    2
    33     4     5    1
    34     3     2    1
    35     8     5    2
    36     5     6    1
    37     2     1    1
    38     6     1    2
    39     6     7    1
