@<TRIPOS>MOLECULE
3pkj_A2N_A_1.pdb
 39 42 0 0 0
SMALL
GASTEIGER

@<TRIPOS>ATOM
      1  N1        23.1610    0.9550   14.0430 N.2   1000  A2N1000     0.0021
      2  C2        22.4400    1.8990   13.4420 C.3   1000  A2N1000     0.5254
      3  N3        21.4780    2.5500   14.0870 N.2   1000  A2N1000    -0.0055
      4  C4        21.2150    2.2690   15.3760 C.2   1000  A2N1000     0.3518
      5  C5        21.9430    1.2900   16.0310 C.2   1000  A2N1000     0.2526
      6  C6        22.9410    0.6200   15.3280 C.2   1000  A2N1000     0.4393
      7  N6        23.6570   -0.3330   15.9110 N.pl3 1000  A2N1000     0.2180
      8  N7        21.4680    1.2040   17.2700 N.2   1000  A2N1000    -0.2095
      9  C8        20.4750    2.0900   17.3890 C.3   1000  A2N1000     0.3377
     10  N9        20.3170    2.7340   16.2300 N.pl3 1000  A2N1000    -0.1439
     11  C1'       19.4000    3.8480   15.9500 C.3   1000  A2N1000     0.3186
     12  C2'       18.0280    3.6920   16.5720 C.3   1000  A2N1000     0.2570
     13  O2'       17.1740    3.0910   15.6170 O.3   1000  A2N1000    -0.2130
     14  C3'       17.6130    5.1490   16.8360 C.3   1000  A2N1000     0.2184
     15  O3'       16.7300    5.6320   15.8180 O.3   1000  A2N1000    -0.2174
     16  C4'       18.9290    5.9360   16.7460 C.3   1000  A2N1000     0.1821
     17  O4'       19.9720    4.9670   16.6370 O.3   1000  A2N1000    -0.3135
     18  C5'       19.1850    6.6610   18.0540 C.3   1000  A2N1000     0.1813
     19  O5'       18.2770    7.7380   18.1900 O.3   1000  A2N1000    -0.3112
     20  CAA       19.4660   13.4950   27.4010 C.3   1000  A2N1000     0.0964
     21  OAC       20.0070   15.7220   26.6680 O.2   1000  A2N1000    -0.2733
     22  OAD       17.4510    6.9160   20.4320 O.3   1000  A2N1000    -0.4371
     23  OAE       21.0750   10.3840   19.8430 O.3   1000  A2N1000    -0.4371
     24  OAF       16.7020   12.1080   24.5890 O.3   1000  A2N1000    -0.1879
     25  OAI       21.1820   13.0560   23.4570 O.3   1000  A2N1000    -0.2184
     26  OAJ       16.5900    9.1400   19.4550 O.2   1000  A2N1000    -0.5170
     27  OAK       19.1420   10.4440   18.1600 O.2   1000  A2N1000    -0.5170
     28  CAO       19.5680   12.6420   20.9150 C.3   1000  A2N1000     0.1813
     29  NAS       19.4390   14.2550   25.0690 N.am  1000  A2N1000    -0.1991
     30  OAU       18.8550   11.4730   20.5050 O.3   1000  A2N1000    -0.3112
     31  OAV       17.7350   12.8330   22.5830 O.3   1000  A2N1000    -0.3244
     32  OAX       19.0200    8.9310   20.2980 O.3   1000  A2N1000    -0.2703
     33  CAY       19.6640   14.5920   26.3390 C.2   1000  A2N1000     0.2420
     34  CBC       17.6020   13.0630   24.0170 C.3   1000  A2N1000     0.2917
     35  CBF       19.8580   12.5130   23.3960 C.3   1000  A2N1000     0.2063
     36  CBH       19.0930   13.1750   22.2670 C.3   1000  A2N1000     0.1799
     37  CBI       19.0190   12.9230   24.6090 C.3   1000  A2N1000     0.1870
     38  PBL       17.7830    8.1170   19.6440 P.3   1000  A2N1000     0.2189
     39  PBM       19.6160   10.3020   19.6840 P.3   1000  A2N1000     0.2189
@<TRIPOS>BOND
     1     2     1    1
     2     2     3    1
     3     1     6    2
     4     3     4    2
     5     6     7    1
     6     6     5    1
     7     4     5    1
     8     4    10    1
     9    13    12    1
    10    15    14    1
    11    11    10    1
    12    11    12    1
    13    11    17    1
    14     5     8    2
    15    10     9    1
    16    12    14    1
    17    17    16    1
    18    16    14    1
    19    16    18    1
    20     8     9    1
    21    18    19    1
    22    27    39    2
    23    19    38    1
    24    26    38    2
    25    38    32    1
    26    38    22    1
    27    39    23    1
    28    39    32    1
    29    39    30    1
    30    30    28    1
    31    28    36    1
    32    36    31    1
    33    36    35    1
    34    31    34    1
    35    35    25    1
    36    35    37    1
    37    34    24    1
    38    34    37    1
    39    37    29    1
    40    29    33   am
    41    33    21    2
    42    33    20    1
