@<TRIPOS>MOLECULE
3pkk_AZA_A_1.pdb
 11 12 0 0 0
SMALL
GASTEIGER

@<TRIPOS>ATOM
      1  N1        30.1390   27.8390   36.7230 N.2   302  AZA302     -0.2300
      2  C2        29.4720   27.5660   37.8640 C.1   302  AZA302      0.3745
      3  O2        28.3170   28.0040   37.9660 O.2   302  AZA302     -0.1738
      4  N3        30.0050   26.8460   38.9080 N.2   302  AZA302     -0.2491
      5  C4        31.2470   26.3440   38.7950 C.1   302  AZA302      0.1531
      6  C5        32.0240   26.5950   37.5640 C.2   302  AZA302      0.2717
      7  C6        31.3940   27.4110   36.4990 C.1   302  AZA302      0.2477
      8  O6        32.0300   27.6600   35.4460 O.2   302  AZA302     -0.2062
      9  N7        33.2270   26.0060   37.6920 N.2   302  AZA302     -0.1149
     10  N8        33.2320   25.4020   38.9360 N.pl3 302  AZA302     -0.0026
     11  N9        32.0360   25.6120   39.5990 N.2   302  AZA302     -0.0705
@<TRIPOS>BOND
     1     8     7    2
     2     7     1    2
     3     7     6    1
     4     1     2    2
     5     6     9    2
     6     6     5    1
     7     9    10    1
     8     2     3    2
     9     2     4    2
    10     5     4    2
    11     5    11    2
    12    10    11    1
