@<TRIPOS>MOLECULE
3pkl_AZA_A_1.pdb
 11 12 0 0 0
SMALL
GASTEIGER

@<TRIPOS>ATOM
      1  N1        30.1090   27.8180   36.7110 N.2   302  AZA302     -0.2300
      2  C2        29.4310   27.5510   37.8450 C.1   302  AZA302      0.3745
      3  O2        28.2690   27.9900   37.9290 O.2   302  AZA302     -0.1738
      4  N3        29.9580   26.8440   38.8930 N.2   302  AZA302     -0.2491
      5  C4        31.1930   26.3260   38.7900 C.1   302  AZA302      0.1531
      6  C5        31.9940   26.5830   37.5800 C.2   302  AZA302      0.2717
      7  C6        31.3650   27.3860   36.5010 C.1   302  AZA302      0.2477
      8  O6        32.0160   27.6350   35.4660 O.2   302  AZA302     -0.2062
      9  N7        33.1930   25.9840   37.7240 N.2   302  AZA302     -0.1149
     10  N8        33.1680   25.3890   38.9760 N.pl3 302  AZA302     -0.0026
     11  N9        31.9630   25.5880   39.6180 N.2   302  AZA302     -0.0705
@<TRIPOS>BOND
     1     8     7    2
     2     7     1    2
     3     7     6    1
     4     1     2    2
     5     6     9    2
     6     6     5    1
     7     9    10    1
     8     2     3    2
     9     2     4    2
    10     5     4    2
    11     5    11    2
    12    10    11    1
