@<TRIPOS>MOLECULE
3pko_CIT_A_1.pdb
 13 12 0 0 0
SMALL
GASTEIGER

@<TRIPOS>ATOM
      1  C1        11.2440   66.7800   -8.3530 C.2   326  CIT326      0.3680
      2  O1        10.3220   66.2770   -9.0610 O.co2 326  CIT326     -0.2455
      3  O2        11.3370   66.5050   -7.1210 O.co2 326  CIT326     -0.2455
      4  C2        12.2300   67.7290   -9.0050 C.3   326  CIT326      0.1560
      5  C3        11.4040   68.9080   -9.4980 C.3   326  CIT326      0.2402
      6  O7        10.6960   69.4110   -8.3400 O.3   326  CIT326     -0.2129
      7  C4        12.2570   70.0280  -10.0870 C.3   326  CIT326      0.1560
      8  C5        12.9570   69.5430  -11.3290 C.2   326  CIT326      0.3680
      9  O3        13.9720   68.8180  -11.2430 O.co2 326  CIT326     -0.2455
     10  O4        12.5200   69.8630  -12.4530 O.co2 326  CIT326     -0.2455
     11  C6        10.3710   68.4250  -10.5050 C.2   326  CIT326      0.3927
     12  O5         9.1560   68.4580  -10.1890 O.co2 326  CIT326     -0.2429
     13  O6        10.7100   67.9800  -11.6340 O.co2 326  CIT326     -0.2429
@<TRIPOS>BOND
     1    10     8   ar
     2    13    11   ar
     3     8     9   ar
     4     8     7    1
     5    11    12   ar
     6    11     5    1
     7     7     5    1
     8     5     4    1
     9     5     6    1
    10     2     1   ar
    11     4     1    1
    12     1     3   ar
