@<TRIPOS>MOLECULE
3pkp_DTP_A_1.pdb
 30 32 0 0 0
SMALL
GASTEIGER

@<TRIPOS>ATOM
      1  PG        25.1770  -23.5870  -17.9760 P.3   500  DTP500      0.5373
      2  O1G       26.1860  -23.5670  -19.0910 O.2   500  DTP500     -0.2221
      3  O2G       24.9310  -24.6690  -16.9730 O.3   500  DTP500     -0.1143
      4  O3G       23.8140  -23.2120  -18.5160 O.3   500  DTP500     -0.1143
      5  PB        25.3840  -22.4530  -15.2750 P.3   500  DTP500      0.2277
      6  O1B       26.5340  -22.8710  -14.3820 O.3   500  DTP500     -0.4368
      7  O2B       23.9380  -22.9000  -15.0280 O.2   500  DTP500     -0.5168
      8  O3B       25.7450  -22.5280  -16.8790 O.3   500  DTP500     -0.2258
      9  PA        23.9450  -20.0040  -15.4310 P.3   500  DTP500      0.2189
     10  O1A       22.8900  -20.8110  -16.1930 O.2   500  DTP500     -0.5170
     11  O2A       24.3460  -18.6370  -15.9450 O.3   500  DTP500     -0.4371
     12  O3A       25.3330  -20.8480  -15.2480 O.3   500  DTP500     -0.2700
     13  O5'       23.5040  -19.7570  -13.8970 O.3   500  DTP500     -0.3112
     14  C5'       23.2790  -18.4250  -13.4050 C.3   500  DTP500      0.1813
     15  C4'       24.2380  -18.1700  -12.2560 C.3   500  DTP500      0.1795
     16  O4'       23.8670  -18.9270  -11.1050 O.3   500  DTP500     -0.3155
     17  C3'       25.6540  -18.5870  -12.6160 C.3   500  DTP500      0.1883
     18  O3'       26.5370  -17.5960  -12.1150 O.3   500  DTP500     -0.2202
     19  C2'       25.8920  -19.8950  -11.8970 C.3   500  DTP500      0.1151
     20  C1'       24.9130  -19.8300  -10.7270 C.3   500  DTP500      0.2873
     21  N9        24.2800  -21.1330  -10.4000 N.pl3 500  DTP500     -0.1460
     22  C8        23.6670  -21.9780  -11.2640 C.3   500  DTP500      0.3377
     23  N7        23.1690  -23.0740  -10.6340 N.2   500  DTP500     -0.2095
     24  C5        23.4620  -22.9200   -9.3210 C.2   500  DTP500      0.2526
     25  C6        23.2250  -23.7040   -8.0870 C.2   500  DTP500      0.4393
     26  N6        22.5750  -24.8780   -8.1430 N.pl3 500  DTP500      0.2180
     27  N1        23.6820  -23.2030   -6.9180 N.2   500  DTP500      0.0021
     28  C2        24.3360  -22.0180   -6.8670 C.3   500  DTP500      0.5254
     29  N3        24.5940  -21.2470   -7.9430 N.2   500  DTP500     -0.0055
     30  C4        24.1920  -21.6390   -9.1740 C.2   500  DTP500      0.3518
@<TRIPOS>BOND
     1     2     1    2
     2     4     1    1
     3     1     3    1
     4     1     8    1
     5     8     5    1
     6    10     9    2
     7    11     9    1
     8     9    12    1
     9     9    13    1
    10     5    12    1
    11     5     7    2
    12     5     6    1
    13    13    14    1
    14    14    15    1
    15    17    15    1
    16    17    18    1
    17    17    19    1
    18    15    16    1
    19    19    20    1
    20    22    23    1
    21    22    21    1
    22    16    20    1
    23    20    21    1
    24    23    24    2
    25    21    30    1
    26    24    30    1
    27    24    25    1
    28    30    29    2
    29    26    25    1
    30    25    27    2
    31    29    28    1
    32    27    28    1
