@<TRIPOS>MOLECULE
3pkq_DGT_A_1.pdb
 31 33 0 0 0
SMALL
GASTEIGER

@<TRIPOS>ATOM
      1  PG       -34.3570   56.0230   15.1250 P.3   500  DGT500      0.5373
      2  O1G      -33.0440   56.3520   14.4480 O.2   500  DGT500     -0.2221
      3  O2G      -35.4910   56.9660   14.7930 O.3   500  DGT500     -0.1143
      4  O3G      -34.1770   55.7160   16.5990 O.3   500  DGT500     -0.1143
      5  O3B      -34.7890   54.6150   14.4630 O.3   500  DGT500     -0.2258
      6  PB       -36.0340   53.7450   15.0160 P.3   500  DGT500      0.2277
      7  O1B      -37.1190   53.6710   13.9660 O.2   500  DGT500     -0.5168
      8  O2B      -36.3970   54.2480   16.4000 O.3   500  DGT500     -0.4368
      9  O3A      -35.3670   52.2700   15.1320 O.3   500  DGT500     -0.2700
     10  PA       -34.6840   51.6980   16.4860 P.3   500  DGT500      0.2189
     11  O1A      -35.5600   52.0170   17.6800 O.3   500  DGT500     -0.4371
     12  O2A      -33.2340   52.1230   16.4790 O.2   500  DGT500     -0.5170
     13  O5'      -34.7300   50.1060   16.2200 O.3   500  DGT500     -0.3112
     14  C5'      -35.4100   49.1910   17.0820 C.3   500  DGT500      0.1812
     15  C4'      -36.2940   48.2630   16.2400 C.3   500  DGT500      0.1772
     16  O4'      -37.6620   48.3400   16.6750 O.3   500  DGT500     -0.3347
     17  C3'      -36.2550   48.7050   14.7850 C.3   500  DGT500      0.1857
     18  O3'      -36.2380   47.5730   13.9340 O.3   500  DGT500     -0.2203
     19  C2'      -37.5530   49.4220   14.5460 C.3   500  DGT500      0.0865
     20  C1'      -38.4750   48.8720   15.6240 C.3   500  DGT500      0.1981
     21  N9       -39.2670   49.9900   16.1660 N.pl3 500  DGT500     -0.2374
     22  C8       -38.7720   51.1440   16.6590 C.3   500  DGT500      0.2245
     23  N7       -39.7680   51.9640   17.0690 N.2   500  DGT500     -0.2322
     24  C5       -40.9270   51.3110   16.8440 C.2   500  DGT500      0.2182
     25  C6       -42.3630   51.5980   17.0430 C.1   500  DGT500      0.2372
     26  O6       -42.7000   52.6970   17.5380 O.2   500  DGT500     -0.2069
     27  N1       -43.2550   50.6580   16.6710 N.2   500  DGT500     -0.2485
     28  C2       -42.8750   49.4790   16.1250 C.1   500  DGT500      0.2531
     29  N2       -43.8200   48.5780   15.7620 N.pl3 500  DGT500     -0.0226
     30  N3       -41.5750   49.1520   15.9090 N.2   500  DGT500     -0.3074
     31  C4       -40.5880   50.0110   16.2480 C.2   500  DGT500      0.2299
@<TRIPOS>BOND
     1    18    17    1
     2     7     6    2
     3     2     1    2
     4     5     6    1
     5     5     1    1
     6    19    17    1
     7    19    20    1
     8    17    15    1
     9     3     1    1
    10     6     9    1
    11     6     8    1
    12     1     4    1
    13     9    10    1
    14    20    21    1
    15    20    16    1
    16    29    28    1
    17    30    28    2
    18    30    31    2
    19    28    27    2
    20    21    31    1
    21    21    22    1
    22    13    10    1
    23    13    14    1
    24    15    16    1
    25    15    14    1
    26    31    24    1
    27    12    10    2
    28    10    11    1
    29    22    23    1
    30    27    25    2
    31    24    25    1
    32    24    23    2
    33    25    26    2
