@<TRIPOS>MOLECULE
3pks_AZA_A_1.pdb
 11 12 0 0 0
SMALL
GASTEIGER

@<TRIPOS>ATOM
      1  N1        30.1190   27.7710   36.7240 N.2   302  AZA302     -0.2300
      2  C2        29.4380   27.4960   37.8620 C.1   302  AZA302      0.3745
      3  O2        28.2800   27.9370   37.9450 O.2   302  AZA302     -0.1738
      4  N3        29.9790   26.7840   38.9040 N.2   302  AZA302     -0.2491
      5  C4        31.2280   26.2690   38.7890 C.1   302  AZA302      0.1531
      6  C5        32.0080   26.5320   37.5790 C.2   302  AZA302      0.2717
      7  C6        31.3630   27.3370   36.5120 C.1   302  AZA302      0.2477
      8  O6        31.9970   27.5980   35.4730 O.2   302  AZA302     -0.2062
      9  N7        33.2020   25.9430   37.6990 N.2   302  AZA302     -0.1149
     10  N8        33.2310   25.3290   38.9370 N.pl3 302  AZA302     -0.0026
     11  N9        32.0280   25.5330   39.5860 N.2   302  AZA302     -0.0705
@<TRIPOS>BOND
     1     8     7    2
     2     7     1    2
     3     7     6    1
     4     1     2    2
     5     6     9    2
     6     6     5    1
     7     9    10    1
     8     2     3    2
     9     2     4    2
    10     5     4    2
    11     5    11    2
    12    10    11    1
