@<TRIPOS>MOLECULE
3pkt_AZA_A_1.pdb
 11 12 0 0 0
SMALL
GASTEIGER

@<TRIPOS>ATOM
      1  N1        30.1180   27.7720   36.7280 N.2   302  AZA302     -0.2300
      2  C2        29.4420   27.4890   37.8690 C.1   302  AZA302      0.3745
      3  O2        28.2800   27.9170   37.9500 O.2   302  AZA302     -0.1738
      4  N3        29.9780   26.7740   38.9110 N.2   302  AZA302     -0.2491
      5  C4        31.2320   26.2600   38.7960 C.1   302  AZA302      0.1531
      6  C5        32.0070   26.5320   37.5780 C.2   302  AZA302      0.2717
      7  C6        31.3640   27.3390   36.5140 C.1   302  AZA302      0.2477
      8  O6        32.0000   27.6000   35.4720 O.2   302  AZA302     -0.2062
      9  N7        33.2070   25.9540   37.6850 N.2   302  AZA302     -0.1149
     10  N8        33.2340   25.3340   38.9260 N.pl3 302  AZA302     -0.0026
     11  N9        32.0360   25.5270   39.5930 N.2   302  AZA302     -0.0705
@<TRIPOS>BOND
     1     8     7    2
     2     7     1    2
     3     7     6    1
     4     1     2    2
     5     6     9    2
     6     6     5    1
     7     9    10    1
     8     2     3    2
     9     2     4    2
    10     5     4    2
    11     5    11    2
    12    10    11    1
