@<TRIPOS>MOLECULE
3pku_AZA_A_1.pdb
 11 12 0 0 0
SMALL
GASTEIGER

@<TRIPOS>ATOM
      1  N1        30.0810   27.7870   36.7260 N.2   302  AZA302     -0.2300
      2  C2        29.4140   27.5140   37.8650 C.1   302  AZA302      0.3745
      3  O2        28.2520   27.9430   37.9580 O.2   302  AZA302     -0.1738
      4  N3        29.9490   26.7940   38.8990 N.2   302  AZA302     -0.2491
      5  C4        31.1870   26.2760   38.7820 C.1   302  AZA302      0.1531
      6  C5        31.9680   26.5290   37.5670 C.2   302  AZA302      0.2717
      7  C6        31.3280   27.3420   36.5070 C.1   302  AZA302      0.2477
      8  O6        31.9600   27.5900   35.4670 O.2   302  AZA302     -0.2062
      9  N7        33.1540   25.9230   37.6890 N.2   302  AZA302     -0.1149
     10  N8        33.1710   25.3310   38.9420 N.pl3 302  AZA302     -0.0026
     11  N9        31.9720   25.5430   39.5870 N.2   302  AZA302     -0.0705
@<TRIPOS>BOND
     1     8     7    2
     2     7     1    2
     3     7     6    1
     4     1     2    2
     5     6     9    2
     6     6     5    1
     7     9    10    1
     8     2     3    2
     9     2     4    2
    10     5     4    2
    11     5    11    2
    12    10    11    1
