@<TRIPOS>MOLECULE
3pkx_TOF_A_1.pdb
 14 15 0 0 0
SMALL
GASTEIGER

@<TRIPOS>ATOM
      1  C1        18.6150   62.7670   55.3900 C.2   231  TOF231      0.2843
      2  O1        18.3480   61.5660   55.3600 O.2   231  TOF231     -0.2671
      3  C2        17.7040   63.8320   55.1120 C.2   231  TOF231      0.1837
      4  O2        21.4540   64.9050   56.0460 O.2   231  TOF231     -0.1925
      5  N3        16.3680   63.4670   54.7730 N.2   231  TOF231     -0.2140
      6  C4        15.4920   64.4930   54.5160 C.2   231  TOF231      0.2174
      7  N5        15.7960   65.7700   54.5460 N.2   231  TOF231     -0.1531
      8  N6        17.1220   66.1300   54.8600 N.pl3 231  TOF231     -0.1794
      9  C7        18.0640   65.1560   55.1480 C.2   231  TOF231      0.2387
     10  N8        19.3610   65.5090   55.4680 N.2   231  TOF231     -0.3021
     11  C9        20.3200   64.5200   55.7580 C.1   231  TOF231      0.2761
     12  N10       19.9390   63.1820   55.7160 N.am  231  TOF231     -0.1695
     13  C11       17.3820   67.5710   54.8970 C.3   231  TOF231      0.1427
     14  C12       20.9350   62.1590   56.0540 C.3   231  TOF231      0.1348
@<TRIPOS>BOND
     1     6     7    2
     2     6     5    1
     3     7     8    1
     4     5     3    2
     5     8    13    1
     6     8     9    1
     7     3     9    1
     8     3     1    1
     9     9    10    2
    10     2     1    2
    11     1    12   am
    12    10    11    2
    13    12    11   am
    14    12    14    1
    15    11     4    2
