@<TRIPOS>MOLECULE
3pky_UTP_A_1.pdb
 29 30 0 0 0
SMALL
GASTEIGER

@<TRIPOS>ATOM
      1  PA        42.2820   62.4270   10.0370 P.3   301  UTP301      0.2189
      2  O1A       41.1910   61.6980   10.7950 O.3   301  UTP301     -0.4371
      3  O2A       43.0970   63.4720   10.7490 O.2   301  UTP301     -0.5170
      4  O3A       41.6410   63.0940    8.7280 O.3   301  UTP301     -0.2700
      5  O5'       43.3430   61.4170    9.3720 O.3   301  UTP301     -0.3112
      6  PB        42.5640   63.6290    7.5300 P.3   301  UTP301      0.2277
      7  O1B       43.9780   63.9130    7.9890 O.3   301  UTP301     -0.4368
      8  O2B       42.3370   62.7750    6.3090 O.2   301  UTP301     -0.5168
      9  O3B       41.8250   65.0050    7.2550 O.3   301  UTP301     -0.2258
     10  PG        41.8980   66.2040    8.3130 P.3   301  UTP301      0.5373
     11  O1G       42.8690   67.1630    7.6600 O.2   301  UTP301     -0.2221
     12  O2G       40.4620   66.6900    8.3190 O.3   301  UTP301     -0.1143
     13  O3G       42.3920   65.6620    9.6380 O.3   301  UTP301     -0.1143
     14  C5'       43.3150   60.0380    9.6680 C.3   301  UTP301      0.1813
     15  C4'       43.6150   59.2360    8.4120 C.3   301  UTP301      0.1799
     16  O4'       43.4590   57.8620    8.7830 O.3   301  UTP301     -0.3320
     17  C1'       42.4180   57.2280    8.0340 C.3   301  UTP301      0.2401
     18  C2'       42.2270   58.0990    6.8090 C.3   301  UTP301      0.2319
     19  O2'       43.0750   57.5810    5.7790 O.3   301  UTP301     -0.2157
     20  C3'       42.6440   59.4890    7.2620 C.3   301  UTP301      0.2158
     21  O3'       43.2390   60.2340    6.1930 O.3   301  UTP301     -0.2175
     22  N1        41.1440   57.1760    8.7640 N.am  301  UTP301     -0.1766
     23  C6        40.8070   58.1300    9.6500 C.2   301  UTP301      0.0929
     24  C2        40.2490   56.1110    8.5170 C.1   301  UTP301      0.2845
     25  O2        40.5700   55.2230    7.6890 O.2   301  UTP301     -0.1918
     26  N3        39.0700   56.0670    9.1770 N.2   301  UTP301     -0.2452
     27  C4        38.7330   57.0290   10.0690 C.1   301  UTP301      0.2182
     28  O4        37.6470   57.0030   10.6920 O.2   301  UTP301     -0.2085
     29  C5        39.5980   58.0820   10.3260 C.2   301  UTP301      0.1242
@<TRIPOS>BOND
     1    19    18    1
     2    21    20    1
     3     8     6    2
     4    18    20    1
     5    18    17    1
     6     9     6    1
     7     9    10    1
     8    20    15    1
     9     6     7    1
    10     6     4    1
    11    11    10    2
    12    25    24    2
    13    17    22    1
    14    17    16    1
    15    10    12    1
    16    10    13    1
    17    15    16    1
    18    15    14    1
    19    24    22   am
    20    24    26    2
    21     4     1    1
    22    22    23    1
    23    26    27    2
    24     5    14    1
    25     5     1    1
    26    23    29    2
    27     1     3    2
    28     1     2    1
    29    27    29    1
    30    27    28    2
