@<TRIPOS>MOLECULE
3pl8_G3F_A_1.pdb
 12 12 0 0 0
SMALL
GASTEIGER

@<TRIPOS>ATOM
      1  C1        66.2070   58.6890   43.8550 C.3   903  G3F903      0.3026
      2  O1        66.4720   57.6020   42.9940 O.3   903  G3F903     -0.1869
      3  C2        66.0650   59.9130   43.0020 C.3   903  G3F903      0.2456
      4  O2        67.2440   60.2440   42.3530 O.3   903  G3F903     -0.2145
      5  C3        65.6430   61.0820   43.8880 C.3   903  G3F903      0.2289
      6  F3        65.4360   62.2120   43.0450 F     903  G3F903     -0.2315
      7  C4        64.3310   60.7540   44.5890 C.3   903  G3F903      0.2166
      8  O4        63.9530   61.8250   45.4560 O.3   903  G3F903     -0.2174
      9  C5        64.4780   59.4660   45.3510 C.3   903  G3F903      0.1838
     10  O5        64.9380   58.4260   44.4520 O.3   903  G3F903     -0.3236
     11  C6        63.1840   58.9450   45.8730 C.3   903  G3F903      0.2142
     12  O6        63.3700   57.9160   46.8670 O.3   903  G3F903     -0.2176
@<TRIPOS>BOND
     1     4     3    1
     2     2     1    1
     3     3     1    1
     4     3     5    1
     5     6     5    1
     6     1    10    1
     7     5     7    1
     8    10     9    1
     9     7     9    1
    10     7     8    1
    11     9    11    1
    12    11    12    1
