@<TRIPOS>MOLECULE
3pla_SAH_E_1.pdb
 26 28 0 0 0
SMALL
GASTEIGER

@<TRIPOS>ATOM
      1  N         81.3300  -23.5640   15.7320 N.3   301  SAH301     -0.1208
      2  CA        82.7500  -23.5300   16.0790 C.3   301  SAH301      0.1952
      3  CB        83.6040  -24.4420   15.1850 C.3   301  SAH301      0.0422
      4  CG        82.9730  -25.8070   14.8690 C.3   301  SAH301      0.0597
      5  SD        84.1960  -27.0830   14.8100 S.3   301  SAH301     -0.1375
      6  C         83.2150  -22.1150   15.9500 C.2   301  SAH301      0.3819
      7  O         83.8080  -21.5310   16.8560 O.co2 301  SAH301     -0.2441
      8  OXT       82.9960  -21.4950   14.9190 O.co2 301  SAH301     -0.2441
      9  C5'       83.3000  -28.5020   14.2950 C.3   301  SAH301      0.0899
     10  C4'       82.8090  -29.1630   15.5740 C.3   301  SAH301      0.1630
     11  O4'       81.7000  -30.0100   15.2770 O.3   301  SAH301     -0.3153
     12  C3'       83.8570  -30.0240   16.2780 C.3   301  SAH301      0.2168
     13  O3'       84.0910  -29.4960   17.5920 O.3   301  SAH301     -0.2175
     14  C2'       83.2430  -31.4190   16.3030 C.3   301  SAH301      0.2569
     15  O2'       83.5430  -32.1870   17.4760 O.3   301  SAH301     -0.2130
     16  C1'       81.7590  -31.1090   16.1840 C.3   301  SAH301      0.3185
     17  N9        80.9340  -32.2340   15.6790 N.pl3 301  SAH301     -0.1439
     18  C8        81.2060  -33.0410   14.6280 C.3   301  SAH301      0.3377
     19  N7        80.2290  -33.9660   14.4530 N.2   301  SAH301     -0.2095
     20  C5        79.3050  -33.7350   15.4020 C.2   301  SAH301      0.2526
     21  C6        78.0170  -34.3330   15.7890 C.2   301  SAH301      0.4393
     22  N6        77.5440  -35.3850   15.0830 N.pl3 301  SAH301      0.2180
     23  N1        77.3530  -33.8030   16.8490 N.2   301  SAH301      0.0021
     24  C2        77.8330  -32.7620   17.5580 C.3   301  SAH301      0.5254
     25  N3        79.0020  -32.1690   17.2580 N.2   301  SAH301     -0.0055
     26  C4        79.7650  -32.5970   16.2110 C.2   301  SAH301      0.3518
@<TRIPOS>BOND
     1     9     5    1
     2     9    10    1
     3    19    18    1
     4    19    20    2
     5    18    17    1
     6     5     4    1
     7     4     3    1
     8     8     6   ar
     9    22    21    1
    10     3     2    1
    11    11    10    1
    12    11    16    1
    13    20    21    1
    14    20    26    1
    15    10    12    1
    16    17    16    1
    17    17    26    1
    18     1     2    1
    19    21    23    2
    20     6     2    1
    21     6     7   ar
    22    16    14    1
    23    26    25    2
    24    12    14    1
    25    12    13    1
    26    14    15    1
    27    23    24    1
    28    25    24    1
