@<TRIPOS>MOLECULE
3pld_F90_A_1.pdb
 12 12 0 0 0
SMALL
GASTEIGER

@<TRIPOS>ATOM
      1  C1         1.5670    8.9170    8.7660 C.ar  2001  F902001    -0.0108
      2  C2         1.8330    7.4360    8.7100 C.3   2001  F902001     0.0914
      3  S3         1.5470    6.8580   10.4330 S.3   2001  F902001    -0.0676
      4  C4         2.0740    5.1830   10.2890 C.2   2001  F902001     0.2307
      5  N5         2.4630    4.6340    9.1890 N.pl3 2001  F902001    -0.1181
      6  N6         1.8300    4.5260   11.4370 N.pl3 2001  F902001    -0.1181
      7  C7         0.3590    9.5820    8.5590 C.ar  2001  F902001    -0.0025
      8  C8         0.2970   10.9640    8.7470 C.ar  2001  F902001     0.0111
      9  C9         1.4100   11.7020    9.1410 C.ar  2001  F902001     0.0577
     10 CL10        1.2780   13.4080    9.3270 Cl    2001  F902001    -0.0822
     11  C11        2.6100   11.0750    9.4050 C.ar  2001  F902001     0.0111
     12  C12        2.6750    9.6890    9.2290 C.ar  2001  F902001    -0.0025
@<TRIPOS>BOND
     1     7     8   ar
     2     7     1   ar
     3     2     1    1
     4     2     3    1
     5     8     9   ar
     6     1    12   ar
     7     9    10    1
     8     9    11   ar
     9     5     4    2
    10    12    11   ar
    11     4     3    1
    12     4     6    1
