@<TRIPOS>MOLECULE
3ple_AZA_A_1.pdb
 11 12 0 0 0
SMALL
GASTEIGER

@<TRIPOS>ATOM
      1  N1        30.1410   27.8070   36.7410 N.2   302  AZA302     -0.2300
      2  C2        29.4690   27.5500   37.8810 C.1   302  AZA302      0.3745
      3  O2        28.3080   28.0020   37.9900 O.2   302  AZA302     -0.1738
      4  N3        29.9940   26.8500   38.9310 N.2   302  AZA302     -0.2491
      5  C4        31.2370   26.3430   38.8100 C.1   302  AZA302      0.1531
      6  C5        32.0190   26.5750   37.5810 C.2   302  AZA302      0.2717
      7  C6        31.3810   27.3610   36.4980 C.1   302  AZA302      0.2477
      8  O6        32.0100   27.6240   35.4460 O.2   302  AZA302     -0.2062
      9  N7        33.2140   25.9790   37.7110 N.2   302  AZA302     -0.1149
     10  N8        33.2280   25.3870   38.9660 N.pl3 302  AZA302     -0.0026
     11  N9        32.0210   25.6040   39.6250 N.2   302  AZA302     -0.0705
@<TRIPOS>BOND
     1     8     7    2
     2     7     1    2
     3     7     6    1
     4     1     2    2
     5     6     9    2
     6     6     5    1
     7     9    10    1
     8     2     3    2
     9     2     4    2
    10     5     4    2
    11     5    11    2
    12    10    11    1
