@<TRIPOS>MOLECULE
3plf_III_A_1.pdb
 40 40 0 0 0
SMALL
GASTEIGER

@<TRIPOS>ATOM
      1  N         30.1340   -1.7210  -12.1660 N.3   1002  ARG1002    -0.1231
      2  CA        29.4540   -1.5230  -10.9160 C.3   1002  ARG1002     0.1694
      3  C         28.8980   -2.8530  -10.5480 C.2   1002  ARG1002     0.2592
      4  O         29.4330   -3.4990   -9.6060 O.2   1002  ARG1002    -0.2718
      5  CB        28.4720   -0.3760  -10.8470 C.3   1002  ARG1002     0.0321
      6  CG        27.8010   -0.1950   -9.5930 C.3   1002  ARG1002     0.0489
      7  CD        28.1160    0.9660   -8.6840 C.3   1002  ARG1002     0.2205
      8  NE        26.9540    1.2800   -7.8110 N.pl3 1002  ARG1002    -0.0865
      9  CZ        27.0240    2.0760   -6.7470 C.cat 1002  ARG1002     0.5346
     10  NH1       28.1880    2.6280   -6.3720 N.pl3 1002  ARG1002     0.1354
     11  NH2       25.9350    2.3050   -6.0290 N.pl3 1002  ARG1002     0.1354
     12  N         27.8070   -3.2570  -11.2130 N.am  1003  TYR1003    -0.1962
     13  CA        27.3400   -4.6030  -11.0470 C.3   1003  TYR1003     0.1771
     14  C         27.8750   -5.4530  -12.1890 C.2   1003  TYR1003     0.2620
     15  O         27.6830   -5.1180  -13.3350 O.2   1003  TYR1003    -0.2715
     16  CB        25.8170   -4.6220  -10.9690 C.3   1003  TYR1003     0.0574
     17  CG        25.2540   -3.9170   -9.7300 C.ar  1003  TYR1003    -0.0198
     18  CD1       25.5500   -4.3840   -8.4190 C.ar  1003  TYR1003    -0.0011
     19  CD2       24.4910   -2.7450   -9.8530 C.ar  1003  TYR1003    -0.0011
     20  CE1       25.0480   -3.7030   -7.2810 C.ar  1003  TYR1003     0.0371
     21  CE2       23.9930   -2.0720   -8.7270 C.ar  1003  TYR1003     0.0371
     22  CZ        24.2710   -2.5530   -7.4380 C.ar  1003  TYR1003     0.1490
     23  OH        23.8300   -1.9900   -6.3990 O.3   1003  TYR1003    -0.3998
     24  P         23.0630   -0.5690   -6.3200 P.3   1003  TYR1003     0.5887
     25  O1P       23.9050    0.5100   -6.8360 O.3   1003  TYR1003    -0.1039
     26  O2P       22.7610   -0.1910   -4.8860 O.3   1003  TYR1003    -0.1039
     27  O3P       21.7660   -0.6260   -7.0870 O.2   1003  TYR1003    -0.2114
     28  N         28.5680   -6.5400  -11.9230 N.am  1004  ASP1004    -0.1957
     29  CA        29.0130   -7.3170  -13.0750 C.3   1004  ASP1004     0.1840
     30  C         28.1640   -8.5480  -13.2090 C.2   1004  ASP1004     0.2621
     31  O         27.1410   -8.6470  -12.5530 O.2   1004  ASP1004    -0.2715
     32  CB        30.5040   -7.6190  -13.0540 C.3   1004  ASP1004     0.1450
     33  CG        31.0990   -7.5170  -11.6850 C.2   1004  ASP1004     0.3671
     34  OD1       30.9960   -8.5070  -10.9540 O.co2 1004  ASP1004    -0.2456
     35  OD2       31.6810   -6.4650  -11.3520 O.co2 1004  ASP1004    -0.2456
     36  N         28.5620   -9.4710  -14.0730 N.am  1005  ALA1005    -0.1977
     37  CA        27.7590  -10.6780  -14.3110 C.3   1005  ALA1005     0.1597
     38  C         27.8800  -11.7030  -13.2020 C.2   1005  ALA1005     0.2287
     39  O         26.9740  -12.5330  -13.0100 O.2   1005  ALA1005    -0.2864
     40  CB        28.1780  -11.3240  -15.6410 C.3   1005  ALA1005     0.0319
@<TRIPOS>BOND
     1    40    37    1
     2    37    36    1
     3    37    38    1
     4    36    30   am
     5    15    14    2
     6    30    29    1
     7    30    31    2
     8    38    39    2
     9    29    32    1
    10    29    28    1
    11    32    33    1
    12    14    28   am
    13    14    13    1
    14     1     2    1
    15    33    35   ar
    16    33    34   ar
    17    12    13    1
    18    12     3   am
    19    13    16    1
    20    16    17    1
    21     2     5    1
    22     2     3    1
    23     5     6    1
    24     3     4    2
    25    19    17   ar
    26    19    21   ar
    27    17    18   ar
    28     6     7    1
    29    21    22   ar
    30     7     8    1
    31    18    20   ar
    32     8     9    2
    33    22    20   ar
    34    22    23    1
    35    27    24    2
    36    25    24    1
    37     9    10    1
    38     9    11    1
    39    23    24    1
    40    24    26    1
