@<TRIPOS>MOLECULE
3plg_AZA_A_1.pdb
 11 12 0 0 0
SMALL
GASTEIGER

@<TRIPOS>ATOM
      1  N1        30.1980   27.7840   36.7390 N.2   302  AZA302     -0.2300
      2  C2        29.5200   27.5370   37.8820 C.1   302  AZA302      0.3745
      3  O2        28.3630   27.9840   37.9900 O.2   302  AZA302     -0.1738
      4  N3        30.0410   26.8310   38.9300 N.2   302  AZA302     -0.2491
      5  C4        31.2820   26.3270   38.8090 C.1   302  AZA302      0.1531
      6  C5        32.0630   26.5560   37.5860 C.2   302  AZA302      0.2717
      7  C6        31.4390   27.3430   36.5020 C.1   302  AZA302      0.2477
      8  O6        32.0600   27.5930   35.4490 O.2   302  AZA302     -0.2062
      9  N7        33.2580   25.9540   37.7100 N.2   302  AZA302     -0.1149
     10  N8        33.2670   25.3730   38.9640 N.pl3 302  AZA302     -0.0026
     11  N9        32.0670   25.5940   39.6270 N.2   302  AZA302     -0.0705
@<TRIPOS>BOND
     1     8     7    2
     2     7     1    2
     3     7     6    1
     4     1     2    2
     5     6     9    2
     6     6     5    1
     7     9    10    1
     8     2     3    2
     9     2     4    2
    10     5     4    2
    11     5    11    2
    12    10    11    1
