@<TRIPOS>MOLECULE
3plh_AZA_A_1.pdb
 11 12 0 0 0
SMALL
GASTEIGER

@<TRIPOS>ATOM
      1  N1        30.1430   27.8040   36.7290 N.2   302  AZA302     -0.2300
      2  C2        29.4710   27.5380   37.8730 C.1   302  AZA302      0.3745
      3  O2        28.3120   27.9630   37.9760 O.2   302  AZA302     -0.1738
      4  N3        30.0170   26.8140   38.9000 N.2   302  AZA302     -0.2491
      5  C4        31.2610   26.3110   38.7890 C.1   302  AZA302      0.1531
      6  C5        32.0390   26.5570   37.5690 C.2   302  AZA302      0.2717
      7  C6        31.3820   27.3560   36.4920 C.1   302  AZA302      0.2477
      8  O6        31.9840   27.6220   35.4260 O.2   302  AZA302     -0.2062
      9  N7        33.2300   25.9530   37.7020 N.2   302  AZA302     -0.1149
     10  N8        33.2280   25.3620   38.9490 N.pl3 302  AZA302     -0.0026
     11  N9        32.0290   25.5780   39.6060 N.2   302  AZA302     -0.0705
@<TRIPOS>BOND
     1     8     7    2
     2     7     1    2
     3     7     6    1
     4     1     2    2
     5     6     9    2
     6     6     5    1
     7     9    10    1
     8     2     3    2
     9     2     4    2
    10     5     4    2
    11     5    11    2
    12    10    11    1
