@<TRIPOS>MOLECULE
3pli_AZA_A_1.pdb
 11 12 0 0 0
SMALL
GASTEIGER

@<TRIPOS>ATOM
      1  N1        30.1360   27.8080   36.7470 N.2   302  AZA302     -0.2300
      2  C2        29.4680   27.5550   37.8990 C.1   302  AZA302      0.3745
      3  O2        28.3100   27.9890   37.9830 O.2   302  AZA302     -0.1738
      4  N3        29.9930   26.8370   38.9460 N.2   302  AZA302     -0.2491
      5  C4        31.2360   26.3370   38.8100 C.1   302  AZA302      0.1531
      6  C5        32.0110   26.5800   37.5860 C.2   302  AZA302      0.2717
      7  C6        31.3770   27.3730   36.5190 C.1   302  AZA302      0.2477
      8  O6        32.0140   27.6260   35.4890 O.2   302  AZA302     -0.2062
      9  N7        33.2080   25.9890   37.6950 N.2   302  AZA302     -0.1149
     10  N8        33.2190   25.3870   38.9400 N.pl3 302  AZA302     -0.0026
     11  N9        32.0350   25.6070   39.6110 N.2   302  AZA302     -0.0705
@<TRIPOS>BOND
     1     8     7    2
     2     7     1    2
     3     7     6    1
     4     1     2    2
     5     6     9    2
     6     6     5    1
     7     9    10    1
     8     2     3    2
     9     2     4    2
    10     5     4    2
    11     5    11    2
    12    10    11    1
