@<TRIPOS>MOLECULE
3plj_AZA_A_1.pdb
 11 12 0 0 0
SMALL
GASTEIGER

@<TRIPOS>ATOM
      1  N1        30.1600   27.8120   36.7700 N.2   302  AZA302     -0.2300
      2  C2        29.4720   27.5190   37.9050 C.1   302  AZA302      0.3745
      3  O2        28.3090   27.9550   38.0000 O.2   302  AZA302     -0.1738
      4  N3        29.9970   26.7920   38.9440 N.2   302  AZA302     -0.2491
      5  C4        31.2470   26.3070   38.8190 C.1   302  AZA302      0.1531
      6  C5        32.0300   26.5710   37.6050 C.2   302  AZA302      0.2717
      7  C6        31.3980   27.3740   36.5420 C.1   302  AZA302      0.2477
      8  O6        32.0460   27.6320   35.5220 O.2   302  AZA302     -0.2062
      9  N7        33.2260   25.9810   37.7180 N.2   302  AZA302     -0.1149
     10  N8        33.2470   25.3590   38.9500 N.pl3 302  AZA302     -0.0026
     11  N9        32.0400   25.5600   39.6020 N.2   302  AZA302     -0.0705
@<TRIPOS>BOND
     1     8     7    2
     2     7     1    2
     3     7     6    1
     4     1     2    2
     5     6     9    2
     6     6     5    1
     7     9    10    1
     8     2     3    2
     9     2     4    2
    10     5     4    2
    11     5    11    2
    12    10    11    1
