@<TRIPOS>MOLECULE
3plk_ANH_A_1.pdb
 30 31 0 0 0
SMALL
GASTEIGER

@<TRIPOS>ATOM
      1  N12       16.1250   20.1280   34.4560 N.am  481  ANH481     -0.1941
      2  C13       16.1850   18.7190   34.8660 C.3   481  ANH481      0.1978
      3  C30       15.5230   17.9660   33.7240 C.3   481  ANH481      0.0595
      4  C14       17.6200   18.3400   35.0770 C.2   481  ANH481      0.3374
      5  O17       18.2760   18.9680   35.8890 O.2   481  ANH481     -0.2482
      6  O15       18.2280   17.2600   34.3350 O.3   481  ANH481     -0.4432
      7  C16       17.9710   15.8970   34.7010 C.3   481  ANH481      0.2557
      8  C21       14.0060   18.0380   33.6440 C.ar  481  ANH481     -0.0196
      9  C22       13.4130   18.7930   32.6270 C.ar  481  ANH481     -0.0042
     10  C23       12.0310   18.8430   32.5320 C.ar  481  ANH481     -0.0001
     11  C24       11.2540   18.1230   33.4360 C.ar  481  ANH481      0.0080
     12  C25       11.8410   17.3560   34.4430 C.ar  481  ANH481      0.0972
     13  C26       13.2240   17.3050   34.5350 C.ar  481  ANH481      0.0038
     14  C27       11.0190   16.5610   35.4050 C.2   481  ANH481      0.4766
     15  N28       11.5860   15.9050   36.3440 N.pl3 481  ANH481      0.2047
     16  N29        9.6910   16.5490   35.3110 N.pl3 481  ANH481      0.2047
     17  C11       15.3140   20.7200   35.1760 C.2   481  ANH481      0.2616
     18  C10       14.9430   22.1570   35.1020 C.3   481  ANH481      0.2017
     19  N9        15.7250   23.0730   34.2970 N.3   481  ANH481     -0.0678
     20  O20       14.7550   20.0740   36.0150 O.2   481  ANH481     -0.2717
     21  C1        11.8590   27.0410   38.0190 C.3   481  ANH481      0.0310
     22  C2        12.9910   26.3540   37.2780 C.ar  481  ANH481     -0.0218
     23  C3        13.6930   25.3020   37.8310 C.ar  481  ANH481     -0.0029
     24  C4        14.7380   24.6800   37.1280 C.ar  481  ANH481      0.0196
     25  C5        15.1130   25.0980   35.8410 C.ar  481  ANH481      0.1235
     26  C6        14.3950   26.1630   35.3140 C.ar  481  ANH481      0.0196
     27  C7        13.3660   26.7710   36.0100 C.ar  481  ANH481     -0.0029
     28  S8        16.2900   24.3880   35.0010 S.O2  481  ANH481      0.0773
     29  O18       17.3500   23.9120   35.8380 O.2   481  ANH481     -0.1516
     30  O19       16.8310   25.2850   34.0060 O.2   481  ANH481     -0.1516
@<TRIPOS>BOND
     1    10     9   ar
     2    10    11   ar
     3     9     8   ar
     4    11    12   ar
     5     8     3    1
     6     8    13   ar
     7     3     2    1
     8    30    28    2
     9    19    28    1
    10    19    18    1
    11     6     7    1
    12     6     4    1
    13    12    13   ar
    14    12    14    1
    15     1     2    1
    16     1    17   am
    17     2     4    1
    18    28    29    2
    19    28    25    1
    20     4     5    2
    21    18    17    1
    22    17    20    2
    23    16    14    2
    24    26    25   ar
    25    26    27   ar
    26    14    15    1
    27    25    24   ar
    28    27    22   ar
    29    24    23   ar
    30    22    23   ar
    31    22    21    1
