@<TRIPOS>MOLECULE
3pll_F06_A_1.pdb
 12 12 0 0 0
SMALL
GASTEIGER

@<TRIPOS>ATOM
      1  C1         1.4090   10.0370    8.8180 C.ar  2001  F062001     0.0545
      2 CL2         3.0880   10.0610    9.2330 Cl    2001  F062001    -0.0825
      3  C3         0.7400   11.2710    8.8000 C.ar  2001  F062001     0.0111
      4  C4        -0.6180   11.2590    8.4720 C.ar  2001  F062001     0.0008
      5  C5        -1.2720   10.0660    8.1640 C.ar  2001  F062001    -0.0002
      6  C6        -0.6150    8.8320    8.1800 C.ar  2001  F062001    -0.0026
      7  C7         0.7550    8.8410    8.5160 C.ar  2001  F062001    -0.0003
      8  C8         1.5200    7.5200    8.5710 C.3   2001  F062001     0.0923
      9  S9         1.4050    7.0520   10.3350 S.3   2001  F062001    -0.0676
     10  C10        1.9770    5.4130   10.3910 C.2   2001  F062001     0.2307
     11  N11        1.8600    4.7630   11.4970 N.pl3 2001  F062001    -0.1181
     12  N12        2.5210    4.8930    9.2690 N.pl3 2001  F062001    -0.1181
@<TRIPOS>BOND
     1     5     6   ar
     2     5     4   ar
     3     6     7   ar
     4     4     3   ar
     5     7     8    1
     6     7     1   ar
     7     8     9    1
     8     3     1   ar
     9     1     2    1
    10    12    10    2
    11     9    10    1
    12    10    11    1
