@<TRIPOS>MOLECULE
3plm_AZA_A_1.pdb
 11 12 0 0 0
SMALL
GASTEIGER

@<TRIPOS>ATOM
      1  N1        30.1780   27.7910   36.7490 N.2   302  AZA302     -0.2300
      2  C2        29.5010   27.5280   37.8940 C.1   302  AZA302      0.3745
      3  O2        28.3510   27.9740   37.9850 O.2   302  AZA302     -0.1738
      4  N3        30.0210   26.8210   38.9580 N.2   302  AZA302     -0.2491
      5  C4        31.2650   26.3150   38.8300 C.1   302  AZA302      0.1531
      6  C5        32.0400   26.5660   37.6060 C.2   302  AZA302      0.2717
      7  C6        31.4060   27.3450   36.5220 C.1   302  AZA302      0.2477
      8  O6        32.0460   27.5970   35.4860 O.2   302  AZA302     -0.2062
      9  N7        33.2350   25.9720   37.7090 N.2   302  AZA302     -0.1149
     10  N8        33.2740   25.3750   38.9450 N.pl3 302  AZA302     -0.0026
     11  N9        32.0810   25.5890   39.6220 N.2   302  AZA302     -0.0705
@<TRIPOS>BOND
     1     8     7    2
     2     7     1    2
     3     7     6    1
     4     1     2    2
     5     6     9    2
     6     6     5    1
     7     9    10    1
     8     2     3    2
     9     2     4    2
    10     5     4    2
    11     5    11    2
    12    10    11    1
