@<TRIPOS>MOLECULE
3pln_U5P_A_1.pdb
 21 22 0 0 0
SMALL
GASTEIGER

@<TRIPOS>ATOM
      1  N1        27.0040   19.3010   44.0540 N.am  901  U5P901     -0.1766
      2  C2        26.2430   19.6430   42.9310 C.1   901  U5P901      0.2845
      3  N3        26.1860   18.7590   41.8510 N.2   901  U5P901     -0.2452
      4  C4        26.8860   17.5500   41.8950 C.1   901  U5P901      0.2182
      5  C5        27.6550   17.2210   43.0060 C.2   901  U5P901      0.1242
      6  C6        27.7160   18.0980   44.0830 C.2   901  U5P901      0.0929
      7  O2        25.6590   20.7230   42.8930 O.2   901  U5P901     -0.1918
      8  O4        26.8050   16.7700   40.9480 O.2   901  U5P901     -0.2085
      9  C1'       27.0100   20.1900   45.2360 C.3   901  U5P901      0.2401
     10  C2'       26.3280   19.4870   46.4070 C.3   901  U5P901      0.2319
     11  O2'       24.9150   19.7050   46.3190 O.3   901  U5P901     -0.2157
     12  C3'       26.9800   20.2110   47.5820 C.3   901  U5P901      0.2158
     13  C4'       28.4210   20.3940   47.1030 C.3   901  U5P901      0.1801
     14  O3'       26.3830   21.4960   47.7890 O.3   901  U5P901     -0.2175
     15  O4'       28.3720   20.3640   45.6610 O.3   901  U5P901     -0.3320
     16  C5'       29.3340   19.2720   47.6070 C.3   901  U5P901      0.1859
     17  O5'       28.7210   18.0070   47.3320 O.3   901  U5P901     -0.2675
     18  P         29.2080   16.6690   48.0830 P.3   901  U5P901      0.5327
     19  O1P       29.0670   17.0200   49.6480 O.3   901  U5P901     -0.1145
     20  O2P       30.6340   16.4630   47.7450 O.3   901  U5P901     -0.1145
     21  O3P       28.2200   15.6380   47.6950 O.2   901  U5P901     -0.2224
@<TRIPOS>BOND
     1     8     4    2
     2     3     4    2
     3     3     2    2
     4     4     5    1
     5     7     2    2
     6     2     1   am
     7     5     6    2
     8     1     6    1
     9     1     9    1
    10     9    15    1
    11     9    10    1
    12    15    13    1
    13    11    10    1
    14    10    12    1
    15    13    12    1
    16    13    16    1
    17    17    16    1
    18    17    18    1
    19    12    14    1
    20    21    18    2
    21    20    18    1
    22    18    19    1
