@<TRIPOS>MOLECULE
3plp_BBA_A_1.pdb
 28 30 0 0 0
SMALL
GASTEIGER

@<TRIPOS>ATOM
      1  C8        14.0940   20.4480   32.0880 C.3   481  BBA481      0.0337
      2  C9        13.2910   19.4870   32.9530 C.ar  481  BBA481     -0.0218
      3  C14       13.8020   19.0480   34.1770 C.ar  481  BBA481     -0.0040
      4  C13       13.0890   18.1320   34.9470 C.ar  481  BBA481      0.0077
      5  C10       12.0670   18.9650   32.5020 C.ar  481  BBA481     -0.0040
      6  C11       11.3470   18.0570   33.2760 C.ar  481  BBA481      0.0077
      7  C12       11.8650   17.6290   34.5130 C.ar  481  BBA481      0.0975
      8  C15       11.1050   16.6460   35.3640 C.2   481  BBA481      0.4766
      9  N16        9.7920   16.5030   35.1420 N.pl3 481  BBA481      0.2047
     10  N17       11.6860   15.9610   36.2830 N.pl3 481  BBA481      0.2047
     11  C18       16.5020   23.6580   34.9380 C.3   481  BBA481      0.0337
     12  C19       15.4510   24.4300   35.7310 C.ar  481  BBA481     -0.0218
     13  C20       15.3090   24.3680   37.1330 C.ar  481  BBA481     -0.0040
     14  C21       14.3450   25.1510   37.8100 C.ar  481  BBA481      0.0077
     15  C24       14.6330   25.2980   35.0290 C.ar  481  BBA481     -0.0040
     16  C23       13.6830   26.0700   35.6890 C.ar  481  BBA481      0.0077
     17  C22       13.5290   26.0240   37.0680 C.ar  481  BBA481      0.0975
     18  C25       12.4770   26.9130   37.6700 C.2   481  BBA481      0.4766
     19  N26       11.4010   27.2450   36.9580 N.pl3 481  BBA481      0.2047
     20  N27       12.6140   27.3960   38.8190 N.pl3 481  BBA481      0.2047
     21  C1        14.2840   21.8980   32.5320 C.3   481  BBA481      0.0620
     22  C2        15.0340   22.7000   31.4510 C.3   481  BBA481      0.0077
     23  C3        16.4160   22.1790   31.0540 C.3   481  BBA481      0.0005
     24  C         17.4450   22.6140   32.0920 C.3   481  BBA481      0.0005
     25  C4        17.3170   21.7920   33.3690 C.3   481  BBA481      0.0077
     26  C5        16.2510   22.2510   34.3820 C.3   481  BBA481      0.0620
     27  C6        14.8310   22.0400   33.9440 C.2   481  BBA481      0.1505
     28  O7        14.0300   21.9700   34.8450 O.2   481  BBA481     -0.2961
@<TRIPOS>BOND
     1    23    22    1
     2    23    24    1
     3    22    21    1
     4     1    21    1
     5     1     2    1
     6    24    25    1
     7     5     2   ar
     8     5     6   ar
     9    21    27    1
    10     2     3   ar
    11     6     7   ar
    12    25    26    1
    13    27    26    1
    14    27    28    2
    15     3     4   ar
    16    26    11    1
    17     7     4   ar
    18     7     8    1
    19    11    12    1
    20    15    16   ar
    21    15    12   ar
    22     9     8    2
    23     8    10    1
    24    16    17   ar
    25    12    13   ar
    26    19    18    2
    27    17    18    1
    28    17    14   ar
    29    13    14   ar
    30    18    20    1
