@<TRIPOS>MOLECULE
3plr_U5P_A_1.pdb
 21 22 0 0 0
SMALL
GASTEIGER

@<TRIPOS>ATOM
      1  N1        27.6970   19.3100   43.8530 N.am  901  U5P901     -0.1766
      2  C2        26.9140   19.7040   42.7600 C.1   901  U5P901      0.2845
      3  N3        26.7900   18.8280   41.6730 N.2   901  U5P901     -0.2452
      4  C4        27.4430   17.5850   41.6970 C.1   901  U5P901      0.2182
      5  C5        28.2140   17.2070   42.7900 C.2   901  U5P901      0.1242
      6  C6        28.3460   18.0690   43.8720 C.2   901  U5P901      0.0929
      7  O2        26.3400   20.7950   42.7940 O.2   901  U5P901     -0.1918
      8  O4        27.3270   16.8000   40.7570 O.2   901  U5P901     -0.2085
      9  C1'       27.7920   20.2030   45.0270 C.3   901  U5P901      0.2401
     10  C2'       27.0950   19.5270   46.2050 C.3   901  U5P901      0.2319
     11  O2'       25.6940   19.7800   46.0990 O.3   901  U5P901     -0.2157
     12  C3'       27.7440   20.2820   47.3650 C.3   901  U5P901      0.2158
     13  C4'       29.1830   20.4630   46.8790 C.3   901  U5P901      0.1801
     14  O3'       27.1190   21.5550   47.5400 O.3   901  U5P901     -0.2175
     15  O4'       29.1590   20.3650   45.4410 O.3   901  U5P901     -0.3320
     16  C5'       30.0260   19.3080   47.4240 C.3   901  U5P901      0.1859
     17  O5'       29.3550   18.0680   47.1770 O.3   901  U5P901     -0.2675
     18  P         29.8560   16.6960   47.8580 P.3   901  U5P901      0.5327
     19  O1P       29.9140   17.1090   49.4180 O.3   901  U5P901     -0.1145
     20  O2P       31.2220   16.4010   47.3690 O.2   901  U5P901     -0.2224
     21  O3P       28.7990   15.6850   47.6320 O.3   901  U5P901     -0.1145
@<TRIPOS>BOND
     1     8     4    2
     2     3     4    2
     3     3     2    2
     4     4     5    1
     5     2     7    2
     6     2     1   am
     7     5     6    2
     8     1     6    1
     9     1     9    1
    10     9    15    1
    11     9    10    1
    12    15    13    1
    13    11    10    1
    14    10    12    1
    15    13    12    1
    16    13    16    1
    17    17    16    1
    18    17    18    1
    19    12    14    1
    20    20    18    2
    21    21    18    1
    22    18    19    1
