@<TRIPOS>MOLECULE
3plr_NAI_A_1.pdb
 44 48 0 0 0
SMALL
GASTEIGER

@<TRIPOS>ATOM
      1  PA        34.7890   17.2340   66.2990 P.3   900  NAI900      0.2189
      2  O1A       34.2980   18.5530   66.7060 O.3   900  NAI900     -0.4371
      3  O2A       33.6790   16.2110   65.7330 O.2   900  NAI900     -0.5170
      4  O5B       35.5580   16.4930   67.5330 O.3   900  NAI900     -0.3112
      5  C5B       36.5720   17.3320   68.0590 C.3   900  NAI900      0.1813
      6  C4B       36.8670   16.8120   69.4860 C.3   900  NAI900      0.1821
      7  O4B       38.0000   17.5000   70.0130 O.3   900  NAI900     -0.3135
      8  C3B       35.6820   17.0920   70.4390 C.3   900  NAI900      0.2184
      9  O3B       35.2400   15.8830   71.0810 O.3   900  NAI900     -0.2174
     10  C2B       36.2560   18.1410   71.4090 C.3   900  NAI900      0.2570
     11  O2B       35.6640   18.1050   72.7220 O.3   900  NAI900     -0.2130
     12  C1B       37.7130   17.7510   71.4160 C.3   900  NAI900      0.3186
     13  N9A       38.6500   18.7620   71.8160 N.pl3 900  NAI900     -0.1439
     14  C8A       38.5890   20.1240   71.6870 C.3   900  NAI900      0.3377
     15  N7A       39.6870   20.6500   72.1420 N.2   900  NAI900     -0.2095
     16  C5A       40.4940   19.6460   72.5820 C.2   900  NAI900      0.2526
     17  C6A       41.7870   19.5640   73.1620 C.2   900  NAI900      0.4393
     18  N6A       42.5350   20.6990   73.4000 N.pl3 900  NAI900      0.2180
     19  N1A       42.2880   18.3450   73.4840 N.2   900  NAI900      0.0021
     20  C2A       41.5950   17.1910   73.2720 C.3   900  NAI900      0.5254
     21  N3A       40.3760   17.2320   72.7240 N.2   900  NAI900     -0.0055
     22  C4A       39.8160   18.4370   72.3780 C.2   900  NAI900      0.3518
     23  O3        35.9140   17.6200   65.2120 O.3   900  NAI900     -0.2703
     24  PN        36.1340   16.7690   63.8650 P.3   900  NAI900      0.2189
     25  O1N       34.8980   16.7600   62.9160 O.2   900  NAI900     -0.5170
     26  O2N       36.5800   15.3830   64.1470 O.3   900  NAI900     -0.4371
     27  O5D       37.2670   17.6450   63.1030 O.3   900  NAI900     -0.3112
     28  C5D       38.4870   17.6770   63.8410 C.3   900  NAI900      0.1813
     29  C4D       39.5620   18.2560   62.8640 C.3   900  NAI900      0.1799
     30  O4D       39.6000   17.4050   61.6470 O.3   900  NAI900     -0.3327
     31  C3D       39.2190   19.6740   62.3270 C.3   900  NAI900      0.2158
     32  O3D       40.4530   20.3810   62.0450 O.3   900  NAI900     -0.2175
     33  C2D       38.4570   19.3610   61.0230 C.3   900  NAI900      0.2309
     34  O2D       38.4850   20.4590   60.1420 O.3   900  NAI900     -0.2158
     35  C1D       39.2870   18.2050   60.4800 C.3   900  NAI900      0.2263
     36  N1N       38.5580   17.3790   59.4770 N.pl3 900  NAI900     -0.2787
     37  C2N       37.1880   17.1950   59.5840 C.3   900  NAI900      0.1244
     38  C3N       36.5170   16.4500   58.6860 C.2   900  NAI900      0.0544
     39  C7N       35.1000   16.2840   58.8260 C.2   900  NAI900      0.2818
     40  O7N       34.4540   16.0570   57.8430 O.2   900  NAI900     -0.2670
     41  N7N       34.4750   16.3450   60.0350 N.am  900  NAI900     -0.0839
     42  C4N       37.2270   15.7750   57.5160 C.2   900  NAI900      0.0033
     43  C5N       38.7340   16.0310   57.5110 C.2   900  NAI900      0.0157
     44  C6N       39.3110   16.7750   58.4340 C.2   900  NAI900      0.0633
@<TRIPOS>BOND
     1    43    42    1
     2    43    44    2
     3    42    38    2
     4    40    39    2
     5    44    36    1
     6    38    39    1
     7    38    37    1
     8    39    41   am
     9    36    37    1
    10    36    35    1
    11    34    33    1
    12    35    33    1
    13    35    30    1
    14    33    31    1
    15    30    29    1
    16    32    31    1
    17    31    29    1
    18    29    28    1
    19    25    24    2
    20    27    28    1
    21    27    24    1
    22    24    26    1
    23    24    23    1
    24    23     1    1
    25     3     1    2
    26     1     2    1
    27     1     4    1
    28     4     5    1
    29     5     6    1
    30     6     7    1
    31     6     8    1
    32     7    12    1
    33     8     9    1
    34     8    10    1
    35    10    12    1
    36    10    11    1
    37    12    13    1
    38    14    13    1
    39    14    15    1
    40    13    22    1
    41    15    16    2
    42    22    16    1
    43    22    21    2
    44    16    17    1
    45    21    20    1
    46    17    18    1
    47    17    19    2
    48    20    19    1
