@<TRIPOS>MOLECULE
3pls_ANP_A_1.pdb
 31 33 0 0 0
SMALL
GASTEIGER

@<TRIPOS>ATOM
      1  PG        25.9660   25.9240    9.3690 P.3   1358  ANP1358     0.4884
      2  O1G       26.0040   25.3730   10.7850 O.3   1358  ANP1358    -0.1240
      3  O2G       24.6310   26.5400    8.9590 O.2   1358  ANP1358    -0.2331
      4  O3G       27.1450   26.8420    9.0820 O.3   1358  ANP1358    -0.1240
      5  PB        26.3440   22.9120    8.9560 P.3   1358  ANP1358     0.4669
      6  O1B       26.1190   21.9020    7.8740 O.2   1358  ANP1358    -0.2351
      7  O2B       25.4590   22.6880   10.1500 O.3   1358  ANP1358    -0.1253
      8  N3B       26.2060   24.5270    8.3160 N.3   1358  ANP1358    -0.0163
      9  PA        28.9210   21.6400    9.0300 P.3   1358  ANP1358     0.2220
     10  O1A       28.3690   20.8610    7.8730 O.2   1358  ANP1358    -0.5170
     11  O2A       29.3570   20.9140   10.2800 O.3   1358  ANP1358    -0.4370
     12  O3A       27.8520   22.7530    9.4960 O.3   1358  ANP1358    -0.2360
     13  O5'       30.1380   22.5620    8.5660 O.3   1358  ANP1358    -0.3111
     14  C5'       30.7540   23.3760    9.5630 C.3   1358  ANP1358     0.1813
     15  C4'       31.2780   24.6590    8.9430 C.3   1358  ANP1358     0.1821
     16  O4'       32.3030   24.3320    8.0200 O.3   1358  ANP1358    -0.3135
     17  C3'       30.2200   25.4240    8.1830 C.3   1358  ANP1358     0.2184
     18  O3'       30.3340   26.8060    8.5340 O.3   1358  ANP1358    -0.2174
     19  C2'       30.5490   25.1960    6.7240 C.3   1358  ANP1358     0.2570
     20  O2'       30.1430   26.2960    5.8910 O.3   1358  ANP1358    -0.2130
     21  C1'       32.0610   24.9880    6.7810 C.3   1358  ANP1358     0.3186
     22  N9        32.6220   24.1600    5.6780 N.pl3 1358  ANP1358    -0.1439
     23  C8        32.3440   22.8640    5.4150 C.3   1358  ANP1358     0.3377
     24  N7        33.0580   22.4350    4.3370 N.2   1358  ANP1358    -0.2095
     25  C5        33.8110   23.4680    3.9110 C.2   1358  ANP1358     0.2526
     26  C6        34.7900   23.7140    2.8320 C.2   1358  ANP1358     0.4393
     27  N6        35.1150   22.7370    1.9710 N.pl3 1358  ANP1358     0.2180
     28  N1        35.3560   24.9390    2.7380 N.2   1358  ANP1358     0.0021
     29  C2        35.0440   25.9280    3.5940 C.3   1358  ANP1358     0.5254
     30  N3        34.1550   25.7750    4.5910 N.2   1358  ANP1358    -0.0055
     31  C4        33.5230   24.5980    4.7990 C.2   1358  ANP1358     0.3518
@<TRIPOS>BOND
     1    27    26    1
     2    28    26    2
     3    28    29    1
     4    26    25    1
     5    29    30    1
     6    25    24    2
     7    25    31    1
     8    24    23    1
     9    30    31    2
    10    31    22    1
    11    23    22    1
    12    22    21    1
    13    20    19    1
    14    19    21    1
    15    19    17    1
    16    21    16    1
    17    10     9    2
    18     6     5    2
    19    16    15    1
    20    17    18    1
    21    17    15    1
    22     8     5    1
    23     8     1    1
    24    13     9    1
    25    13    14    1
    26    15    14    1
    27     5    12    1
    28     5     7    1
    29     3     1    2
    30     9    12    1
    31     9    11    1
    32     4     1    1
    33     1     2    1
