@<TRIPOS>MOLECULE
3plz_470_A_1.pdb
 29 32 0 0 0
SMALL
GASTEIGER

@<TRIPOS>ATOM
      1  C1        -9.8760   -7.2920  -25.1270 C.3     1  4701        0.0004
      2  N1        -0.9950   -5.1320  -23.5710 N.pl3   1  4701       -0.2369
      3  C2        -8.4670   -7.2780  -24.5900 C.3     1  4701        0.0047
      4  C3        -8.1990   -5.9380  -23.9390 C.3     1  4701        0.0257
      5  C4        -6.7730   -5.8940  -23.5050 C.2     1  4701       -0.0307
      6  C5        -5.7710   -5.1820  -24.0410 C.2     1  4701       -0.0306
      7  C6        -5.9310   -4.2760  -25.2170 C.3     1  4701        0.0257
      8  C7        -5.7020   -2.8290  -24.8450 C.3     1  4701        0.0047
      9  C8        -5.1480   -2.1030  -26.0460 C.3     1  4701        0.0004
     10  C9        -4.4610   -5.3110  -23.4500 C.2     1  4701       -0.0288
     11  C10       -3.3380   -5.7580  -24.0170 C.2     1  4701       -0.0088
     12  C11       -3.1950   -6.2290  -25.3950 C.ar    1  4701       -0.0027
     13  C12       -2.4990   -5.4840  -26.3240 C.ar    1  4701       -0.0003
     14  C13       -2.3650   -5.9400  -27.6170 C.ar    1  4701       -0.0000
     15  C14       -2.9260   -7.1430  -27.9840 C.ar    1  4701       -0.0000
     16  C15       -3.6250   -7.8940  -27.0620 C.ar    1  4701       -0.0000
     17  C16       -3.7570   -7.4340  -25.7680 C.ar    1  4701       -0.0003
     18  C17       -2.2040   -5.7830  -23.0640 C.3     1  4701        0.0944
     19  C18       -1.8100   -7.2210  -22.7790 C.3     1  4701        0.0241
     20  C19       -2.4400   -7.6010  -21.4590 C.3     1  4701        0.0021
     21  C20       -2.6670   -6.3010  -20.7260 C.3     1  4701        0.0024
     22  C21       -2.7790   -5.2210  -21.7770 C.3     1  4701        0.0265
     23  C22       -4.2550   -4.9370  -22.0230 C.3     1  4701        0.0277
     24  C23       -0.9410   -3.7310  -23.7670 C.ar    1  4701        0.0655
     25  C24       -2.0110   -2.8620  -23.6720 C.ar    1  4701        0.0161
     26  C25       -1.8440   -1.5070  -23.8880 C.ar    1  4701        0.0013
     27  C26       -0.6020   -1.0020  -24.2020 C.ar    1  4701        0.0001
     28  C27        0.4690   -1.8580  -24.3050 C.ar    1  4701        0.0013
     29  C28        0.2960   -3.2090  -24.0900 C.ar    1  4701        0.0161
@<TRIPOS>BOND
     1    15    14   ar
     2    15    16   ar
     3    14    13   ar
     4    16    17   ar
     5    13    12   ar
     6     9     8    1
     7    17    12   ar
     8    12    11    1
     9     7     8    1
    10     7     6    1
    11     1     3    1
    12     3     4    1
    13    28    27   ar
    14    28    29   ar
    15    27    26   ar
    16    29    24   ar
    17     6     5    2
    18     6    10    1
    19    11    10    2
    20    11    18    1
    21     4     5    1
    22    26    25   ar
    23    24    25   ar
    24    24     2    1
    25     2    18    1
    26    10    23    1
    27    18    19    1
    28    18    22    1
    29    19    20    1
    30    23    22    1
    31    22    21    1
    32    20    21    1
