@<TRIPOS>MOLECULE
3pm0_HEM_A_1.pdb
 43 50 0 0 0
SMALL
GASTEIGER

@<TRIPOS>ATOM
      1  CHA      -19.6990   13.4740  -19.0120 C.2   900  HEM900      0.0000
      2  CHB      -22.5090   13.7820  -15.2940 C.2   900  HEM900      0.0000
      3  CHC      -18.9850   15.5530  -12.7960 C.2   900  HEM900      0.0000
      4  CHD      -16.0810   14.9860  -16.4810 C.2   900  HEM900      0.0000
      5  C1A      -20.8350   13.2520  -18.2590 C.2   900  HEM900      0.0000
      6  C2A      -22.1550   12.9960  -18.7240 C.2   900  HEM900      0.0000
      7  C3A      -22.9710   13.2050  -17.6320 C.2   900  HEM900      0.0000
      8  C4A      -22.1240   13.5700  -16.5790 C.2   900  HEM900      0.0000
      9  CMA      -24.5340   13.0700  -17.5520 C.3   900  HEM900      0.0000
     10  CAA      -22.5990   12.5770  -20.1400 C.3   900  HEM900      0.0000
     11  CBA      -22.6840   11.1140  -20.4290 C.3   900  HEM900      0.0000
     12  CGA      -23.1950   10.7820  -21.8340 C.2   900  HEM900      0.0000
     13  O1A      -23.6210    9.6410  -22.0660 O.co2 900  HEM900      0.0000
     14  O2A      -23.2290   11.6340  -22.7330 O.co2 900  HEM900      0.0000
     15  C1B      -21.9010   14.4620  -14.2840 C.ar  900  HEM900      0.0000
     16  C2B      -22.4980   14.8450  -13.0480 C.ar  900  HEM900      0.0000
     17  C3B      -21.4530   15.4510  -12.3310 C.ar  900  HEM900      0.0000
     18  C4B      -20.3100   15.3740  -13.2000 C.ar  900  HEM900      0.0000
     19  CMB      -23.9490   14.6180  -12.6590 C.3   900  HEM900      0.0000
     20  CAB      -21.4730   16.0270  -11.0380 C.3   900  HEM900      0.0000
     21  CBB      -22.2850   15.7080   -9.8470 C.3   900  HEM900      0.0000
     22  C1C      -17.7770   15.3790  -13.4610 C.2   900  HEM900      0.0000
     23  C2C      -16.5190   15.7280  -12.9580 C.2   900  HEM900      0.0000
     24  C3C      -15.6400   15.6700  -14.0520 C.2   900  HEM900      0.0000
     25  C4C      -16.4550   15.2790  -15.1670 C.2   900  HEM900      0.0000
     26  CMC      -16.1650   16.1020  -11.4890 C.3   900  HEM900      0.0000
     27  CAC      -14.3100   15.9110  -14.1450 C.3   900  HEM900      0.0000
     28  CBC      -13.2290   15.0440  -13.9070 C.3   900  HEM900      0.0000
     29  C1D      -16.7150   14.2120  -17.4190 C.ar  900  HEM900      0.0000
     30  C2D      -16.2360   13.9970  -18.7270 C.ar  900  HEM900      0.0000
     31  C3D      -17.3010   13.5660  -19.4720 C.ar  900  HEM900      0.0000
     32  C4D      -18.3740   13.5400  -18.5920 C.ar  900  HEM900      0.0000
     33  CMD      -14.7960   14.2100  -19.2370 C.3   900  HEM900      0.0000
     34  CAD      -17.3960   13.1740  -20.9510 C.3   900  HEM900      0.0000
     35  CBD      -17.1410   11.6630  -21.1330 C.3   900  HEM900      0.0000
     36  CGD      -17.2640   11.1250  -22.5460 C.2   900  HEM900      0.0000
     37  O1D      -17.6960   11.8120  -23.4310 O.co2 900  HEM900      0.0000
     38  O2D      -16.9500    9.9610  -22.7700 O.co2 900  HEM900      0.0000
     39  NA       -20.8690   13.5990  -16.9440 N.2   900  HEM900      0.0000
     40  NB       -20.6210   14.7880  -14.3390 N.ar  900  HEM900      0.0000
     41  NC       -17.7290   15.1130  -14.7640 N.2   900  HEM900      0.0000
     42  ND       -17.9890   13.9230  -17.3850 N.ar  900  HEM900      0.0000
     43 FE        -19.2720   14.2860  -15.8370 Fe    900  HEM900      0.0000
@<TRIPOS>BOND
     1    37    36   ar
     2    38    36   ar
     3    14    12   ar
     4    36    35    1
     5    13    12   ar
     6    12    11    1
     7    35    34    1
     8    34    31    1
     9    11    10    1
    10    10     6    1
    11    31    30   ar
    12    31    32   ar
    13    33    30    1
    14     1    32    2
    15     1     5    1
    16    30    29   ar
    17     6     5    1
    18     6     7    2
    19    32    42   ar
    20     5    39    2
    21     7     9    1
    22     7     8    1
    23    29    42   ar
    24    29     4    2
    25    42    43    1
    26    39     8    1
    27    39    43    1
    28     8     2    2
    29     4    25    1
    30    43    41    1
    31    43    40    1
    32     2    15    1
    33    25    41    2
    34    25    24    1
    35    41    22    1
    36    40    15   ar
    37    40    18   ar
    38    15    16   ar
    39    27    24    1
    40    27    28    1
    41    24    23    2
    42    22    23    1
    43    22     3    2
    44    18     3    1
    45    18    17   ar
    46    16    19    1
    47    16    17   ar
    48    23    26    1
    49    17    20    1
    50    20    21    1
