@<TRIPOS>MOLECULE
3pm0_BHF_A_1.pdb
 21 24 0 0 0
SMALL
GASTEIGER

@<TRIPOS>ATOM
      1  C8       -17.5010   19.5090  -20.5740 C.ar  800  BHF800      0.0796
      2  C9       -16.5560   20.4060  -21.0680 C.ar  800  BHF800      0.2016
      3  O2       -15.6020   19.9900  -21.7270 O.2   800  BHF800     -0.2864
      4  C10      -16.7040   21.7720  -20.8460 C.ar  800  BHF800      0.0735
      5  C11      -15.7460   22.6830  -21.2860 C.ar  800  BHF800      0.0062
      6  C12      -15.8940   24.0350  -20.9890 C.ar  800  BHF800      0.0003
      7  C13      -16.9940   24.4760  -20.2580 C.ar  800  BHF800      0.0029
      8  C14      -17.1580   25.8320  -19.9880 C.ar  800  BHF800      0.0001
      9  C15      -18.2760   26.2690  -19.2840 C.ar  800  BHF800      0.0000
     10  C16      -19.2340   25.3590  -18.8480 C.ar  800  BHF800      0.0001
     11  C17      -19.0720   24.0020  -19.1150 C.ar  800  BHF800      0.0030
     12  C18      -17.9530   23.5650  -19.8190 C.ar  800  BHF800      0.0347
     13  C19      -17.8030   22.2160  -20.1170 C.ar  800  BHF800      0.1482
     14  O1       -18.8000   21.3400  -19.8140 O.2   800  BHF800     -0.4533
     15  C7       -18.6030   19.9930  -19.8770 C.ar  800  BHF800      0.1484
     16  C1       -19.5760   19.1590  -19.3330 C.ar  800  BHF800      0.0347
     17  C2       -19.5400   17.7800  -19.5210 C.ar  800  BHF800      0.0030
     18  C3       -20.5180   16.9720  -18.9510 C.ar  800  BHF800      0.0001
     19  C4       -21.5360   17.5380  -18.1880 C.ar  800  BHF800      0.0000
     20  C5       -21.5740   18.9170  -18.0020 C.ar  800  BHF800      0.0001
     21  C6       -20.5960   19.7250  -18.5750 C.ar  800  BHF800      0.0030
@<TRIPOS>BOND
     1     3     2    2
     2     5     6   ar
     3     5     4   ar
     4     2     4   ar
     5     2     1   ar
     6     6     7   ar
     7     4    13   ar
     8     1    15   ar
     9     7     8   ar
    10     7    12   ar
    11    13    12   ar
    12    13    14   ar
    13     8     9   ar
    14    15    14   ar
    15    15    16    1
    16    12    11   ar
    17    17    16   ar
    18    17    18   ar
    19    16    21   ar
    20     9    10   ar
    21    11    10   ar
    22    18    19   ar
    23    21    20   ar
    24    19    20   ar
