@<TRIPOS>MOLECULE
3pm3_TFN_A_1.pdb
 35 36 0 0 0
SMALL
GASTEIGER

@<TRIPOS>ATOM
      1  C7        16.7620   19.5840   36.5140 C.3   481  TFN481      0.1969
      2  S8        17.5290   20.4420   37.9140 S.O2  481  TFN481      0.0621
      3  C5        17.6840   18.3840   36.2320 C.ar  481  TFN481      0.0030
      4  C4        17.2870   17.0930   36.5650 C.ar  481  TFN481     -0.0025
      5  C3        18.1340   16.0010   36.3120 C.ar  481  TFN481     -0.0003
      6  C2        19.3910   16.2070   35.7360 C.ar  481  TFN481     -0.0000
      7  C1        19.7950   17.5030   35.4070 C.ar  481  TFN481     -0.0003
      8  C6        18.9500   18.5890   35.6570 C.ar  481  TFN481     -0.0025
      9  O35       18.5440   21.4300   37.5510 O.2   481  TFN481     -0.1558
     10  O34       17.3110   19.8700   39.2290 O.2   481  TFN481     -0.1558
     11  N9        16.3380   21.5940   38.1940 N.3   481  TFN481     -0.0712
     12  C10       16.2240   22.7840   37.3130 C.3   481  TFN481      0.2041
     13  C11       15.5360   23.8980   38.1040 C.3   481  TFN481      0.1705
     14  O12       15.5920   25.0540   37.2400 O.3   481  TFN481     -0.3565
     15  C13       14.6440   26.1240   37.4400 C.3   481  TFN481      0.0931
     16  C15       14.3100   26.3690   38.9150 C.3   481  TFN481      0.0296
     17  C16       13.3400   25.8420   36.6820 C.3   481  TFN481      0.0296
     18  C14       15.3200   27.3210   36.7750 C.3   481  TFN481      0.0296
     19  C17       15.3870   22.4820   36.0550 C.2   481  TFN481      0.2621
     20  O18       14.4800   21.6660   36.1160 O.2   481  TFN481     -0.2717
     21  N19       15.7930   23.0630   34.9330 N.am  481  TFN481     -0.1942
     22  C20       15.1060   22.8540   33.6320 C.3   481  TFN481      0.2014
     23  C21       15.2280   21.3710   33.2470 C.2   481  TFN481      0.2638
     24  O22       16.2800   20.7570   33.4430 O.2   481  TFN481     -0.2714
     25  N23       14.1260   20.8150   32.7400 N.am  481  TFN481     -0.1991
     26  C24       14.1120   19.3920   32.3710 C.3   481  TFN481      0.1415
     27  C25       13.4490   18.5530   33.4710 C.ar  481  TFN481     -0.0006
     28  C30       13.8640   18.5870   34.8060 C.ar  481  TFN481     -0.0023
     29  C29       13.2270   17.7930   35.7680 C.ar  481  TFN481      0.0077
     30  C28       12.1760   16.9470   35.3990 C.ar  481  TFN481      0.0975
     31  C31       11.4910   16.1480   36.3110 C.2   481  TFN481      0.4766
     32  N32       10.2010   15.9240   36.1320 N.pl3 481  TFN481      0.2047
     33  N33       12.0800   15.6550   37.3960 N.pl3 481  TFN481      0.2047
     34  C27       11.7700   16.9210   34.0610 C.ar  481  TFN481      0.0077
     35  C26       12.4060   17.7150   33.1110 C.ar  481  TFN481     -0.0023
@<TRIPOS>BOND
     1    26    25    1
     2    26    27    1
     3    25    23   am
     4    35    27   ar
     5    35    34   ar
     6    23    24    2
     7    23    22    1
     8    27    28   ar
     9    22    21    1
    10    34    30   ar
    11    28    29   ar
    12    21    19   am
    13    30    29   ar
    14    30    31    1
    15     7     8   ar
    16     7     6   ar
    17     8     3   ar
    18     6     5   ar
    19    19    20    2
    20    19    12    1
    21    32    31    2
    22     3     1    1
    23     3     4   ar
    24    31    33    1
    25     5     4   ar
    26     1     2    1
    27    17    15    1
    28    18    15    1
    29    14    15    1
    30    14    13    1
    31    12    13    1
    32    12    11    1
    33    15    16    1
    34     9     2    2
    35     2    11    1
    36     2    10    2
