@<TRIPOS>MOLECULE
3pm4_F5N_A_1.pdb
 19 21 0 0 0
SMALL
GASTEIGER

@<TRIPOS>ATOM
      1  O1         0.6100    6.4990   10.2100 O.2   2001  F5N2001    -0.2725
      2  C2         1.4660    6.0960    9.4310 C.2   2001  F5N2001     0.2524
      3  C3         1.8870    4.6430    9.3990 C.3   2001  F5N2001     0.1432
      4  C4         0.6920    3.7420    9.6310 C.2   2001  F5N2001     0.1179
      5  C5        -0.5930    3.9810    9.2920 C.3   2001  F5N2001     0.1527
      6  N6        -1.3180    2.8890    9.6920 N.pl3 2001  F5N2001    -0.2549
      7  C7        -2.6480    2.5800    9.6060 C.2   2001  F5N2001     0.0676
      8  C8        -3.1000    1.4080   10.1010 C.2   2001  F5N2001     0.0163
      9  C9        -2.2420    0.4720   10.6940 C.2   2001  F5N2001     0.0053
     10  C10       -0.9160    0.7700   10.7650 C.2   2001  F5N2001     0.0480
     11  C11       -0.4570    2.0110   10.2860 C.2   2001  F5N2001     0.1866
     12  N12        0.7560    2.5470   10.2290 N.2   2001  F5N2001    -0.3931
     13  N13        2.0670    6.9420    8.5710 N.am  2001  F5N2001    -0.1789
     14  C14        1.8710    8.3260    8.6080 C.ar  2001  F5N2001     0.0734
     15  C15        2.9500    9.1690    8.8890 C.ar  2001  F5N2001     0.0166
     16  C16        2.7770   10.5360    8.9340 C.ar  2001  F5N2001     0.0013
     17  C17        1.5290   11.0810    8.6910 C.ar  2001  F5N2001     0.0001
     18  C18        0.4520   10.2430    8.4340 C.ar  2001  F5N2001     0.0013
     19  C19        0.6140    8.8650    8.3740 C.ar  2001  F5N2001     0.0166
@<TRIPOS>BOND
     1    19    18   ar
     2    19    14   ar
     3    18    17   ar
     4    13    14    1
     5    13     2   am
     6    14    15   ar
     7    17    16   ar
     8    15    16   ar
     9     5     4    1
    10     5     6    1
    11     3     2    1
    12     3     4    1
    13     2     1    2
    14     7     6    1
    15     7     8    2
    16     4    12    2
    17     6    11    1
    18     8     9    1
    19    12    11    2
    20    11    10    1
    21     9    10    2
