@<TRIPOS>MOLECULE
3pmd_11A_A_1.pdb
 13 12 0 0 0
SMALL
GASTEIGER

@<TRIPOS>ATOM
      1  CAA       -7.8990   38.1660   18.6480 C.3   151  11A151      0.0000
      2  CAD       -7.2650   36.9610   18.0170 C.3   151  11A151      0.0000
      3  CAE       -7.6420   36.8670   16.5450 C.3   151  11A151      0.0000
      4  CAF       -8.0150   35.4360   16.1960 C.3   151  11A151      0.0000
      5  CAG       -6.8310   34.4970   16.3850 C.3   151  11A151      0.0000
      6  CAH       -7.1670   33.1190   15.8510 C.3   151  11A151      0.0000
      7  CAI       -6.4910   32.0150   16.6420 C.3   151  11A151      0.0000
      8  CAJ       -4.9840   32.0770   16.4790 C.3   151  11A151      0.0006
      9  CAK       -4.3850   30.6820   16.3470 C.3   151  11A151      0.0118
     10  CAL       -3.7220   30.2660   17.6410 C.3   151  11A151      0.1141
     11  CAM       -2.8730   29.0450   17.4020 C.2   151  11A151      0.3649
     12  OAC       -1.7750   29.1660   16.8460 O.co2 151  11A151     -0.2457
     13  OAB       -3.3160   27.9470   17.7720 O.co2 151  11A151     -0.2457
@<TRIPOS>BOND
     1     6     5    1
     2     6     7    1
     3     4     5    1
     4     4     3    1
     5     9     8    1
     6     9    10    1
     7     8     7    1
     8     3     2    1
     9    12    11   ar
    10    11    10    1
    11    11    13   ar
    12     2     1    1
