@<TRIPOS>MOLECULE
3pmf_THP_A_1.pdb
 25 26 0 0 0
SMALL
GASTEIGER

@<TRIPOS>ATOM
      1  P2        17.8670   10.8940    5.0200 P.3   150  THP150      0.5327
      2  O4P       16.6330   11.5570    5.5530 O.3   150  THP150     -0.1145
      3  O5P       17.8960    9.3710    5.2860 O.2   150  THP150     -0.2224
      4  O6P       19.1560   11.6580    5.4900 O.3   150  THP150     -0.1145
      5  P1        21.1290   14.4330    1.2510 P.3   150  THP150      0.5326
      6  O1P       20.5260   15.3820    2.2210 O.3   150  THP150     -0.1145
      7  O2P       21.8190   13.2710    2.0680 O.3   150  THP150     -0.1145
      8  O3P       22.1870   15.1150    0.3150 O.2   150  THP150     -0.2224
      9  O5'       17.8350   10.9160    3.3900 O.3   150  THP150     -0.2675
     10  C5'       17.8110   12.2340    2.8050 C.3   150  THP150      0.1857
     11  C4'       18.8010   12.2040    1.6310 C.3   150  THP150      0.1748
     12  O4'       18.4580   11.1110    0.7470 O.3   150  THP150     -0.3340
     13  C3'       18.7600   13.5150    0.7830 C.3   150  THP150      0.1600
     14  O3'       20.0560   13.8030    0.1890 O.3   150  THP150     -0.2700
     15  C2'       17.8800   13.0770   -0.4270 C.3   150  THP150      0.0847
     16  C1'       18.1540   11.5390   -0.5740 C.3   150  THP150      0.2089
     17  N1        16.8600   10.8790   -0.9630 N.am  150  THP150     -0.1794
     18  C2        16.5980   10.6830   -2.2760 C.1   150  THP150      0.2844
     19  O2        17.4340   11.0380   -3.1580 O.2   150  THP150     -0.1918
     20  N3        15.4100   10.1680   -2.6950 N.2   150  THP150     -0.2455
     21  C4        14.4490    9.8340   -1.7790 C.1   150  THP150      0.2134
     22  O4        13.3930    9.4220   -2.2010 O.2   150  THP150     -0.2088
     23  C5        14.6960   10.0320   -0.4040 C.2   150  THP150      0.0891
     24  C5M       13.6630    9.6420    0.6500 C.3   150  THP150      0.0462
     25  C6        15.9080   10.5430   -0.0180 C.2   150  THP150      0.0877
@<TRIPOS>BOND
     1    19    18    2
     2    20    18    2
     3    20    21    2
     4    18    17   am
     5    22    21    2
     6    21    23    1
     7    17    16    1
     8    17    25    1
     9    16    15    1
    10    16    12    1
    11    15    13    1
    12    23    25    2
    13    23    24    1
    14    14    13    1
    15    14     5    1
    16     8     5    2
    17    12    11    1
    18    13    11    1
    19     5     7    1
    20     5     6    1
    21    11    10    1
    22    10     9    1
    23     9     1    1
    24     1     3    2
    25     1     4    1
    26     1     2    1
