@<TRIPOS>MOLECULE
3pmh_0G7_B_1.pdb
 31 32 0 0 0
SMALL
GASTEIGER

@<TRIPOS>ATOM
      1  N         25.4130  -16.8300  124.5850 N.3   700  0G7700     -0.1228
      2  CA        24.1430  -16.1080  124.3880 C.3   700  0G7700      0.1721
      3  C         23.1660  -17.0140  123.5730 C.2   700  0G7700      0.2437
      4  O         23.5700  -17.5260  122.5250 O.2   700  0G7700     -0.2733
      5  CB        23.7070  -15.7870  125.8300 C.3   700  0G7700      0.0547
      6  CG        23.6010  -16.9750  126.7310 C.ar  700  0G7700     -0.0202
      7  CD1       24.5150  -18.0210  126.6720 C.ar  700  0G7700     -0.0042
      8  CD2       22.5340  -17.0640  127.6160 C.ar  700  0G7700     -0.0042
      9  CE1       24.3460  -19.1410  127.4840 C.ar  700  0G7700     -0.0003
     10  CE2       22.3540  -18.1750  128.4270 C.ar  700  0G7700     -0.0003
     11  CZ        23.2560  -19.2150  128.3620 C.ar  700  0G7700     -0.0000
     12  N1        21.8830  -17.1780  123.9770 N.am  700  0G7700     -0.2718
     13  CA1       21.0090  -18.0540  123.1740 C.3   700  0G7700      0.1535
     14  C1        20.8430  -17.5950  121.7270 C.2   700  0G7700      0.2598
     15  O1        20.6270  -16.3950  121.4690 O.2   700  0G7700     -0.2715
     16  CB1       19.6770  -18.0120  123.9280 C.3   700  0G7700      0.0310
     17  CG1       20.0370  -17.4640  125.2660 C.3   700  0G7700      0.0237
     18  CD        21.0660  -16.4480  124.9480 C.3   700  0G7700      0.0939
     19  N2        20.9230  -18.5370  120.7860 N.am  700  0G7700     -0.1982
     20  CA2       20.7970  -18.1740  119.3760 C.3   700  0G7700      0.1537
     21  C2        19.5130  -18.6560  118.7090 C.2   700  0G7700      0.1866
     22  O2        18.9540  -19.7210  119.0900 O.2   700  0G7700     -0.2929
     23  CB2       22.0420  -18.6490  118.6320 C.3   700  0G7700      0.0330
     24  CG2       23.2740  -17.9010  119.1280 C.3   700  0G7700      0.0491
     25  CD3       24.5290  -18.2840  118.4020 C.3   700  0G7700      0.2205
     26  NE        25.5100  -17.2040  118.4190 N.pl3 700  0G7700     -0.0865
     27  CZ1       26.7000  -17.2820  117.8350 C.cat 700  0G7700      0.5346
     28  NH1       27.0480  -18.3910  117.1970 N.pl3 700  0G7700      0.1354
     29  NH2       27.5310  -16.2540  117.8750 N.pl3 700  0G7700      0.1354
     30  C3        19.0370  -18.0500  117.7290 C.3   700  0G7700      0.1607
     31 CL1        17.9920  -16.5430  117.7630 Cl    700  0G7700     -0.1052
@<TRIPOS>BOND
     1    28    27    1
     2    30    31    1
     3    30    21    1
     4    27    29    1
     5    27    26    2
     6    25    26    1
     7    25    24    1
     8    23    24    1
     9    23    20    1
    10    21    22    2
    11    21    20    1
    12    20    19    1
    13    19    14   am
    14    15    14    2
    15    14    13    1
    16     4     3    2
    17    13    16    1
    18    13    12    1
    19     3    12   am
    20     3     2    1
    21    16    17    1
    22    12    18    1
    23     2     1    1
    24     2     5    1
    25    18    17    1
    26     5     6    1
    27     7     6   ar
    28     7     9   ar
    29     6     8   ar
    30     9    11   ar
    31     8    10   ar
    32    11    10   ar
