@<TRIPOS>MOLECULE
3pmj_PMJ_A_1.pdb
 36 37 0 0 0
SMALL
GASTEIGER

@<TRIPOS>ATOM
      1  C7        16.8830   20.0760   36.2920 C.3   481  PMJ481      0.1969
      2  S8        17.4700   21.0600   37.7360 S.O2  481  PMJ481      0.0620
      3  C4        17.7840   18.8460   36.0640 C.ar  481  PMJ481      0.0030
      4  C5        19.0360   18.9990   35.4580 C.ar  481  PMJ481     -0.0025
      5  C6        19.8610   17.8870   35.2730 C.ar  481  PMJ481     -0.0003
      6  C1        19.4390   16.6170   35.7080 C.ar  481  PMJ481     -0.0000
      7  C2        18.1860   16.4720   36.3230 C.ar  481  PMJ481     -0.0003
      8  C3        17.3670   17.5890   36.4940 C.ar  481  PMJ481     -0.0025
      9  O10       18.7720   21.6960   37.3470 O.2   481  PMJ481     -0.1558
     10  O9        17.5830   20.1850   38.9280 O.2   481  PMJ481     -0.1558
     11  N11       16.3960   22.1730   38.2210 N.3   481  PMJ481     -0.0738
     12  C12       16.1710   23.3220   37.3390 C.3   481  PMJ481      0.1749
     13  C30       15.4090   24.3240   38.2340 C.3   481  PMJ481      0.0324
     14  C31       14.9830   25.5640   37.4500 C.3   481  PMJ481      0.0489
     15  C32       14.1950   26.5440   38.3410 C.3   481  PMJ481      0.2205
     16  N33       15.1470   26.9790   39.3910 N.pl3 481  PMJ481     -0.0865
     17  C34       14.8930   27.8190   40.3970 C.cat 481  PMJ481      0.5346
     18  N35       15.8930   28.1060   41.2760 N.pl3 481  PMJ481      0.1354
     19  N37       13.6630   28.3290   40.5470 N.pl3 481  PMJ481      0.1354
     20  C13       15.3420   22.9140   36.0980 C.2   481  PMJ481      0.2595
     21  O14       14.4400   22.0710   36.1730 O.2   481  PMJ481     -0.2718
     22  N15       15.7400   23.4980   34.9690 N.am  481  PMJ481     -0.1942
     23  C16       15.1430   23.3370   33.6250 C.3   481  PMJ481      0.2014
     24  C17       15.2560   21.8510   33.2260 C.2   481  PMJ481      0.2638
     25  O18       16.3200   21.2470   33.4020 O.2   481  PMJ481     -0.2714
     26  N19       14.1510   21.2760   32.7560 N.am  481  PMJ481     -0.1991
     27  C20       14.1750   19.8280   32.3430 C.3   481  PMJ481      0.1415
     28  C21       13.4900   18.9430   33.3900 C.ar  481  PMJ481     -0.0006
     29  C26       13.9270   18.9250   34.7230 C.ar  481  PMJ481     -0.0023
     30  C25       13.2950   18.1230   35.6880 C.ar  481  PMJ481      0.0077
     31  C24       12.2220   17.3030   35.2970 C.ar  481  PMJ481      0.0975
     32  C27       11.5480   16.4840   36.2230 C.2   481  PMJ481      0.4766
     33  N28       10.2440   16.2570   36.1080 N.pl3 481  PMJ481      0.2047
     34  N29       12.1590   15.9950   37.2920 N.pl3 481  PMJ481      0.2047
     35  C23       11.8000   17.3170   33.9620 C.ar  481  PMJ481      0.0077
     36  C22       12.4300   18.1250   33.0120 C.ar  481  PMJ481     -0.0023
@<TRIPOS>BOND
     1    27    26    1
     2    27    28    1
     3    26    24   am
     4    36    28   ar
     5    36    35   ar
     6    24    25    2
     7    24    23    1
     8    28    29   ar
     9    23    22    1
    10    35    31   ar
    11    29    30   ar
    12    22    20   am
    13     5     4   ar
    14     5     6   ar
    15    31    30   ar
    16    31    32    1
    17     4     3   ar
    18     6     7   ar
    19     3     1    1
    20     3     8   ar
    21    20    21    2
    22    20    12    1
    23    33    32    2
    24    32    34    1
    25     1     2    1
    26     7     8   ar
    27    12    11    1
    28    12    13    1
    29     9     2    2
    30    14    13    1
    31    14    15    1
    32     2    11    1
    33     2    10    2
    34    15    16    1
    35    16    17    2
    36    17    19    1
    37    17    18    1
