@<TRIPOS>MOLECULE
3pml_1GC_A_1.pdb
 31 33 0 0 0
SMALL
GASTEIGER

@<TRIPOS>ATOM
      1  N1        32.8440   24.2900   17.6730 N.2   701  1GC701     -0.2485
      2  C2        32.8710   24.9530   16.4690 C.1   701  1GC701      0.2531
      3  N2        33.4210   24.3060   15.4380 N.pl3 701  1GC701     -0.0226
      4  N3        32.3920   26.1720   16.2940 N.2   701  1GC701     -0.3074
      5  C4        31.8940   26.6850   17.4390 C.2   701  1GC701      0.2299
      6  C5        31.8130   26.0980   18.6880 C.2   701  1GC701      0.2182
      7  C6        32.3020   24.7890   18.8530 C.1   701  1GC701      0.2372
      8  O6        32.2760   24.0900   19.8580 O.2   701  1GC701     -0.2069
      9  N7        31.2130   26.9500   19.5980 N.2   701  1GC701     -0.2322
     10  C8        30.9440   28.0210   18.9030 C.3   701  1GC701      0.2245
     11  N9        31.3350   27.9230   17.5880 N.pl3 701  1GC701     -0.2374
     12  PA        28.8370   31.4440   20.6060 P.3   701  1GC701      0.3820
     13  PB        26.1350   31.7730   18.9730 P.3   701  1GC701      0.3895
     14  PG        24.6510   32.9750   20.8570 P.3   701  1GC701      0.5389
     15  C1'       31.1830   28.9250   16.5420 C.3   701  1GC701      0.1981
     16  O1A       29.3830   30.6970   21.7920 O.3   701  1GC701     -0.1392
     17  O1B       25.7360   30.7840   17.9530 O.2   701  1GC701     -0.2544
     18  O1G       25.9120   33.6620   21.2370 O.3   701  1GC701     -0.1143
     19  C2'       29.7890   28.9580   15.9220 C.3   701  1GC701      0.0865
     20  O2A       28.9090   32.9290   20.6110 O.2   701  1GC701     -0.2548
     21  O2B       26.8590   32.9950   18.5170 O.3   701  1GC701     -0.1388
     22  O2G       24.0460   31.9880   21.7900 O.3   701  1GC701     -0.1143
     23  C3'       29.0810   30.0230   16.7330 C.3   701  1GC701      0.1857
     24  O3'       28.0230   30.6280   15.9760 O.3   701  1GC701     -0.2203
     25  C3A       27.0840   30.9280   20.3150 C.3   701  1GC701      0.2357
     26  O3B       24.8330   32.3030   19.5100 O.3   701  1GC701     -0.2026
     27  O3G       23.6410   34.0480   20.6860 O.2   701  1GC701     -0.2220
     28  C4'       30.2100   31.0130   17.0160 C.3   701  1GC701      0.1773
     29  O4'       31.4040   30.1970   17.1280 O.3   701  1GC701     -0.3347
     30  C5'       30.0440   31.8320   18.2780 C.3   701  1GC701      0.1835
     31  O5'       29.7720   30.9760   19.3950 O.3   701  1GC701     -0.2896
@<TRIPOS>BOND
     1     3     2    1
     2    19    15    1
     3    19    23    1
     4    24    23    1
     5     4     2    2
     6     4     5    2
     7     2     1    2
     8    15    29    1
     9    15    11    1
    10    23    28    1
    11    28    29    1
    12    28    30    1
    13     5    11    1
    14     5     6    1
    15    11    10    1
    16     1     7    2
    17    17    13    2
    18    30    31    1
    19    21    13    1
    20     6     7    1
    21     6     9    2
    22     7     8    2
    23    10     9    1
    24    13    26    1
    25    13    25    1
    26    31    12    1
    27    26    14    1
    28    25    12    1
    29    12    20    2
    30    12    16    1
    31    27    14    2
    32    14    18    1
    33    14    22    1
