@<TRIPOS>MOLECULE
3pmn_1GC_A_1.pdb
 31 33 0 0 0
SMALL
GASTEIGER

@<TRIPOS>ATOM
      1  N1        -9.1650  -10.9520  -19.1000 N.2     1  1GC1       -0.2485
      2  C2        -9.3100   -9.7660  -19.7840 C.1     1  1GC1        0.2531
      3  N2        -8.4240   -9.5360  -20.7690 N.pl3   1  1GC1       -0.0226
      4  N3       -10.2500   -8.8680  -19.5200 N.2     1  1GC1       -0.3074
      5  C4       -11.0440   -9.2520  -18.4960 C.2     1  1GC1        0.2299
      6  C5       -10.9790  -10.4090  -17.7430 C.2     1  1GC1        0.2182
      7  C6        -9.9730  -11.3680  -18.0390 C.1     1  1GC1        0.2372
      8  O6        -9.7610  -12.4590  -17.4880 O.2     1  1GC1       -0.2069
      9  N7       -11.9760  -10.4240  -16.7790 N.2     1  1GC1       -0.2322
     10  C8       -12.6200   -9.3020  -16.9580 C.3     1  1GC1        0.2245
     11  N9       -12.1150   -8.5470  -17.9900 N.pl3   1  1GC1       -0.2374
     12  PA       -16.1210   -8.0280  -14.5450 P.3     1  1GC1        0.3820
     13  PB       -18.5700   -7.9950  -16.4870 P.3     1  1GC1        0.3895
     14  PG       -20.4960   -8.6440  -14.7590 P.3     1  1GC1        0.5389
     15  C1'      -12.6230   -7.2650  -18.4660 C.3     1  1GC1        0.1981
     16  O1A      -15.3520   -8.9620  -13.6830 O.3     1  1GC1       -0.1392
     17  O1B      -18.4110   -8.3040  -17.9320 O.2     1  1GC1       -0.2544
     18  O1G      -19.7830   -7.6970  -13.8570 O.3     1  1GC1       -0.1143
     19  C2'      -13.8110   -7.3980  -19.4200 C.3     1  1GC1        0.0865
     20  O2A      -16.7780   -6.8550  -13.9060 O.2     1  1GC1       -0.2548
     21  O2B      -18.5460   -6.5710  -16.0570 O.3     1  1GC1       -0.1388
     22  O2G      -20.5250  -10.0850  -14.4150 O.3     1  1GC1       -0.1143
     23  C3'      -15.0050   -7.1940  -18.5070 C.3     1  1GC1        0.1857
     24  O3'      -16.1020   -6.6360  -19.2370 O.3     1  1GC1       -0.2203
     25  C3A      -17.3480   -8.9710  -15.5240 C.3     1  1GC1        0.2357
     26  O3B      -19.9580   -8.4760  -16.1640 O.3     1  1GC1       -0.2026
     27  O3G      -21.9030   -8.1840  -14.8350 O.2     1  1GC1       -0.2220
     28  C4'      -14.4740   -6.1770  -17.5020 C.3     1  1GC1        0.1773
     29  O4'      -13.0800   -6.5210  -17.3350 O.3     1  1GC1       -0.3347
     30  C5'      -15.1850   -6.1730  -16.1670 C.3     1  1GC1        0.1835
     31  O5'      -15.0050   -7.4280  -15.5140 O.3     1  1GC1       -0.2896
@<TRIPOS>BOND
     1     3     2    1
     2     2     4    2
     3     2     1    2
     4     4     5    2
     5    19    23    1
     6    19    15    1
     7    24    23    1
     8     1     7    2
     9    23    28    1
    10     5    11    1
    11     5     6    1
    12    15    11    1
    13    15    29    1
    14     7     6    1
    15     7     8    2
    16    11    10    1
    17    17    13    2
    18     6     9    2
    19    28    29    1
    20    28    30    1
    21    10     9    1
    22    13    26    1
    23    13    21    1
    24    13    25    1
    25    30    31    1
    26    26    14    1
    27    25    12    1
    28    31    12    1
    29    27    14    2
    30    14    22    1
    31    14    18    1
    32    12    20    2
    33    12    16    1
