@<TRIPOS>MOLECULE
3pmq_HEC_A_10.pdb
 43 50 0 0 0
SMALL
GASTEIGER

@<TRIPOS>ATOM
      1 FE          4.3080   99.5670  -77.0390 Fe    679  HEC679      0.0000
      2  CHA        5.7100  101.5400  -74.5930 C.2   679  HEC679      0.0000
      3  CHB        5.1180   96.7580  -75.2060 C.2   679  HEC679      0.0000
      4  CHC        2.2290   97.7020  -78.9910 C.2   679  HEC679      0.0000
      5  CHD        4.0810  102.1790  -79.1660 C.2   679  HEC679      0.0000
      6  NA         5.2600   99.2110  -75.2350 N.2   679  HEC679      0.0000
      7  C1A        5.7330  100.1780  -74.3650 C.2   679  HEC679      0.0000
      8  C2A        6.2400   99.5020  -73.1830 C.2   679  HEC679      0.0000
      9  C3A        6.0790   98.1850  -73.3600 C.2   679  HEC679      0.0000
     10  C4A        5.4580   97.9740  -74.6510 C.2   679  HEC679      0.0000
     11  CMA        6.4740   97.0660  -72.3730 C.3   679  HEC679      0.0000
     12  CAA        6.8710  100.1890  -71.9490 C.3   679  HEC679      0.0000
     13  CBA        6.1580   99.7520  -70.6710 C.3   679  HEC679      0.0000
     14  CGA        7.0210  100.0550  -69.4740 C.2   679  HEC679      0.0000
     15  O1A        8.1760  100.5150  -69.6630 O.co2 679  HEC679      0.0000
     16  O2A        6.5540   99.8330  -68.3270 O.co2 679  HEC679      0.0000
     17  NB         3.7690   97.5860  -77.0780 N.ar  679  HEC679      0.0000
     18  C1B        4.2300   96.5820  -76.2460 C.ar  679  HEC679      0.0000
     19  C2B        3.6140   95.3370  -76.6660 C.ar  679  HEC679      0.0000
     20  C3B        2.8230   95.6040  -77.7150 C.ar  679  HEC679      0.0000
     21  C4B        2.8990   97.0240  -77.9930 C.ar  679  HEC679      0.0000
     22  CMB        3.8470   93.9540  -76.0160 C.3   679  HEC679      0.0000
     23  CAB        1.9560   94.5960  -78.5020 C.3   679  HEC679      0.0000
     24  CBB        0.8090   94.1010  -77.5930 C.3   679  HEC679      0.0000
     25  NC         3.3990   99.8500  -78.8120 N.2   679  HEC679      0.0000
     26  C1C        2.4410   99.0160  -79.3540 C.2   679  HEC679      0.0000
     27  C2C        1.6260   99.8100  -80.2560 C.2   679  HEC679      0.0000
     28  C3C        2.2310  100.9940  -80.4050 C.2   679  HEC679      0.0000
     29  C4C        3.2990  101.0780  -79.4330 C.2   679  HEC679      0.0000
     30  CMC        0.5640   99.2320  -81.2160 C.3   679  HEC679      0.0000
     31  CAC        1.7760  102.1480  -81.3250 C.3   679  HEC679      0.0000
     32  CBC        0.4320  102.7030  -80.8050 C.3   679  HEC679      0.0000
     33  ND         4.7890  101.5830  -76.8810 N.ar  679  HEC679      0.0000
     34  C1D        4.6830  102.4590  -77.9580 C.ar  679  HEC679      0.0000
     35  C2D        5.3100  103.7100  -77.5990 C.ar  679  HEC679      0.0000
     36  C3D        5.8270  103.5140  -76.1690 C.ar  679  HEC679      0.0000
     37  C4D        5.4540  102.1620  -75.8010 C.ar  679  HEC679      0.0000
     38  CMD        5.4430  104.9780  -78.4690 C.3   679  HEC679      0.0000
     39  CAD        6.5730  104.5690  -75.3270 C.3   679  HEC679      0.0000
     40  CBD        7.8440  103.9760  -74.7340 C.3   679  HEC679      0.0000
     41  CGD        8.7590  105.1070  -74.3540 C.2   679  HEC679      0.0000
     42  O1D        9.7990  104.8430  -73.6980 O.co2 679  HEC679      0.0000
     43  O2D        8.4450  106.2730  -74.7060 O.co2 679  HEC679      0.0000
@<TRIPOS>BOND
     1    31    32    1
     2    31    28    1
     3    30    27    1
     4    28    27    2
     5    28    29    1
     6    27    26    1
     7    29     5    1
     8    29    25    2
     9    26     4    2
    10    26    25    1
    11     5    34    2
    12     4    21    1
    13    25     1    1
    14    23    20    1
    15    23    24    1
    16    38    35    1
    17    21    20   ar
    18    21    17   ar
    19    34    35   ar
    20    34    33   ar
    21    20    19   ar
    22    35    36   ar
    23    17     1    1
    24    17    18   ar
    25     1    33    1
    26     1     6    1
    27    33    37   ar
    28    19    18   ar
    29    19    22    1
    30    18     3    1
    31    36    37   ar
    32    36    39    1
    33    37     2    2
    34    39    40    1
    35     6    10    1
    36     6     7    2
    37     3    10    2
    38    40    41    1
    39    43    41   ar
    40    10     9    1
    41     2     7    1
    42     7     8    1
    43    41    42   ar
    44     9     8    2
    45     9    11    1
    46     8    12    1
    47    12    13    1
    48    13    14    1
    49    15    14   ar
    50    14    16   ar
