@<TRIPOS>MOLECULE
3pmu_F7L_A_1.pdb
 18 19 0 0 0
SMALL
GASTEIGER

@<TRIPOS>ATOM
      1  O1        -1.4570    6.0340    9.6610 O.3   2001  F7L2001    -0.2189
      2  C2        -1.3870    5.2610    8.5320 C.3   2001  F7L2001     0.1972
      3  C3        -1.9600    6.0520    7.3740 C.3   2001  F7L2001     0.1768
      4  O4        -1.4330    7.3590    7.3490 O.3   2001  F7L2001    -0.3462
      5  C5        -1.8000    8.2050    6.2750 C.3   2001  F7L2001     0.1709
      6  C6        -3.2350    8.5870    6.3760 C.ar  2001  F7L2001     0.0347
      7  C7        -4.2230    7.8740    5.6440 C.ar  2001  F7L2001     0.0004
      8  C8        -5.5770    8.2420    5.7430 C.ar  2001  F7L2001    -0.0001
      9  C9        -5.9570    9.3080    6.5600 C.ar  2001  F7L2001     0.0023
     10  C10       -4.9750   10.0230    7.2910 C.ar  2001  F7L2001     0.0294
     11  C11       -3.6160    9.6520    7.1900 C.ar  2001  F7L2001     0.1385
     12  F12       -2.6860   10.3280    7.8850 F     2001  F7L2001    -0.2044
     13  C13       -2.2010    3.9590    8.6780 C.3   2001  F7L2001     0.1080
     14  N14       -1.4310    2.9350    9.3540 N.3   2001  F7L2001    -0.2705
     15  C15       -2.2190    1.7550    9.5650 C.3   2001  F7L2001     0.0722
     16  C16       -1.4530    0.9870   10.6140 C.3   2001  F7L2001     0.0188
     17  C17       -0.7660    2.0610   11.4260 C.3   2001  F7L2001     0.0188
     18  C18       -1.0230    3.3510   10.6570 C.3   2001  F7L2001     0.0722
@<TRIPOS>BOND
     1     7     8   ar
     2     7     6   ar
     3     8     9   ar
     4     5     6    1
     5     5     4    1
     6     6    11   ar
     7     9    10   ar
     8    11    10   ar
     9    11    12    1
    10     4     3    1
    11     3     2    1
    12     2    13    1
    13     2     1    1
    14    13    14    1
    15    14    15    1
    16    14    18    1
    17    15    16    1
    18    16    17    1
    19    18    17    1
