@<TRIPOS>MOLECULE
3pmv_557_A_1.pdb
 27 28 0 0 0
SMALL
GASTEIGER

@<TRIPOS>ATOM
      1  C1        -1.4860   -0.5160   15.8690 C.ar  270  557270      0.0188
      2  C2         0.7380    0.3790   15.6200 C.ar  270  557270      0.0188
      3  C3         1.2200   -0.8980   15.4160 C.ar  270  557270     -0.0027
      4  C4         0.3970   -2.0110   15.4650 C.ar  270  557270     -0.0209
      5  C5        -0.9830   -1.8160   15.6780 C.ar  270  557270     -0.0027
      6  C6         1.0830   -3.3680   15.2110 C.3   270  557270      0.0417
      7  C7         0.1950   -4.2180   14.2640 C.3   270  557270      0.0062
      8  C9         1.5820   -4.1460   16.4720 C.3   270  557270      0.1194
      9  N10        1.4760   -3.3820   17.6980 N.3   270  557270     -0.0818
     10  S11        2.8780   -2.9610   18.6550 S.O2  270  557270      0.0556
     11  C12       -0.6240    0.5980   15.8250 C.ar  270  557270      0.0828
     12  N13       -1.0100    1.8880   15.9970 N.ar  270  557270     -0.2285
     13  N14       -0.5340    2.9070   15.2500 N.ar  270  557270     -0.1613
     14  C15       -0.9940    4.0160   15.6030 C.ar  270  557270      0.1725
     15  C16       -1.8730    3.7020   16.7390 C.ar  270  557270      0.0531
     16  C17       -1.8030    2.3780   16.8970 C.ar  270  557270      0.1001
     17  C18       -0.6510    5.3190   14.9260 C.3   270  557270      0.4363
     18  F19        0.6990    5.3930   14.8920 F     270  557270     -0.1644
     19  F20       -1.1180    6.4030   15.6010 F     270  557270     -0.1644
     20  F21       -1.0940    5.3390   13.6360 F     270  557270     -0.1644
     21  O22       -2.8700    3.9820   18.8690 O.3   270  557270     -0.2151
     22  C23       -2.6900    4.6370   17.5830 C.3   270  557270      0.2116
     23  O24        3.6750   -2.0610   17.8540 O.2   270  557270     -0.1562
     24  C25        3.7420   -4.5480   18.8610 C.3   270  557270      0.1473
     25  C26        4.9820   -4.3140   19.7560 C.3   270  557270      0.0270
     26  C27        2.7850   -5.6120   19.4690 C.3   270  557270      0.0270
     27  O28        2.4030   -2.4580   19.9140 O.2   270  557270     -0.1562
@<TRIPOS>BOND
     1    20    17    1
     2     7     6    1
     3    18    17    1
     4    17    19    1
     5    17    14    1
     6     6     4    1
     7     6     8    1
     8    13    14   ar
     9    13    12   ar
    10     3     4   ar
    11     3     2   ar
    12     4     5   ar
    13    14    15   ar
    14     2    11   ar
    15     5     1   ar
    16    11     1   ar
    17    11    12    1
    18    12    16   ar
    19     8     9    1
    20    15    16   ar
    21    15    22    1
    22    22    21    1
    23     9    10    1
    24    23    10    2
    25    10    24    1
    26    10    27    2
    27    24    26    1
    28    24    25    1
