@<TRIPOS>MOLECULE
3pmv_GLU_A_1.pdb
 10 9 0 0 0
SMALL
GASTEIGER

@<TRIPOS>ATOM
      1  N         13.7000    2.3950   16.0860 N.3   264  GLU264     -0.1208
      2  CA        14.8100    1.4370   16.3530 C.3   264  GLU264      0.1949
      3  C         15.0250    1.1260   17.8620 C.2   264  GLU264      0.3819
      4  O         15.9860    0.3970   18.2590 O.co2 264  GLU264     -0.2441
      5  CB        16.1080    1.9760   15.7260 C.3   264  GLU264      0.0424
      6  CG        16.1850    1.8410   14.2110 C.3   264  GLU264      0.1161
      7  CD        16.5160    0.4360   13.7760 C.2   264  GLU264      0.3649
      8  OE1       16.3750    0.1810   12.5520 O.co2 264  GLU264     -0.2457
      9  OE2       16.9220   -0.4100   14.6300 O.co2 264  GLU264     -0.2457
     10  OXT       14.2460    1.6080   18.6780 O.co2 264  GLU264     -0.2441
@<TRIPOS>BOND
     1     8     7   ar
     2     7     6    1
     3     7     9   ar
     4     6     5    1
     5     5     2    1
     6     1     2    1
     7     2     3    1
     8     3     4   ar
     9     3    10   ar
