@<TRIPOS>MOLECULE
3pmw_GLU_A_1.pdb
 10 9 0 0 0
SMALL
GASTEIGER

@<TRIPOS>ATOM
      1  N         13.9190    2.3620   16.0220 N.3     1  GLU1       -0.1208
      2  CA        14.9930    1.3680   16.2230 C.3     1  GLU1        0.1949
      3  C         15.2190    1.1870   17.7120 C.2     1  GLU1        0.3819
      4  O         16.1080    0.4200   18.1300 O.co2   1  GLU1       -0.2441
      5  CB        16.2880    1.8380   15.5450 C.3     1  GLU1        0.0424
      6  CG        16.2660    1.7740   14.0610 C.3     1  GLU1        0.1161
      7  CD        16.6190    0.4150   13.5610 C.2     1  GLU1        0.3649
      8  OE1       16.5600    0.1800   12.3320 O.co2   1  GLU1       -0.2457
      9  OE2       16.9800   -0.4270   14.3880 O.co2   1  GLU1       -0.2457
     10  OXT       14.4940    1.8140   18.4940 O.co2   1  GLU1       -0.2441
@<TRIPOS>BOND
     1     8     7   ar
     2     7     6    1
     3     7     9   ar
     4     6     5    1
     5     5     2    1
     6     1     2    1
     7     2     3    1
     8     3     4   ar
     9     3    10   ar
