@<TRIPOS>MOLECULE
3pmw_G69_A_1.pdb
 28 30 0 0 0
SMALL
GASTEIGER

@<TRIPOS>ATOM
      1  O1         1.9180   -5.2840   19.8200 O.3   274  G69274     -0.2151
      2  C3         2.4190   -5.3950   18.4900 C.3   274  G69274      0.2116
      3  C6         2.3080   -4.1060   17.7560 C.ar  274  G69274      0.0527
      4  C7         1.6350   -3.8880   16.5650 C.ar  274  G69274      0.0952
      5  N9         1.7850   -2.5670   16.2640 N.ar  274  G69274     -0.2452
      6  C10        1.2450   -1.9030   15.1000 C.3   274  G69274      0.1538
      7  C13        0.6790   -0.5270   15.3200 C.ar  274  G69274      0.0018
      8  C14       -0.7060   -0.3650   15.5230 C.ar  274  G69274     -0.0069
      9  C16       -1.1980    0.9170   15.6890 C.ar  274  G69274     -0.0249
     10  C17       -2.5990    1.3480   15.9240 C.3   274  G69274      0.0456
     11  C20       -2.3940    2.6980   16.6140 C.3   274  G69274      0.1059
     12  N22       -2.1060    2.5690   18.0600 N.3   274  G69274     -0.0829
     13  S24       -3.3050    2.8560   19.1940 S.O2  274  G69274      0.0556
     14  C25       -3.1650    4.6400   19.5150 C.3   274  G69274      0.1473
     15  C27       -2.3650    4.9240   20.7880 C.3   274  G69274      0.0270
     16  C31       -2.5510    5.4080   18.3450 C.3   274  G69274      0.0270
     17  O35       -4.5680    2.6940   18.5020 O.2   274  G69274     -0.1562
     18  O36       -3.0120    2.0450   20.3420 O.2   274  G69274     -0.1562
     19  C37       -1.1850    3.2800   15.8630 C.3   274  G69274      0.0457
     20  C40       -0.3730    2.0380   15.6480 C.ar  274  G69274     -0.0246
     21  C41        0.9860    1.8990   15.4380 C.ar  274  G69274     -0.0048
     22  C43        1.5180    0.6130   15.2690 C.ar  274  G69274     -0.0027
     23  N45        2.5220   -1.8940   17.1630 N.ar  274  G69274     -0.1652
     24  C46        2.8530   -2.8150   18.0930 C.ar  274  G69274      0.1721
     25  C47        3.6880   -2.4050   19.2830 C.3   274  G69274      0.4363
     26  F48        4.4060   -1.2780   19.0160 F     274  G69274     -0.1644
     27  F49        4.5520   -3.3600   19.7530 F     274  G69274     -0.1644
     28  F50        2.9030   -2.0130   20.3110 F     274  G69274     -0.1644
@<TRIPOS>BOND
     1     6     7    1
     2     6     5    1
     3    22     7   ar
     4    22    21   ar
     5     7     8   ar
     6    21    20   ar
     7     8     9   ar
     8    20     9   ar
     9    20    19    1
    10     9    10    1
    11    19    11    1
    12    10    11    1
    13     5     4   ar
    14     5    23   ar
    15     4     3   ar
    16    11    12    1
    17    23    24   ar
    18     3    24   ar
    19     3     2    1
    20    12    13    1
    21    24    25    1
    22    16    14    1
    23     2     1    1
    24    17    13    2
    25    26    25    1
    26    13    14    1
    27    13    18    2
    28    25    27    1
    29    25    28    1
    30    14    15    1
