@<TRIPOS>MOLECULE
3pmx_GLU_A_1.pdb
 10 9 0 0 0
SMALL
GASTEIGER

@<TRIPOS>ATOM
      1  N         13.7480    2.3100   16.1150 N.3   264  GLU264     -0.1208
      2  CA        14.8960    1.3930   16.3580 C.3   264  GLU264      0.1949
      3  C         15.0670    1.1150   17.8450 C.2   264  GLU264      0.3819
      4  O         15.9640    0.3580   18.2680 O.co2 264  GLU264     -0.2441
      5  CB        16.1760    1.9830   15.7670 C.3   264  GLU264      0.0424
      6  CG        16.2770    1.7970   14.2560 C.3   264  GLU264      0.1161
      7  CD        16.5670    0.3770   13.8320 C.2   264  GLU264      0.3649
      8  OE1       16.4390    0.0880   12.6120 O.co2 264  GLU264     -0.2457
      9  OE2       16.9090   -0.4790   14.6920 O.co2 264  GLU264     -0.2457
     10  OXT       14.2870    1.6240   18.6330 O.co2 264  GLU264     -0.2441
@<TRIPOS>BOND
     1     8     7   ar
     2     7     6    1
     3     7     9   ar
     4     6     5    1
     5     5     2    1
     6     1     2    1
     7     2     3    1
     8     3     4   ar
     9     3    10   ar
