@<TRIPOS>MOLECULE
3pmx_808_A_1.pdb
 26 28 0 0 0
SMALL
GASTEIGER

@<TRIPOS>ATOM
      1  C1         2.2850   -3.2200   16.7670 C.3   277  808277      0.1059
      2  N3         2.0090   -3.1060   18.2250 N.3   277  808277     -0.0829
      3  C12       -1.4410    3.6170   16.7270 C.ar  277  808277      0.0363
      4  C18        2.5530   -1.8340   16.1600 C.3   277  808277      0.0456
      5  C21        1.1810   -1.3480   15.8530 C.ar  277  808277     -0.0249
      6  O21       -2.4480    1.6690   17.1850 O.2   277  808277     -0.4533
      7  C22        0.7540   -0.0450   15.6640 C.ar  277  808277     -0.0084
      8  C24       -0.6100    0.1860   15.3860 C.ar  277  808277     -0.0149
      9  C25       -1.0990    1.5980   15.1490 C.3   277  808277      0.0907
     10  C28       -1.6390    2.3080   16.3370 C.ar  277  808277      0.1272
     11  C35       -2.7190    2.6260   18.1000 C.ar  277  808277      0.2161
     12  C36       -3.6160    2.2990   19.2560 C.3   277  808277      0.4510
     13  F37       -3.9530    3.3900   19.9990 F     277  808277     -0.1632
     14  F38       -3.0440    1.4090   20.1170 F     277  808277     -0.1632
     15  F39       -4.7840    1.7250   18.8580 F     277  808277     -0.1632
     16  C40       -2.1340    3.8560   17.8780 C.ar  277  808277      0.0443
     17  C42       -1.4980   -0.9180   15.2990 C.ar  277  808277     -0.0042
     18  C44       -1.0370   -2.2260   15.4910 C.ar  277  808277     -0.0048
     19  C46        0.3020   -2.4300   15.7710 C.ar  277  808277     -0.0246
     20  C47        1.0280   -3.7170   16.0190 C.3   277  808277      0.0457
     21  S50        3.2750   -2.9620   19.3230 S.O2  277  808277      0.0556
     22  O52        2.6880   -2.1930   20.3930 O.2   277  808277     -0.1562
     23  O53        4.4730   -2.4780   18.6630 O.2   277  808277     -0.1562
     24  C54        3.5490   -4.6820   19.8300 C.3   277  808277      0.1473
     25  C55        2.2770   -5.5290   19.8850 C.3   277  808277      0.0270
     26  C57        4.5600   -5.3160   18.8760 C.3   277  808277      0.0270
@<TRIPOS>BOND
     1     9     8    1
     2     9    10    1
     3    17     8   ar
     4    17    18   ar
     5     8     7   ar
     6    18    19   ar
     7     7     5   ar
     8    19     5   ar
     9    19    20    1
    10     5     4    1
    11    20     1    1
    12     4     1    1
    13    10     3   ar
    14    10     6   ar
    15     3    16   ar
    16     1     2    1
    17     6    11   ar
    18    16    11   ar
    19    11    12    1
    20     2    21    1
    21    23    21    2
    22    15    12    1
    23    26    24    1
    24    12    13    1
    25    12    14    1
    26    21    24    1
    27    21    22    2
    28    24    25    1
