@<TRIPOS>MOLECULE
3pmy_41L_A_1.pdb
 19 21 0 0 0
SMALL
GASTEIGER

@<TRIPOS>ATOM
      1  C1        -2.5180    7.9390    6.8010 C.ar  2001  41L2001    -0.0130
      2  C2        -1.1740    7.5090    7.3140 C.3   2001  41L2001     0.1145
      3  C3        -1.0760    6.5070    8.4310 C.2   2001  41L2001     0.2609
      4  N4        -0.4820    5.2890    8.0200 N.am  2001  41L2001    -0.1249
      5  N5        -0.2070    4.4190    8.8690 N.3   2001  41L2001    -0.1522
      6  O6        -1.4410    6.6530    9.6010 O.2   2001  41L2001    -0.2716
      7  C7        -3.3090    7.0770    6.0290 C.ar  2001  41L2001    -0.0038
      8  C8        -4.5550    7.4930    5.5820 C.ar  2001  41L2001    -0.0003
      9  C9        -5.0420    8.7690    5.8350 C.ar  2001  41L2001    -0.0000
     10  C10       -4.2640    9.6210    6.6130 C.ar  2001  41L2001    -0.0003
     11  C11       -3.0220    9.2110    7.0730 C.ar  2001  41L2001    -0.0038
     12  C12       -1.1650    3.7120    9.6110 C.3   2001  41L2001     0.1410
     13  C13       -0.4350    2.8630   10.4440 C.2   2001  41L2001     0.0757
     14  N14        0.9130    3.0970   10.1840 N.2   2001  41L2001    -0.2533
     15  C15        1.0380    4.0410    9.2270 C.3   2001  41L2001     0.2195
     16  C16       -2.5680    3.7450    9.6170 C.2   2001  41L2001    -0.0028
     17  C17       -3.1870    2.8610   10.5120 C.2   2001  41L2001    -0.0028
     18  C18       -2.4440    1.9970   11.3120 C.2   2001  41L2001     0.0010
     19  C19       -1.0430    1.9890   11.3330 C.2   2001  41L2001     0.0160
@<TRIPOS>BOND
     1     8     9   ar
     2     8     7   ar
     3     9    10   ar
     4     7     1   ar
     5    10    11   ar
     6     1    11   ar
     7     1     2    1
     8     2     3    1
     9     4     3   am
    10     4     5    1
    11     3     6    2
    12     5    15    1
    13     5    12    1
    14    15    14    1
    15    12    16    1
    16    12    13    1
    17    16    17    2
    18    14    13    2
    19    13    19    1
    20    17    18    1
    21    18    19    2
