@<TRIPOS>MOLECULE
3pmz_TUB_E_1.pdb
 45 51 0 0 0
SMALL
GASTEIGER

@<TRIPOS>ATOM
      1  C1         8.1730    1.3990   -7.9840 C.ar  220  TUB220      0.1726
      2  C2         7.6050    2.3430   -7.1150 C.ar  220  TUB220      0.1788
      3  C3         6.2410    2.2950   -6.7990 C.ar  220  TUB220      0.0374
      4  C4         5.4340    1.3100   -7.3080 C.ar  220  TUB220     -0.0081
      5  C5         6.0210    0.3170   -8.1780 C.ar  220  TUB220     -0.0203
      6  C6         7.3560    0.3680   -8.4970 C.ar  220  TUB220      0.0356
      7  C7         4.0560    1.4320   -6.8160 C.3   220  TUB220      0.0843
      8  N8         3.1940    0.5270   -7.5990 N.3   220  TUB220     -0.2685
      9  C9         3.8730   -0.7000   -8.1060 C.3   220  TUB220      0.0771
     10  C10        5.0490   -0.4600   -9.0630 C.3   220  TUB220      0.0435
     11  C11        6.7270    3.2100    0.5220 C.ar  220  TUB220      0.2630
     12  C12        6.4930    4.0370    1.6860 C.ar  220  TUB220      0.1805
     13  C13        6.8570    5.3780    1.6730 C.ar  220  TUB220      0.0402
     14  C14        7.4830    5.8710    0.5400 C.ar  220  TUB220      0.0049
     15  C15        7.7310    5.0720   -0.5640 C.ar  220  TUB220      0.0327
     16  C16        7.3150    3.7420   -0.5790 C.ar  220  TUB220      0.1845
     17  C17        7.8980    7.3130    0.5390 C.2   220  TUB220      0.0144
     18  C18        8.8600    7.7510   -0.5690 C.2   220  TUB220      0.0467
     19  C20        8.2830    5.8170   -1.7320 C.3   220  TUB220      0.0891
     20  O21        8.3490    3.4510   -6.5140 O.3   220  TUB220     -0.4472
     21  C22        8.3610    4.9910   -6.5620 C.ar  220  TUB220      0.1837
     22  C23        4.0260    0.7410   -5.4250 C.3   220  TUB220      0.0468
     23  C24        4.9790    1.3090   -4.3890 C.ar  220  TUB220     -0.0203
     24  C25        8.3420    4.8310   -5.1640 C.ar  220  TUB220      0.0366
     25  C26        7.9270    5.8600   -4.3560 C.ar  220  TUB220     -0.0170
     26  C27        7.5420    7.0850   -4.9150 C.ar  220  TUB220     -0.0007
     27  C28        7.5550    7.2730   -6.2870 C.ar  220  TUB220      0.0449
     28  C29        7.9870    6.2270   -7.1140 C.ar  220  TUB220      0.2298
     29  C30        4.5530    2.3330   -3.5450 C.ar  220  TUB220     -0.0011
     30  C31        5.3850    2.8870   -2.5910 C.ar  220  TUB220      0.0372
     31  C32        7.1550    1.3880   -3.3760 C.ar  220  TUB220      0.0372
     32  C33        6.2810    0.8180   -4.2840 C.ar  220  TUB220     -0.0011
     33  O34        7.5610    2.8660   -1.6170 O.3   220  TUB220     -0.4504
     34  C35        8.1370    5.0450   -3.0490 C.3   220  TUB220      0.0494
     35  O36        5.8590    3.4410    2.7240 O.3   220  TUB220     -0.4681
     36  O37        9.5560    1.4000   -8.3940 O.3   220  TUB220     -0.4684
     37  O38        7.9040    6.3860   -8.5320 O.3   220  TUB220     -0.2833
     38  C39        6.6870    2.3900   -2.5380 C.ar  220  TUB220      0.1454
     39  C40       10.5950    5.9790   -0.8760 C.3   220  TUB220      0.0962
     40  C41        9.9000    7.4640   -2.6050 C.3   220  TUB220      0.0962
     41  C42        2.5280    1.2240   -8.6980 C.3   220  TUB220      0.0899
     42  O43        6.2990    1.9230    0.5500 O.3   220  TUB220     -0.2800
     43  C45        5.4190    4.2600    3.8170 C.3   220  TUB220      0.2526
     44  C46       10.0270    0.2850   -9.1810 C.3   220  TUB220      0.2526
     45  N19        9.4380    6.6960   -1.4300 N.pl3 220  TUB220     -0.3493
@<TRIPOS>BOND
     1    44    36    1
     2    10     5    1
     3    10     9    1
     4    41     8    1
     5    37    28    1
     6     6     5   ar
     7     6     1   ar
     8    36     1    1
     9     5     4   ar
    10     9     8    1
    11     1     2   ar
    12     8     7    1
    13     4     7    1
    14     4     3   ar
    15     2     3   ar
    16     2    20    1
    17    28    21   ar
    18    28    27   ar
    19     7    22    1
    20    21    20    1
    21    21    24   ar
    22    27    26   ar
    23    22    23    1
    24    24    25   ar
    25    26    25   ar
    26    23    32   ar
    27    23    29   ar
    28    25    34    1
    29    32    31   ar
    30    29    30   ar
    31    31    38   ar
    32    34    19    1
    33    40    45    1
    34    30    38   ar
    35    38    33    1
    36    19    45    1
    37    19    15    1
    38    33    16    1
    39    45    39    1
    40    45    18    1
    41    16    15   ar
    42    16    11   ar
    43    18    17    2
    44    15    14   ar
    45    11    42    1
    46    11    12   ar
    47    17    14    1
    48    14    13   ar
    49    13    12   ar
    50    12    35    1
    51    35    43    1
