@<TRIPOS>MOLECULE
3pn1_IVH_A_1.pdb
 24 26 0 0 0
SMALL
GASTEIGER

@<TRIPOS>ATOM
      1  S        110.6990   91.2810   24.4730 S.3   319  IVH319     -0.0181
      2  C1       108.9230   94.9930   23.1840 C.3   319  IVH319      0.0000
      3  N1       111.3870   89.0600   25.5020 N.2   319  IVH319     -0.3147
      4  O1       111.4120   92.1060   30.1480 O.3   319  IVH319     -0.3325
      5  C2       109.2290   93.7130   23.9540 C.3   319  IVH319      0.0009
      6  N2       111.6530   90.9400   26.8820 N.2   319  IVH319     -0.3177
      7  O2       109.3610   93.6200   31.0420 O.3   319  IVH319     -0.2176
      8  C3       110.3770   93.9700   24.9240 C.3   319  IVH319      0.0128
      9  N3       112.5920   90.3600   29.0850 N.pl3 319  IVH319     -0.2359
     10  O3       112.9900   95.1110   29.1310 O.3   319  IVH319     -0.2175
     11  C4       111.3970   92.8480   24.9410 C.3   319  IVH319      0.0744
     12  N4       112.6920   88.1790   28.7150 N.2   319  IVH319     -0.2401
     13  O4       114.4470   93.1240   30.0100 O.3   319  IVH319     -0.2158
     14  C5       111.2840   90.3780   25.7460 C.1   319  IVH319      0.1708
     15  N5       111.8640   86.8950   26.0870 N.pl3 319  IVH319     -0.0904
     16  C6       111.8310   88.2360   26.4070 C.2   319  IVH319      0.2529
     17  C7       112.2180   88.7690   27.6080 C.2   319  IVH319      0.1706
     18  C8       112.1230   90.1540   27.8490 C.2   319  IVH319      0.2208
     19  C9       112.9280   89.1550   29.5890 C.3   319  IVH319      0.2238
     20  C10      112.7310   91.6050   29.8850 C.3   319  IVH319      0.2293
     21  C11      113.4320   92.6970   29.1340 C.3   319  IVH319      0.2310
     22  C12      112.4050   93.8380   29.0030 C.3   319  IVH319      0.2159
     23  C13      111.4640   93.5620   30.1150 C.3   319  IVH319      0.1828
     24  C14      110.0530   94.0250   29.8340 C.3   319  IVH319      0.2142
@<TRIPOS>BOND
     1     2     5    1
     2     5     8    1
     3     1    11    1
     4     1    14    1
     5     8    11    1
     6     3    14    2
     7     3    16    2
     8    14     6    2
     9    15    16    1
    10    16    17    1
    11     6    18    2
    12    17    18    1
    13    17    12    2
    14    18     9    1
    15    12    19    1
    16    22    10    1
    17    22    21    1
    18    22    23    1
    19     9    19    1
    20     9    20    1
    21    21    20    1
    22    21    13    1
    23    24    23    1
    24    24     7    1
    25    20     4    1
    26    23     4    1
