@<TRIPOS>MOLECULE
3pn1_IWH_A_1.pdb
 19 20 0 0 0
SMALL
GASTEIGER

@<TRIPOS>ATOM
      1  C1       140.7440   77.1240   29.1530 C.3   320  IWH320      0.0310
      2  N1       135.3780   77.5760   25.4350 N.ar  320  IWH320     -0.2898
      3  O1       135.1480   79.8340   25.5880 O.2   320  IWH320     -0.2670
      4  C2       139.3470   77.2360   28.5850 C.ar  320  IWH320     -0.0222
      5  N2       135.6460   75.4360   21.3510 N.am  320  IWH320     -0.0837
      6  O2       135.7760   74.0190   23.0670 O.2   320  IWH320     -0.2666
      7  C3       139.1820   77.6040   27.2420 C.ar  320  IWH320     -0.0045
      8  C4       137.9000   77.7150   26.6610 C.ar  320  IWH320     -0.0030
      9  C5       136.8070   77.4170   27.4550 C.ar  320  IWH320     -0.0035
     10  C6       136.9670   77.0680   28.8030 C.ar  320  IWH320     -0.0243
     11  C7       138.2350   76.9760   29.3930 C.ar  320  IWH320     -0.0088
     12  C8       135.7650   76.7310   29.7240 C.3   320  IWH320      0.0307
     13  C9       135.4220   77.5470   26.8730 C.3   320  IWH320      0.1355
     14  C10      135.5380   76.4180   24.7340 C.ar  320  IWH320      0.0832
     15  C11      135.5200   76.4570   23.3710 C.ar  320  IWH320      0.0741
     16  C12      135.3610   77.7090   22.6700 C.ar  320  IWH320      0.0110
     17  C13      135.2540   78.8850   23.4340 C.ar  320  IWH320      0.0610
     18  C14      135.2510   78.7830   24.8330 C.ar  320  IWH320      0.2612
     19  C15      135.6870   75.2090   22.6140 C.2   320  IWH320      0.2856
@<TRIPOS>BOND
     1     5    19   am
     2    19     6    2
     3    19    15    1
     4    16    15   ar
     5    16    17   ar
     6    15    14   ar
     7    17    18   ar
     8    14     2   ar
     9    18     2   ar
    10    18     3    2
    11     2    13    1
    12     8     7   ar
    13     8     9   ar
    14    13     9    1
    15     7     4   ar
    16     9    10   ar
    17     4     1    1
    18     4    11   ar
    19    10    11   ar
    20    10    12    1
