@<TRIPOS>MOLECULE
3pn3_PN3_A_1.pdb
 21 21 0 0 0
SMALL
GASTEIGER

@<TRIPOS>ATOM
      1  C1         1.1440    5.7410   38.2310 C.3   194  PN3194      0.2857
      2  O2         1.3750    6.2520   39.4640 O.3   194  PN3194     -0.1982
      3  N3         2.1160    5.7250   37.3290 N.4   194  PN3194     -0.0986
      4  O4         3.3360    6.2480   37.6520 O.3   194  PN3194     -0.1155
      5  C5         1.8930    5.1710   35.9930 C.3   194  PN3194      0.1289
      6  C6         2.6340    3.8460   35.8450 C.3   194  PN3194      0.1215
      7  C7         2.5910    3.3630   34.3940 C.3   194  PN3194      0.0496
      8  C8         3.4340    2.0900   34.2410 C.ar  194  PN3194     -0.0204
      9  C9         4.8140    2.2030   34.0670 C.ar  194  PN3194     -0.0042
     10  C10        5.6010    1.0610   33.9290 C.ar  194  PN3194     -0.0003
     11  C11        5.0040   -0.2030   33.9630 C.ar  194  PN3194     -0.0000
     12  C12        3.6240   -0.3180   34.1380 C.ar  194  PN3194     -0.0003
     13  C13        2.8370    0.8250   34.2780 C.ar  194  PN3194     -0.0042
     14  N14        2.0150    2.7950   36.6510 N.am  194  PN3194     -0.1686
     15  C15        2.5190    2.3800   37.7980 C.2   194  PN3194      0.4209
     16  O16        3.6160    2.9490   38.3470 O.2   194  PN3194     -0.2246
     17  O17        1.8530    1.3740   38.4180 O.3   194  PN3194     -0.4408
     18  C18        2.5730    0.3520   39.1530 C.3   194  PN3194      0.1379
     19  C19        2.9430    0.8770   40.5430 C.3   194  PN3194      0.0437
     20  C20        1.5720   -0.7930   39.2780 C.3   194  PN3194      0.0437
     21  C21        3.8170   -0.1360   38.4080 C.3   194  PN3194      0.0437
@<TRIPOS>BOND
     1    10    11   ar
     2    10     9   ar
     3    11    12   ar
     4     9     8   ar
     5    12    13   ar
     6     8    13   ar
     7     8     7    1
     8     7     6    1
     9     6     5    1
    10     6    14    1
    11     5     3    1
    12    14    15   am
    13     3     4    1
    14     3     1    1
    15    15    16    2
    16    15    17    1
    17     1     2    1
    18    21    18    1
    19    17    18    1
    20    18    20    1
    21    18    19    1
