@<TRIPOS>MOLECULE
3pn4_BB2_A_1.pdb
 27 27 0 0 0
SMALL
GASTEIGER

@<TRIPOS>ATOM
      1  C5         2.3850   16.7890   64.8010 C.3   501  BB2501      0.0603
      2  C3         2.0600   16.6550   63.3460 C.2   501  BB2501      0.0873
      3  O4         2.7830   17.1300   62.4710 O.2   501  BB2501     -0.5395
      4  N1         0.9110   16.0520   63.0730 N.am  501  BB2501     -0.2030
      5  O2         0.5820   15.9830   61.7500 O.3   501  BB2501     -0.4026
      6  C6         1.9650   18.1950   65.2730 C.3   501  BB2501      0.0845
      7  C12        2.6800   18.5460   66.5810 C.2   501  BB2501      0.2417
      8  O13        2.7860   17.7490   67.5370 O.2   501  BB2501     -0.2733
      9  C7         0.4250   18.2850   65.5240 C.3   501  BB2501      0.0095
     10  C8         0.0180   19.7780   65.7070 C.3   501  BB2501      0.0005
     11  C9        -1.4690   19.9300   66.0850 C.3   501  BB2501      0.0000
     12  C10       -1.9350   21.4030   65.9100 C.3   501  BB2501      0.0000
     13  C11       -1.5390   22.2130   67.1500 C.3   501  BB2501      0.0000
     14  N14        3.1940   19.7800   66.5900 N.am  501  BB2501     -0.1978
     15  C15        3.8420   20.3250   67.7780 C.3   501  BB2501      0.1711
     16  C16        5.3800   20.4780   67.6750 C.3   501  BB2501      0.0289
     17  C18        6.0720   19.1300   67.4160 C.3   501  BB2501      0.0023
     18  C17        5.7960   21.4590   66.5910 C.3   501  BB2501      0.0023
     19  C19        3.0560   21.6300   68.0720 C.2   501  BB2501      0.2455
     20  O20        2.6600   22.3360   67.1400 O.2   501  BB2501     -0.2730
     21  N21        2.7570   21.9720   69.3460 N.am  501  BB2501     -0.2772
     22  C22        1.9830   23.1760   69.7560 C.3   501  BB2501      0.1083
     23  C23        3.1710   21.1460   70.5240 C.3   501  BB2501      0.0935
     24  C24        2.5510   21.8270   71.7570 C.3   501  BB2501      0.0233
     25  C25        1.5480   22.8660   71.2070 C.3   501  BB2501      0.0243
     26  C26        2.8420   24.4630   69.7190 C.3   501  BB2501      0.2017
     27  O27        2.0280   25.6170   69.9880 O.3   501  BB2501     -0.2186
@<TRIPOS>BOND
     1     5     4    1
     2     3     2    2
     3     4     2   am
     4     2     1    1
     5     1     6    1
     6     6     9    1
     7     6     7    1
     8     9    10    1
     9    10    11    1
    10    12    11    1
    11    12    13    1
    12     7    14   am
    13     7     8    2
    14    14    15    1
    15    18    16    1
    16    20    19    2
    17    17    16    1
    18    16    15    1
    19    15    19    1
    20    19    21   am
    21    21    22    1
    22    21    23    1
    23    26    22    1
    24    26    27    1
    25    22    25    1
    26    23    24    1
    27    25    24    1
