@<TRIPOS>MOLECULE
3pnb_COA_A_1.pdb
 48 50 0 0 0
SMALL
GASTEIGER

@<TRIPOS>ATOM
      1  N1A        6.5740  -65.8120   34.2320 N.2   162  COA162      0.0021
      2  C2A        6.7940  -64.8630   33.2580 C.3   162  COA162      0.5254
      3  N3A        6.2920  -63.6140   33.4300 N.2   162  COA162     -0.0055
      4  C4A        5.5900  -63.3210   34.5330 C.2   162  COA162      0.3518
      5  C5A        5.3460  -64.2640   35.4910 C.2   162  COA162      0.2526
      6  C6A        5.8410  -65.5290   35.3440 C.2   162  COA162      0.4393
      7  N6A        5.5680  -66.4820   36.2400 N.pl3 162  COA162      0.2180
      8  N7A        4.6310  -63.6760   36.4640 N.2   162  COA162     -0.2095
      9  C8A        4.3910  -62.4050   36.1290 C.3   162  COA162      0.3377
     10  N9A        4.9820  -62.1700   34.9260 N.pl3 162  COA162     -0.1439
     11  C1B        4.3670  -61.3600   33.8940 C.3   162  COA162      0.3185
     12  C2B        3.1520  -60.5770   34.3720 C.3   162  COA162      0.2543
     13  O2B        2.0020  -61.0740   33.7050 O.3   162  COA162     -0.2131
     14  C3B        3.4910  -59.1100   34.1080 C.3   162  COA162      0.1928
     15  O3B        2.8120  -58.4650   33.0790 O.3   162  COA162     -0.2673
     16  P3B        1.4930  -57.5800   33.2740 P.3   162  COA162      0.5327
     17  O7A        0.8800  -58.1430   34.5240 O.3   162  COA162     -0.1145
     18  O8A        1.6820  -56.1020   33.5660 O.3   162  COA162     -0.1145
     19  O9A        0.7630  -57.9250   32.0120 O.2   162  COA162     -0.2224
     20  C4B        4.9060  -59.1430   33.6110 C.3   162  COA162      0.1795
     21  O4B        5.3400  -60.4610   33.4990 O.3   162  COA162     -0.3136
     22  C5B        5.7480  -58.3900   34.5760 C.3   162  COA162      0.1812
     23  O5B        5.3630  -57.0580   34.3120 O.3   162  COA162     -0.3112
     24  P1A        6.0600  -55.8830   35.0740 P.3   162  COA162      0.2189
     25  O1A        5.4870  -54.6240   34.5360 O.2   162  COA162     -0.5170
     26  O2A        5.7850  -56.1100   36.5010 O.3   162  COA162     -0.4371
     27  O3A        7.6070  -56.0310   34.6860 O.3   162  COA162     -0.2703
     28  P2A        8.3240  -55.3270   33.4840 P.3   162  COA162      0.2188
     29  O4A        8.1160  -53.9090   33.6250 O.3   162  COA162     -0.4371
     30  O5A        7.8520  -55.7810   32.1960 O.2   162  COA162     -0.5170
     31  O6A        9.8150  -55.7980   33.8180 O.3   162  COA162     -0.3138
     32  CBP       11.9330  -57.0750   33.6350 C.3   162  COA162      0.0645
     33  CCP       10.4100  -57.0850   33.6550 C.3   162  COA162      0.1519
     34  CDP       12.3890  -56.1060   32.5660 C.3   162  COA162      0.0056
     35  CEP       12.4300  -56.6490   34.9850 C.3   162  COA162      0.0056
     36  CAP       12.5520  -58.4440   33.3680 C.3   162  COA162      0.2312
     37  OAP       11.7630  -59.0920   32.4150 O.3   162  COA162     -0.2131
     38  C9P       14.0350  -58.4580   33.0410 C.2   162  COA162      0.2719
     39  O9P       14.8570  -58.4610   33.8770 O.2   162  COA162     -0.2706
     40  N8P       14.3680  -58.4850   31.7770 N.am  162  COA162     -0.2028
     41  C7P       15.7210  -58.5270   31.3100 C.3   162  COA162      0.1248
     42  C6P       16.2570  -59.9020   31.0390 C.3   162  COA162      0.1102
     43  C5P       16.7500  -60.6490   32.2550 C.2   162  COA162      0.2432
     44  O5P       17.5080  -60.1820   33.0010 O.2   162  COA162     -0.2733
     45  N4P       16.2510  -61.8590   32.4040 N.am  162  COA162     -0.2044
     46  C3P       16.4090  -62.7680   33.5120 C.3   162  COA162      0.1276
     47  C2P       15.8910  -62.2790   34.8550 C.3   162  COA162      0.0920
     48  S1P       16.2590  -63.3690   36.2510 S.3   162  COA162     -0.0802
@<TRIPOS>BOND
     1    42    41    1
     2    42    43    1
     3    41    40    1
     4    40    38   am
     5    19    16    2
     6    30    28    2
     7    43    45   am
     8    43    44    2
     9    45    46    1
    10    37    36    1
    11    34    32    1
    12    38    36    1
    13    38    39    2
    14    15    16    1
    15    15    14    1
    16     2     3    1
    17     2     1    1
    18    16    18    1
    19    16    17    1
    20    36    32    1
    21     3     4    2
    22    28    29    1
    23    28    31    1
    24    28    27    1
    25    21    20    1
    26    21    11    1
    27    46    47    1
    28    20    14    1
    29    20    22    1
    30    32    33    1
    31    32    35    1
    32    33    31    1
    33    13    12    1
    34    11    12    1
    35    11    10    1
    36    14    12    1
    37     1     6    2
    38    23    22    1
    39    23    24    1
    40     4    10    1
    41     4     5    1
    42    25    24    2
    43    27    24    1
    44    47    48    1
    45    10     9    1
    46    24    26    1
    47     6     5    1
    48     6     7    1
    49     5     8    2
    50     9     8    1
