@<TRIPOS>MOLECULE
3pnc_1GC_A_1.pdb
 31 33 0 0 0
SMALL
GASTEIGER

@<TRIPOS>ATOM
      1  N1        -9.0750  -10.9540  -19.0570 N.2     1  1GC1       -0.2485
      2  C2        -9.2040   -9.7410  -19.6980 C.1     1  1GC1        0.2531
      3  N2        -8.3230   -9.4800  -20.6810 N.pl3   1  1GC1       -0.0226
      4  N3       -10.1320   -8.8450  -19.3980 N.2     1  1GC1       -0.3074
      5  C4       -10.9300   -9.2560  -18.3870 C.2     1  1GC1        0.2299
      6  C5       -10.8850  -10.4390  -17.6760 C.2     1  1GC1        0.2182
      7  C6        -9.8950  -11.4000  -18.0110 C.1     1  1GC1        0.2372
      8  O6        -9.7050  -12.5190  -17.5070 O.2     1  1GC1       -0.2069
      9  N7       -11.8890  -10.4730  -16.7140 N.2     1  1GC1       -0.2322
     10  C8       -12.5170   -9.3370  -16.8590 C.3     1  1GC1        0.2245
     11  N9       -11.9980   -8.5580  -17.8690 N.pl3   1  1GC1       -0.2374
     12  PA       -16.0480   -8.0520  -14.4020 P.3     1  1GC1        0.3820
     13  PB       -18.4960   -7.9870  -16.3650 P.3     1  1GC1        0.3895
     14  PG       -20.3960   -8.6680  -14.6780 P.3     1  1GC1        0.5389
     15  C1'      -12.4910   -7.2670  -18.3410 C.3     1  1GC1        0.1981
     16  O1A      -15.3560   -8.9790  -13.4770 O.3     1  1GC1       -0.1392
     17  O1B      -18.2610   -8.2500  -17.8000 O.2     1  1GC1       -0.2544
     18  O1G      -19.6140   -7.7710  -13.7830 O.3     1  1GC1       -0.1143
     19  C2'      -13.7100   -7.4100  -19.2570 C.3     1  1GC1        0.0865
     20  O2A      -16.6630   -6.8090  -13.8410 O.2     1  1GC1       -0.2548
     21  O2B      -18.5390   -6.5680  -15.9030 O.3     1  1GC1       -0.1388
     22  O2G      -20.4630  -10.1180  -14.3570 O.3     1  1GC1       -0.1143
     23  C3'      -14.8610   -7.2740  -18.2760 C.3     1  1GC1        0.1857
     24  O3'      -16.0470   -6.8130  -18.9370 O.3     1  1GC1       -0.2203
     25  C3A      -17.3020   -8.9620  -15.3680 C.3     1  1GC1        0.2357
     26  O3B      -19.8820   -8.5020  -16.0900 O.3     1  1GC1       -0.2026
     27  O3G      -21.7930   -8.1710  -14.7060 O.2     1  1GC1       -0.2220
     28  C4'      -14.3290   -6.2130  -17.3200 C.3     1  1GC1        0.1773
     29  O4'      -12.9130   -6.5080  -17.2100 O.3     1  1GC1       -0.3347
     30  C5'      -14.9640   -6.2210  -15.9470 C.3     1  1GC1        0.1835
     31  O5'      -14.9030   -7.5360  -15.3810 O.3     1  1GC1       -0.2896
@<TRIPOS>BOND
     1     3     2    1
     2     2     4    2
     3     2     1    2
     4     4     5    2
     5    19    15    1
     6    19    23    1
     7     1     7    2
     8    24    23    1
     9     5    11    1
    10     5     6    1
    11    15    11    1
    12    15    29    1
    13    23    28    1
    14     7     6    1
    15     7     8    2
    16    11    10    1
    17    17    13    2
    18     6     9    2
    19    28    29    1
    20    28    30    1
    21    10     9    1
    22    13    26    1
    23    13    21    1
    24    13    25    1
    25    26    14    1
    26    30    31    1
    27    31    12    1
    28    25    12    1
    29    27    14    2
    30    14    22    1
    31    14    18    1
    32    12    20    2
    33    12    16    1
