@<TRIPOS>MOLECULE
3pne_8AX_A_1.pdb
 29 31 0 0 0
SMALL
GASTEIGER

@<TRIPOS>ATOM
      1  N01        5.2560    5.9920   26.6560 N.2   800  8AX800     -0.3922
      2  C02        4.8840    7.1850   27.2060 C.2   800  8AX800      0.2178
      3  N02        5.7050    8.2770   27.1810 N.pl3 800  8AX800     -0.0932
      4  C03        3.6200    7.2920   27.7790 C.2   800  8AX800      0.0427
      5  C04        2.7560    6.1960   27.8060 C.2   800  8AX800     -0.0333
      6  C05        3.1590    4.9750   27.2360 C.3   800  8AX800      0.0766
      7  C06        4.4390    4.8900   26.6650 C.2   800  8AX800      0.0926
      8  C07        1.3930    6.3650   28.4580 C.3   800  8AX800      0.0269
      9  C08        4.9400    3.5850   26.0420 C.3   800  8AX800      0.0587
     10  O09        6.6690    1.4120   25.5780 O.3   800  8AX800     -0.3532
     11  N1'        6.8020    1.5010   28.4720 N.3   800  8AX800     -0.2154
     12  C10        6.6460    0.7280   24.3300 C.3   800  8AX800      0.1609
     13  C11        7.9790    1.0400   23.6390 C.3   800  8AX800      0.1209
     14  N12        9.0920    0.5790   24.4740 N.3   800  8AX800     -0.2094
     15  C13       10.4820    0.8710   24.1690 C.3   800  8AX800      0.1596
     16  C14       10.9840   -0.0530   23.0540 C.3   800  8AX800      0.2984
     17  F15       10.3270    0.2210   21.9240 F     800  8AX800     -0.1980
     18  F16       10.7520   -1.3360   23.3040 F     800  8AX800     -0.1980
     19  C2'        6.1570    2.7830   28.1720 C.3   800  8AX800      0.0916
     20  C21       12.4660    0.2120   22.8710 C.ar  800  8AX800      0.0400
     21  C22       12.8260    1.1280   21.9040 C.ar  800  8AX800      0.0124
     22  C23       14.1670    1.3980   21.7030 C.ar  800  8AX800      0.0575
     23 CL23       14.4960    2.5700   20.3980 Cl    800  8AX800     -0.0823
     24  C24       15.1760    0.7870   22.4550 C.ar  800  8AX800      0.0114
     25  C25       14.8350   -0.1480   23.4340 C.ar  800  8AX800      0.0007
     26  C26       13.4680   -0.4100   23.6260 C.ar  800  8AX800      0.0010
     27  C3'        5.1330    2.4480   27.0720 C.3   800  8AX800      0.0527
     28  C4'        5.6270    1.1070   26.5030 C.3   800  8AX800      0.1343
     29  C5'        6.2770    0.3900   27.6870 C.3   800  8AX800      0.1182
@<TRIPOS>BOND
     1    23    22    1
     2    22    21   ar
     3    22    24   ar
     4    21    20   ar
     5    17    16    1
     6    24    25   ar
     7    20    16    1
     8    20    26   ar
     9    16    18    1
    10    16    15    1
    11    25    26   ar
    12    13    12    1
    13    13    14    1
    14    15    14    1
    15    12    10    1
    16    10    28    1
    17     9     7    1
    18     9    27    1
    19    28    27    1
    20    28    29    1
    21     1     7    2
    22     1     2    2
    23     7     6    1
    24    27    19    1
    25     3     2    1
    26     2     4    1
    27     6     5    1
    28    29    11    1
    29     4     5    2
    30     5     8    1
    31    19    11    1
