@<TRIPOS>MOLECULE
3pne_H4B_A_1.pdb
 17 18 0 0 0
SMALL
GASTEIGER

@<TRIPOS>ATOM
      1  N1         9.9010    2.4960   33.5980 N.2   760  H4B760     -0.2683
      2  C2        10.0330    2.1570   32.3050 C.1   760  H4B760      0.2608
      3  N2        11.2560    1.9940   31.7020 N.pl3 760  H4B760     -0.0220
      4  N3         8.9220    1.9670   31.5550 N.2   760  H4B760     -0.2474
      5  C4         7.6850    2.0870   32.0480 C.1   760  H4B760      0.2441
      6  O4         6.7400    1.8530   31.2590 O.2   760  H4B760     -0.2063
      7  C4A        7.5130    2.4690   33.3730 C.2   760  H4B760      0.2463
      8  C8A        8.6630    2.6720   34.1440 C.1   760  H4B760      0.1270
      9  N5         6.2750    2.6180   33.9330 N.2   760  H4B760     -0.2460
     10  N8         8.5640    3.0420   35.4460 N.2   760  H4B760     -0.2054
     11  C6         6.1760    3.5140   35.0820 C.3   760  H4B760      0.1627
     12  C7         7.2530    3.1840   36.1110 C.3   760  H4B760      0.1643
     13  C9         4.7680    3.5720   35.6970 C.3   760  H4B760      0.2063
     14  O9         4.3790    2.2540   36.0890 O.3   760  H4B760     -0.2183
     15  C10        4.7050    4.4770   36.9120 C.3   760  H4B760      0.1842
     16  C11        3.2650    4.7200   37.3430 C.3   760  H4B760      0.0383
     17  O10        5.2660    5.7650   36.5970 O.3   760  H4B760     -0.2204
@<TRIPOS>BOND
     1     6     5    2
     2     4     5    2
     3     4     2    2
     4     3     2    1
     5     5     7    1
     6     2     1    2
     7     7     9    2
     8     7     8    1
     9     1     8    2
    10     9    11    1
    11     8    10    2
    12    11    13    1
    13    11    12    1
    14    10    12    1
    15    13    14    1
    16    13    15    1
    17    17    15    1
    18    15    16    1
