@<TRIPOS>MOLECULE
3pne_HEM_A_1.pdb
 43 50 0 0 0
SMALL
GASTEIGER

@<TRIPOS>ATOM
      1  CHA       13.1320    4.9360   26.5010 C.2   750  HEM750      0.0000
      2  CHB       16.8470    1.8370   26.0690 C.2   750  HEM750      0.0000
      3  CHC       17.8050    3.6460   21.7060 C.2   750  HEM750      0.0000
      4  CHD       14.8950    7.4370   22.6260 C.2   750  HEM750      0.0000
      5  C1A       13.9530    3.8450   26.6750 C.2   750  HEM750      0.0000
      6  C2A       13.7510    2.7610   27.6130 C.2   750  HEM750      0.0000
      7  C3A       14.7640    1.9010   27.4970 C.2   750  HEM750      0.0000
      8  C4A       15.6490    2.4090   26.4520 C.2   750  HEM750      0.0000
      9  CMA       14.9650    0.5860   28.2940 C.3   750  HEM750      0.0000
     10  CAA       12.5380    2.6320   28.5570 C.3   750  HEM750      0.0000
     11  CBA       11.4030    2.3480   27.5910 C.3   750  HEM750      0.0000
     12  CGA       10.3220    1.5200   28.1950 C.2   750  HEM750      0.0000
     13  O1A       10.4590    1.0630   29.3650 O.co2 750  HEM750      0.0000
     14  O2A        9.3120    1.3500   27.4700 O.co2 750  HEM750      0.0000
     15  C1B       17.4290    2.0080   24.8460 C.ar  750  HEM750      0.0000
     16  C2B       18.4810    1.2080   24.2730 C.ar  750  HEM750      0.0000
     17  C3B       18.7400    1.7100   23.0690 C.ar  750  HEM750      0.0000
     18  C4B       17.8830    2.8560   22.8430 C.ar  750  HEM750      0.0000
     19  CMB       19.1550   -0.0340   24.9330 C.3   750  HEM750      0.0000
     20  CAB       19.7880    1.0910   22.1210 C.2   750  HEM750      0.0000
     21  CBB       20.5840    1.7610   21.2980 C.2   750  HEM750      0.0000
     22  C1C       17.0680    4.8220   21.5390 C.2   750  HEM750      0.0000
     23  C2C       17.0440    5.6440   20.3430 C.2   750  HEM750      0.0000
     24  C3C       16.2520    6.6970   20.5900 C.2   750  HEM750      0.0000
     25  C4C       15.7340    6.5700   21.9410 C.2   750  HEM750      0.0000
     26  CMC       17.7950    5.2620   19.0350 C.3   750  HEM750      0.0000
     27  CAC       15.8540    7.8870   19.6860 C.2   750  HEM750      0.0000
     28  CBC       16.3260    8.1000   18.4530 C.2   750  HEM750      0.0000
     29  C1D       14.0310    7.0800   23.6800 C.ar  750  HEM750      0.0000
     30  C2D       12.8460    7.7770   24.1070 C.ar  750  HEM750      0.0000
     31  C3D       12.3270    6.9830   25.3080 C.ar  750  HEM750      0.0000
     32  C4D       13.2480    5.8950   25.5030 C.ar  750  HEM750      0.0000
     33  CMD       12.1700    9.0540   23.5370 C.3   750  HEM750      0.0000
     34  CAD       11.0440    7.2290   26.1250 C.3   750  HEM750      0.0000
     35  CBD        9.9670    6.4590   25.3200 C.3   750  HEM750      0.0000
     36  CGD        8.5740    6.6690   25.8570 C.2   750  HEM750      0.0000
     37  O1D        8.3140    7.7270   26.5190 O.co2 750  HEM750      0.0000
     38  O2D        7.7270    5.7510   25.6490 O.co2 750  HEM750      0.0000
     39  NA        15.1690    3.6490   26.0440 N.2   750  HEM750      0.0000
     40  NB        17.1450    3.0570   23.9950 N.ar  750  HEM750      0.0000
     41  NC        16.2820    5.4450   22.4800 N.2   750  HEM750      0.0000
     42  ND        14.2760    6.0310   24.5870 N.ar  750  HEM750      0.0000
     43 FE         15.7960    4.6060   24.3630 Fe    750  HEM750      0.0000
@<TRIPOS>BOND
     1    28    27    2
     2    26    23    1
     3    27    24    1
     4    23    24    2
     5    23    22    1
     6    24    25    1
     7    21    20    2
     8    22     3    2
     9    22    41    1
    10     3    18    1
    11    25    41    2
    12    25     4    1
    13    20    17    1
    14    41    43    1
    15     4    29    2
    16    18    17   ar
    17    18    40   ar
    18    17    16   ar
    19    33    30    1
    20    29    30   ar
    21    29    42   ar
    22    40    43    1
    23    40    15   ar
    24    30    31   ar
    25    16    15   ar
    26    16    19    1
    27    43    42    1
    28    43    39    1
    29    42    32   ar
    30    15     2    1
    31    31    32   ar
    32    31    34    1
    33    35    36    1
    34    35    34    1
    35    32     1    2
    36    38    36   ar
    37    36    37   ar
    38    39     8    1
    39    39     5    2
    40     2     8    2
    41     8     7    1
    42     1     5    1
    43     5     6    1
    44    14    12   ar
    45     7     6    2
    46     7     9    1
    47    11    12    1
    48    11    10    1
    49     6    10    1
    50    12    13   ar
