@<TRIPOS>MOLECULE
3pnf_H4B_A_1.pdb
 17 18 0 0 0
SMALL
GASTEIGER

@<TRIPOS>ATOM
      1  N1         9.8760    2.5340   33.5930 N.2   760  H4B760     -0.2683
      2  C2        10.0320    2.2080   32.2930 C.1   760  H4B760      0.2608
      3  N2        11.2890    2.1030   31.7460 N.pl3 760  H4B760     -0.0220
      4  N3         8.9420    1.9960   31.5240 N.2   760  H4B760     -0.2474
      5  C4         7.6890    2.0780   32.0430 C.1   760  H4B760      0.2441
      6  O4         6.7380    1.8230   31.2580 O.2   760  H4B760     -0.2063
      7  C4A        7.5160    2.4340   33.3760 C.2   760  H4B760      0.2463
      8  C8A        8.6560    2.6660   34.1530 C.1   760  H4B760      0.1270
      9  N5         6.2880    2.5450   33.9720 N.2   760  H4B760     -0.2460
     10  N8         8.5760    3.0120   35.4720 N.2   760  H4B760     -0.2054
     11  C6         6.2090    3.4060   35.1480 C.3   760  H4B760      0.1627
     12  C7         7.2980    3.1280   36.1800 C.3   760  H4B760      0.1643
     13  C9         4.8010    3.5090   35.7280 C.3   760  H4B760      0.2063
     14  O9         4.3660    2.1910   36.0790 O.3   760  H4B760     -0.2183
     15  C10        4.7480    4.4360   36.9320 C.3   760  H4B760      0.1842
     16  C11        3.3000    4.6630   37.3550 C.3   760  H4B760      0.0383
     17  O10        5.3080    5.6930   36.5240 O.3   760  H4B760     -0.2204
@<TRIPOS>BOND
     1     6     5    2
     2     4     5    2
     3     4     2    2
     4     3     2    1
     5     5     7    1
     6     2     1    2
     7     7     9    2
     8     7     8    1
     9     1     8    2
    10     9    11    1
    11     8    10    2
    12    11    13    1
    13    11    12    1
    14    10    12    1
    15    13    14    1
    16    13    15    1
    17    17    15    1
    18    15    16    1
