@<TRIPOS>MOLECULE
3pnf_HEM_A_1.pdb
 43 50 0 0 0
SMALL
GASTEIGER

@<TRIPOS>ATOM
      1  CHA       13.1360    4.7760   26.4770 C.2   750  HEM750      0.0000
      2  CHB       16.9100    1.7610   26.0180 C.2   750  HEM750      0.0000
      3  CHC       17.8090    3.6330   21.6680 C.2   750  HEM750      0.0000
      4  CHD       14.7720    7.3220   22.6350 C.2   750  HEM750      0.0000
      5  C1A       13.9860    3.7100   26.6110 C.2   750  HEM750      0.0000
      6  C2A       13.7560    2.6110   27.5080 C.2   750  HEM750      0.0000
      7  C3A       14.7830    1.7570   27.4080 C.2   750  HEM750      0.0000
      8  C4A       15.7110    2.3030   26.4110 C.2   750  HEM750      0.0000
      9  CMA       14.9570    0.4400   28.2330 C.3   750  HEM750      0.0000
     10  CAA       12.5100    2.4770   28.4070 C.3   750  HEM750      0.0000
     11  CBA       11.4530    1.9370   27.4390 C.3   750  HEM750      0.0000
     12  CGA       10.2250    1.4650   28.1650 C.2   750  HEM750      0.0000
     13  O1A       10.3130    1.0950   29.3620 O.co2 750  HEM750      0.0000
     14  O2A        9.1570    1.4380   27.5030 O.co2 750  HEM750      0.0000
     15  C1B       17.4570    1.9540   24.7790 C.ar  750  HEM750      0.0000
     16  C2B       18.4880    1.1380   24.1730 C.ar  750  HEM750      0.0000
     17  C3B       18.7420    1.6390   22.9670 C.ar  750  HEM750      0.0000
     18  C4B       17.8970    2.8150   22.7800 C.ar  750  HEM750      0.0000
     19  CMB       19.1060   -0.1180   24.8440 C.3   750  HEM750      0.0000
     20  CAB       19.7630    1.0110   21.9990 C.2   750  HEM750      0.0000
     21  CBB       20.5350    1.7370   21.1860 C.2   750  HEM750      0.0000
     22  C1C       17.0230    4.7710   21.5120 C.2   750  HEM750      0.0000
     23  C2C       16.9710    5.6010   20.3250 C.2   750  HEM750      0.0000
     24  C3C       16.1410    6.6440   20.5820 C.2   750  HEM750      0.0000
     25  C4C       15.6390    6.4920   21.9340 C.2   750  HEM750      0.0000
     26  CMC       17.7430    5.2440   19.0260 C.3   750  HEM750      0.0000
     27  CAC       15.7330    7.8200   19.6710 C.2   750  HEM750      0.0000
     28  CBC       16.3920    8.1100   18.5390 C.2   750  HEM750      0.0000
     29  C1D       13.9750    6.9490   23.7070 C.ar  750  HEM750      0.0000
     30  C2D       12.8210    7.6670   24.1970 C.ar  750  HEM750      0.0000
     31  C3D       12.3400    6.8680   25.3950 C.ar  750  HEM750      0.0000
     32  C4D       13.2300    5.7500   25.5170 C.ar  750  HEM750      0.0000
     33  CMD       12.2070    8.9830   23.6520 C.3   750  HEM750      0.0000
     34  CAD       11.1070    7.1160   26.2610 C.3   750  HEM750      0.0000
     35  CBD       10.0380    6.4290   25.3820 C.3   750  HEM750      0.0000
     36  CGD        8.6530    6.6050   25.9470 C.2   750  HEM750      0.0000
     37  O1D        8.3770    7.6430   26.6240 O.co2 750  HEM750      0.0000
     38  O2D        7.8470    5.6660   25.7310 O.co2 750  HEM750      0.0000
     39  NA        15.2260    3.5400   25.9900 N.2   750  HEM750      0.0000
     40  NB        17.1890    3.0200   23.9450 N.ar  750  HEM750      0.0000
     41  NC        16.2180    5.3700   22.4620 N.2   750  HEM750      0.0000
     42  ND        14.2220    5.8710   24.5610 N.ar  750  HEM750      0.0000
     43 FE         15.7980    4.5190   24.3400 Fe    750  HEM750      0.0000
@<TRIPOS>BOND
     1    28    27    2
     2    26    23    1
     3    27    24    1
     4    23    24    2
     5    23    22    1
     6    24    25    1
     7    21    20    2
     8    22     3    2
     9    22    41    1
    10     3    18    1
    11    25    41    2
    12    25     4    1
    13    20    17    1
    14    41    43    1
    15     4    29    2
    16    18    17   ar
    17    18    40   ar
    18    17    16   ar
    19    33    30    1
    20    29    30   ar
    21    29    42   ar
    22    40    43    1
    23    40    15   ar
    24    16    15   ar
    25    16    19    1
    26    30    31   ar
    27    43    42    1
    28    43    39    1
    29    42    32   ar
    30    15     2    1
    31    35    36    1
    32    35    34    1
    33    31    32   ar
    34    31    34    1
    35    32     1    2
    36    38    36   ar
    37    36    37   ar
    38    39     8    1
    39    39     5    2
    40     2     8    2
    41     8     7    1
    42     1     5    1
    43     5     6    1
    44     7     6    2
    45     7     9    1
    46    11    12    1
    47    11    10    1
    48    14    12   ar
    49     6    10    1
    50    12    13   ar
