@<TRIPOS>MOLECULE
3pnf_8BX_A_1.pdb
 29 31 0 0 0
SMALL
GASTEIGER

@<TRIPOS>ATOM
      1  N01        5.3050    6.0350   26.6420 N.2   800  8BX800     -0.3922
      2  C02        4.8910    7.2150   27.2110 C.2   800  8BX800      0.2178
      3  N02        5.6930    8.3280   27.1970 N.pl3 800  8BX800     -0.0932
      4  C03        3.6180    7.2670   27.7970 C.2   800  8BX800      0.0427
      5  C04        2.7890    6.1350   27.8040 C.2   800  8BX800     -0.0333
      6  C05        3.2440    4.9460   27.2200 C.3   800  8BX800      0.0766
      7  C06        4.5260    4.9110   26.6440 C.2   800  8BX800      0.0926
      8  C07        1.4170    6.1940   28.4390 C.3   800  8BX800      0.0269
      9  C08        5.0480    3.6310   25.9990 C.3   800  8BX800      0.0587
     10  O09        6.6680    1.4920   25.3210 O.3   800  8BX800     -0.3532
     11  N1'        6.7480    1.4450   28.4380 N.3   800  8BX800     -0.2154
     12  C10        7.3240    0.3870   24.6860 C.3   800  8BX800      0.1609
     13  C11        8.4190    0.8970   23.7550 C.3   800  8BX800      0.1209
     14  N12        9.7350    0.4200   24.1550 N.3   800  8BX800     -0.2094
     15  C13       10.7540    0.1520   23.1460 C.3   800  8BX800      0.1597
     16  C14       11.7880    1.2910   23.2010 C.3   800  8BX800      0.2992
     17  F15       11.7090    2.0960   22.1540 F     800  8BX800     -0.1980
     18  F16       11.5020    1.9390   24.3300 F     800  8BX800     -0.1980
     19  C2'        6.0900    2.7180   28.1630 C.3   800  8BX800      0.0916
     20  C21       13.2140    0.8110   23.1250 C.ar  800  8BX800      0.0498
     21  C22       14.1470    1.2810   22.1850 C.ar  800  8BX800      0.0588
     22 CL22       13.8570    2.5020   20.9060 Cl    800  8BX800     -0.0824
     23  C23       15.4270    0.7840   22.1850 C.ar  800  8BX800      0.0112
     24  C24       15.8050   -0.1790   23.0990 C.ar  800  8BX800      0.0008
     25  C25       14.9020   -0.6400   24.0130 C.ar  800  8BX800     -0.0001
     26  C26       13.6150   -0.1420   24.0260 C.ar  800  8BX800      0.0018
     27  C3'        5.1580    2.4440   26.9750 C.3   800  8BX800      0.0527
     28  C4'        5.7060    1.1620   26.3420 C.3   800  8BX800      0.1343
     29  C5'        6.3530    0.4020   27.5130 C.3   800  8BX800      0.1182
@<TRIPOS>BOND
     1    22    21    1
     2    17    16    1
     3    21    23   ar
     4    21    20   ar
     5    23    24   ar
     6    24    25   ar
     7    20    16    1
     8    20    26   ar
     9    15    16    1
    10    15    14    1
    11    16    18    1
    12    13    14    1
    13    13    12    1
    14    25    26   ar
    15    12    10    1
    16    10    28    1
    17     9     7    1
    18     9    27    1
    19    28    27    1
    20    28    29    1
    21     1     7    2
    22     1     2    2
    23     7     6    1
    24    27    19    1
    25     3     2    1
    26     2     4    1
    27     6     5    1
    28    29    11    1
    29     4     5    2
    30     5     8    1
    31    19    11    1
