@<TRIPOS>MOLECULE
3png_H4B_A_1.pdb
 17 18 0 0 0
SMALL
GASTEIGER

@<TRIPOS>ATOM
      1  N1         9.9150    2.5270   33.5430 N.2   760  H4B760     -0.2683
      2  C2        10.0870    2.1890   32.2420 C.1   760  H4B760      0.2608
      3  N2        11.3840    2.1200   31.6980 N.pl3 760  H4B760     -0.0220
      4  N3         8.9840    1.9420   31.4850 N.2   760  H4B760     -0.2474
      5  C4         7.7260    2.0320   31.9710 C.1   760  H4B760      0.2441
      6  O4         6.7600    1.7120   31.2010 O.2   760  H4B760     -0.2063
      7  C4A        7.5290    2.4010   33.3050 C.2   760  H4B760      0.2463
      8  C8A        8.6380    2.6450   34.0690 C.1   760  H4B760      0.1270
      9  N5         6.2600    2.4980   33.9190 N.2   760  H4B760     -0.2460
     10  N8         8.5580    3.0430   35.3580 N.2   760  H4B760     -0.2054
     11  C6         6.2640    3.4310   35.0390 C.3   760  H4B760      0.1627
     12  C7         7.3060    3.1330   36.1000 C.3   760  H4B760      0.1643
     13  C9         4.8880    3.5200   35.6620 C.3   760  H4B760      0.2063
     14  O9         4.5270    2.1860   36.0230 O.3   760  H4B760     -0.2183
     15  C10        4.8320    4.4200   36.8810 C.3   760  H4B760      0.1842
     16  C11        3.3590    4.5440   37.3360 C.3   760  H4B760      0.0383
     17  O10        5.2320    5.7380   36.5160 O.3   760  H4B760     -0.2204
@<TRIPOS>BOND
     1     6     5    2
     2     4     5    2
     3     4     2    2
     4     3     2    1
     5     5     7    1
     6     2     1    2
     7     7     9    2
     8     7     8    1
     9     1     8    2
    10     9    11    1
    11     8    10    2
    12    11    13    1
    13    11    12    1
    14    10    12    1
    15    13    14    1
    16    13    15    1
    17    17    15    1
    18    15    16    1
