@<TRIPOS>MOLECULE
3png_HEM_A_1.pdb
 43 50 0 0 0
SMALL
GASTEIGER

@<TRIPOS>ATOM
      1  CHA       13.1790    4.8470   26.4080 C.2   750  HEM750      0.0000
      2  CHB       16.9770    1.8200   25.9930 C.2   750  HEM750      0.0000
      3  CHC       17.8870    3.6090   21.6110 C.2   750  HEM750      0.0000
      4  CHD       14.8380    7.3750   22.5900 C.2   750  HEM750      0.0000
      5  C1A       14.0650    3.7860   26.5600 C.2   750  HEM750      0.0000
      6  C2A       13.8850    2.7240   27.5040 C.2   750  HEM750      0.0000
      7  C3A       14.8760    1.8550   27.4120 C.2   750  HEM750      0.0000
      8  C4A       15.7740    2.3560   26.3830 C.2   750  HEM750      0.0000
      9  CMA       15.0220    0.5690   28.2630 C.3   750  HEM750      0.0000
     10  CAA       12.6650    2.6100   28.4150 C.3   750  HEM750      0.0000
     11  CBA       11.6770    2.0520   27.4210 C.3   750  HEM750      0.0000
     12  CGA       10.4700    1.5050   28.0970 C.2   750  HEM750      0.0000
     13  O1A       10.5390    1.1570   29.3020 O.co2 750  HEM750      0.0000
     14  O2A        9.4440    1.4460   27.3960 O.co2 750  HEM750      0.0000
     15  C1B       17.5350    1.9990   24.7480 C.ar  750  HEM750      0.0000
     16  C2B       18.5740    1.1710   24.1790 C.ar  750  HEM750      0.0000
     17  C3B       18.8480    1.6510   22.9570 C.ar  750  HEM750      0.0000
     18  C4B       18.0090    2.8180   22.7250 C.ar  750  HEM750      0.0000
     19  CMB       19.1970   -0.0500   24.9020 C.3   750  HEM750      0.0000
     20  CAB       19.8820    1.0290   22.0030 C.2   750  HEM750      0.0000
     21  CBB       20.5820    1.7710   21.1540 C.2   750  HEM750      0.0000
     22  C1C       17.0690    4.7580   21.4910 C.2   750  HEM750      0.0000
     23  C2C       17.0420    5.6040   20.3090 C.2   750  HEM750      0.0000
     24  C3C       16.2330    6.6520   20.5890 C.2   750  HEM750      0.0000
     25  C4C       15.6870    6.4920   21.9330 C.2   750  HEM750      0.0000
     26  CMC       17.8040    5.2870   18.9790 C.3   750  HEM750      0.0000
     27  CAC       15.8350    7.8470   19.6890 C.2   750  HEM750      0.0000
     28  CBC       16.4170    8.0470   18.5130 C.2   750  HEM750      0.0000
     29  C1D       14.0330    7.0210   23.6600 C.ar  750  HEM750      0.0000
     30  C2D       12.8820    7.7320   24.0840 C.ar  750  HEM750      0.0000
     31  C3D       12.3600    6.9320   25.2740 C.ar  750  HEM750      0.0000
     32  C4D       13.2600    5.8190   25.4330 C.ar  750  HEM750      0.0000
     33  CMD       12.3380    9.0400   23.4250 C.3   750  HEM750      0.0000
     34  CAD       11.1170    7.2160   26.1020 C.3   750  HEM750      0.0000
     35  CBD       10.0300    6.5850   25.2270 C.3   750  HEM750      0.0000
     36  CGD        8.6530    6.7290   25.8290 C.2   750  HEM750      0.0000
     37  O1D        8.3640    7.7810   26.4740 O.co2 750  HEM750      0.0000
     38  O2D        7.8790    5.7610   25.6630 O.co2 750  HEM750      0.0000
     39  NA        15.2840    3.5740   25.9560 N.2   750  HEM750      0.0000
     40  NB        17.2810    3.0490   23.8760 N.ar  750  HEM750      0.0000
     41  NC        16.2720    5.3740   22.4740 N.2   750  HEM750      0.0000
     42  ND        14.2730    5.9480   24.5080 N.ar  750  HEM750      0.0000
     43 FE         15.9030    4.5820   24.2460 Fe    750  HEM750      0.0000
@<TRIPOS>BOND
     1    28    27    2
     2    26    23    1
     3    27    24    1
     4    23    24    2
     5    23    22    1
     6    24    25    1
     7    21    20    2
     8    22     3    2
     9    22    41    1
    10     3    18    1
    11    25    41    2
    12    25     4    1
    13    20    17    1
    14    41    43    1
    15     4    29    2
    16    18    17   ar
    17    18    40   ar
    18    17    16   ar
    19    33    30    1
    20    29    30   ar
    21    29    42   ar
    22    40    43    1
    23    40    15   ar
    24    30    31   ar
    25    16    15   ar
    26    16    19    1
    27    43    42    1
    28    43    39    1
    29    42    32   ar
    30    15     2    1
    31    35    36    1
    32    35    34    1
    33    31    32   ar
    34    31    34    1
    35    32     1    2
    36    38    36   ar
    37    36    37   ar
    38    39     8    1
    39    39     5    2
    40     2     8    2
    41     8     7    1
    42     1     5    1
    43     5     6    1
    44    14    12   ar
    45     7     6    2
    46     7     9    1
    47    11    12    1
    48    11    10    1
    49     6    10    1
    50    12    13   ar
