@<TRIPOS>MOLECULE
3png_8CX_A_1.pdb
 28 30 0 0 0
SMALL
GASTEIGER

@<TRIPOS>ATOM
      1  C1         7.1510    0.2760   24.9350 C.3   800  8CX800      0.1609
      2  O1         6.4840    1.4280   25.4520 O.3   800  8CX800     -0.3532
      3  C2         8.1500    0.7580   23.8770 C.3   800  8CX800      0.1208
      4  N2         9.4500    1.0330   24.4740 N.3   800  8CX800     -0.2121
      5  C3        10.6100    0.7950   23.6680 C.3   800  8CX800      0.1285
      6  C4        11.8090    1.5490   24.2090 C.3   800  8CX800      0.2006
      7  F5        11.6570    2.9290   24.2450 F     800  8CX800     -0.2309
      8  N1'        6.9230    1.7080   28.4920 N.3   800  8CX800     -0.2154
      9  C11       12.9900    1.2720   23.3730 C.ar  800  8CX800      0.0135
     10  C12       13.1030    1.9800   22.1820 C.ar  800  8CX800      0.0280
     11  C13       14.2120    1.7650   21.4000 C.ar  800  8CX800      0.1399
     12  F13       14.2940    2.4460   20.2450 F     800  8CX800     -0.2042
     13  C14       15.1930    0.8610   21.8150 C.ar  800  8CX800      0.0296
     14  C15       15.0750    0.1440   23.0050 C.ar  800  8CX800      0.0021
     15  C16       13.9630    0.3570   23.7880 C.ar  800  8CX800     -0.0015
     16  N1A        5.2450    5.8740   26.6430 N.2   800  8CX800     -0.3922
     17  C2'        6.4550    0.5580   27.7620 C.3   800  8CX800      0.1182
     18  C2A        4.3920    4.8150   26.6490 C.2   800  8CX800      0.0926
     19  C3'        5.6570    1.1630   26.6010 C.3   800  8CX800      0.1343
     20  C3A        3.0900    4.8900   27.1950 C.3   800  8CX800      0.0766
     21  C4'        5.1580    2.5030   27.1330 C.3   800  8CX800      0.0527
     22  C4A        2.7420    6.1230   27.7620 C.2   800  8CX800     -0.0333
     23  C5'        6.1770    2.9340   28.1890 C.3   800  8CX800      0.0916
     24  C5A        3.6830    7.2000   27.7480 C.2   800  8CX800      0.0427
     25  C6A        4.9360    7.0870   27.1770 C.2   800  8CX800      0.2178
     26  N6A        5.8760    8.1360   27.1550 N.pl3 800  8CX800     -0.0932
     27  C7A        4.9080    3.5360   26.0270 C.3   800  8CX800      0.0587
     28  C8A        1.3500    6.2880   28.3640 C.3   800  8CX800      0.0269
@<TRIPOS>BOND
     1    12    11    1
     2    11    13   ar
     3    11    10   ar
     4    13    14   ar
     5    10     9   ar
     6    14    15   ar
     7     9    15   ar
     8     9     6    1
     9     5     6    1
    10     5     4    1
    11     3     4    1
    12     3     1    1
    13     6     7    1
    14     1     2    1
    15     2    19    1
    16    27    18    1
    17    27    21    1
    18    19    21    1
    19    19    17    1
    20    16    18    2
    21    16    25    2
    22    18    20    1
    23    21    23    1
    24    26    25    1
    25    25    24    1
    26    20    22    1
    27    24    22    2
    28    17     8    1
    29    22    28    1
    30    23     8    1
