@<TRIPOS>MOLECULE
3pnh_H4B_A_1.pdb
 17 18 0 0 0
SMALL
GASTEIGER

@<TRIPOS>ATOM
      1  N1         8.4990   11.7800   42.8460 N.2   600  H4B600     -0.2683
      2  C2         8.4490   12.0920   41.5550 C.1   600  H4B600      0.2608
      3  N2         7.5840   11.4380   40.7330 N.pl3 600  H4B600     -0.0220
      4  N3         9.2170   13.1120   41.1060 N.2   600  H4B600     -0.2474
      5  C4        10.1190   13.7740   41.8800 C.1   600  H4B600      0.2441
      6  O4        10.7900   14.7240   41.3630 O.2   600  H4B600     -0.2063
      7  C4A       10.1750   13.4480   43.2150 C.2   600  H4B600      0.2463
      8  C8A        9.3470   12.4270   43.6740 C.1   600  H4B600      0.1270
      9  N5        11.0150   14.0480   44.0980 N.2   600  H4B600     -0.2460
     10  N8         9.3820   12.0270   44.9610 N.2   600  H4B600     -0.2054
     11  C6        11.4680   13.2150   45.2170 C.3   600  H4B600      0.1627
     12  C7        10.2490   12.6480   45.9590 C.3   600  H4B600      0.1643
     13  C9        12.3740   14.0110   46.1670 C.3   600  H4B600      0.2063
     14  O9        11.8130   15.3000   46.5070 O.3   600  H4B600     -0.2183
     15  C10       12.7290   13.2340   47.4380 C.3   600  H4B600      0.1842
     16  C11       13.6830   14.0210   48.3480 C.3   600  H4B600      0.0383
     17  O10       13.3380   11.9820   47.0830 O.3   600  H4B600     -0.2204
@<TRIPOS>BOND
     1     3     2    1
     2     4     2    2
     3     4     5    2
     4     6     5    2
     5     2     1    2
     6     5     7    1
     7     1     8    2
     8     7     8    1
     9     7     9    2
    10     8    10    2
    11     9    11    1
    12    10    12    1
    13    11    12    1
    14    11    13    1
    15    13    14    1
    16    13    15    1
    17    17    15    1
    18    15    16    1
