@<TRIPOS>MOLECULE
3pnh_8CX_A_1.pdb
 28 30 0 0 0
SMALL
GASTEIGER

@<TRIPOS>ATOM
      1  C1        11.0280   16.4910   34.9550 C.3   800  8CX800      0.1609
      2  O1        11.9470   15.7980   35.8130 O.3   800  8CX800     -0.3532
      3  C2        10.7810   15.6230   33.7420 C.3   800  8CX800      0.1208
      4  N2         9.8150   14.5720   34.0020 N.3   800  8CX800     -0.2121
      5  C3         8.9450   14.2520   32.8800 C.3   800  8CX800      0.1285
      6  C4         8.6710   12.7760   33.0570 C.3   800  8CX800      0.2006
      7  F5         9.8890   12.1110   33.1550 F     800  8CX800     -0.2309
      8  N1'       11.4010   15.2870   38.5910 N.3   800  8CX800     -0.2154
      9  C11        7.7930   12.1470   32.0340 C.ar  800  8CX800      0.0135
     10  C12        8.3710   11.4940   30.9370 C.ar  800  8CX800      0.0280
     11  C13        7.5720   10.8590   29.9950 C.ar  800  8CX800      0.1399
     12  F13        8.1330   10.2450   28.9310 F     800  8CX800     -0.2042
     13  C14        6.1970   10.8860   30.1650 C.ar  800  8CX800      0.0296
     14  C15        5.6090   11.5350   31.2670 C.ar  800  8CX800      0.0021
     15  C16        6.4100   12.1610   32.2080 C.ar  800  8CX800     -0.0015
     16  N1A       15.6590   13.1570   37.3020 N.2   800  8CX800     -0.3922
     17  C2'       11.2770   16.6120   38.0090 C.3   800  8CX800      0.1182
     18  C2A       15.6340   14.5310   37.2540 C.2   800  8CX800      0.0926
     19  C3'       12.3760   16.5840   36.9410 C.3   800  8CX800      0.1343
     20  C3A       16.6210   15.2840   37.9140 C.3   800  8CX800      0.0766
     21  C4'       13.5110   15.7850   37.5730 C.3   800  8CX800      0.0527
     22  C4A       17.6260   14.5840   38.5990 C.2   800  8CX800     -0.0333
     23  C5'       12.7480   14.6940   38.3600 C.3   800  8CX800      0.0916
     24  C5A       17.6330   13.1840   38.6340 C.2   800  8CX800      0.0427
     25  C6A       16.6410   12.4680   37.9510 C.2   800  8CX800      0.2178
     26  N6A       16.6430   11.1060   37.9630 N.pl3 800  8CX800     -0.0932
     27  C7A       14.5100   15.2500   36.5250 C.3   800  8CX800      0.0587
     28  C8A       18.7120   15.3380   39.3070 C.3   800  8CX800      0.0269
@<TRIPOS>BOND
     1    12    11    1
     2    11    13   ar
     3    11    10   ar
     4    13    14   ar
     5    10     9   ar
     6    14    15   ar
     7     9    15   ar
     8     9     6    1
     9     5     6    1
    10     5     4    1
    11     6     7    1
    12     3     4    1
    13     3     1    1
    14     1     2    1
    15     2    19    1
    16    27    18    1
    17    27    21    1
    18    19    21    1
    19    19    17    1
    20    18    16    2
    21    18    20    1
    22    16    25    2
    23    21    23    1
    24    20    22    1
    25    25    26    1
    26    25    24    1
    27    17     8    1
    28    23     8    1
    29    22    24    2
    30    22    28    1
