@<TRIPOS>MOLECULE
3pnh_HEM_A_1.pdb
 43 50 0 0 0
SMALL
GASTEIGER

@<TRIPOS>ATOM
      1  CHA        9.2020    8.9200   35.1930 C.2   500  HEM500      0.0000
      2  CHB        4.5630    8.7760   33.7960 C.2   500  HEM500      0.0000
      3  CHC        6.0090    7.2610   29.4280 C.2   500  HEM500      0.0000
      4  CHD       10.3960    6.3570   31.2100 C.2   500  HEM500      0.0000
      5  C1A        7.8330    9.1780   35.1360 C.2   500  HEM500      0.0000
      6  C2A        7.0720   10.0140   36.0310 C.2   500  HEM500      0.0000
      7  C3A        5.7800    9.9790   35.6500 C.2   500  HEM500      0.0000
      8  C4A        5.6980    9.1160   34.4900 C.2   500  HEM500      0.0000
      9  CMA        4.6100   10.7270   36.3390 C.3   500  HEM500      0.0000
     10  CAA        7.6690   10.8400   37.1920 C.3   500  HEM500      0.0000
     11  CBA        8.2790   12.0830   36.5140 C.3   500  HEM500      0.0000
     12  CGA        8.8920   13.0880   37.4520 C.2   500  HEM500      0.0000
     13  O1A        8.3360   13.3030   38.5600 O.co2 500  HEM500      0.0000
     14  O2A        9.9390   13.6980   37.0780 O.co2 500  HEM500      0.0000
     15  C1B        4.5410    8.4080   32.4760 C.ar  500  HEM500      0.0000
     16  C2B        3.3790    8.3910   31.6020 C.ar  500  HEM500      0.0000
     17  C3B        3.7830    7.9530   30.3960 C.ar  500  HEM500      0.0000
     18  C4B        5.2170    7.6690   30.4800 C.ar  500  HEM500      0.0000
     19  CMB        1.9400    8.8320   31.9920 C.3   500  HEM500      0.0000
     20  CAB        2.8700    7.8070   29.1480 C.2   500  HEM500      0.0000
     21  CBB        3.0070    6.8240   28.2240 C.2   500  HEM500      0.0000
     22  C1C        7.3580    6.9810   29.5200 C.2   500  HEM500      0.0000
     23  C2C        8.2010    6.5770   28.4130 C.2   500  HEM500      0.0000
     24  C3C        9.4330    6.2930   28.9040 C.2   500  HEM500      0.0000
     25  C4C        9.3900    6.5560   30.3240 C.2   500  HEM500      0.0000
     26  CMC        7.7640    6.4960   26.9430 C.3   500  HEM500      0.0000
     27  CAC       10.7030    5.8270   28.1470 C.2   500  HEM500      0.0000
     28  CBC       10.6310    5.0370   27.0650 C.2   500  HEM500      0.0000
     29  C1D       10.4990    7.0160   32.4110 C.ar  500  HEM500      0.0000
     30  C2D       11.7300    7.2130   33.1290 C.ar  500  HEM500      0.0000
     31  C3D       11.3610    8.0220   34.3470 C.ar  500  HEM500      0.0000
     32  C4D        9.9290    8.2310   34.2520 C.ar  500  HEM500      0.0000
     33  CMD       13.1670    6.7470   32.7610 C.3   500  HEM500      0.0000
     34  CAD       12.3420    8.5250   35.4330 C.3   500  HEM500      0.0000
     35  CBD       12.7020    9.9690   35.0320 C.3   500  HEM500      0.0000
     36  CGD       13.7440   10.6040   35.9390 C.2   500  HEM500      0.0000
     37  O1D       14.4340    9.8400   36.6570 O.co2 500  HEM500      0.0000
     38  O2D       13.8630   11.8740   35.9480 O.co2 500  HEM500      0.0000
     39  NA         6.9710    8.5970   34.2310 N.2   500  HEM500      0.0000
     40  NB         5.6140    7.8620   31.7960 N.ar  500  HEM500      0.0000
     41  NC         8.0960    6.8810   30.6990 N.2   500  HEM500      0.0000
     42  ND         9.4620    7.5690   33.1160 N.ar  500  HEM500      0.0000
     43 FE          7.5190    7.5710   32.5200 Fe    500  HEM500      0.0000
@<TRIPOS>BOND
     1    26    23    1
     2    28    27    2
     3    27    24    1
     4    21    20    2
     5    23    24    2
     6    23    22    1
     7    24    25    1
     8    20    17    1
     9     3    22    2
    10     3    18    1
    11    22    41    1
    12    25    41    2
    13    25     4    1
    14    17    18   ar
    15    17    16   ar
    16    18    40   ar
    17    41    43    1
    18     4    29    2
    19    16    19    1
    20    16    15   ar
    21    40    15   ar
    22    40    43    1
    23    29    42   ar
    24    29    30   ar
    25    15     2    1
    26    43    42    1
    27    43    39    1
    28    33    30    1
    29    42    32   ar
    30    30    31   ar
    31     2     8    2
    32    39     8    1
    33    39     5    2
    34    32    31   ar
    35    32     1    2
    36    31    34    1
    37     8     7    1
    38    35    34    1
    39    35    36    1
    40     5     1    1
    41     5     6    1
    42     7     6    2
    43     7     9    1
    44    36    38   ar
    45    36    37   ar
    46     6    10    1
    47    11    10    1
    48    11    12    1
    49    14    12   ar
    50    12    13   ar
