@<TRIPOS>MOLECULE
3pnl_ADP_B_1.pdb
 27 29 0 0 0
SMALL
GASTEIGER

@<TRIPOS>ATOM
      1  PB         5.5520   -5.5490  -23.5620 P.3   1211  ADP1211     0.5373
      2  O1B        4.4540   -5.1710  -22.5890 O.3   1211  ADP1211    -0.1143
      3  O2B        6.6800   -4.5550  -23.6550 O.2   1211  ADP1211    -0.2221
      4  O3B        6.0990   -6.9350  -23.3580 O.3   1211  ADP1211    -0.1143
      5  PA         3.3320   -6.0850  -25.3820 P.3   1211  ADP1211     0.2231
      6  O1A        2.6610   -6.6090  -24.1580 O.3   1211  ADP1211    -0.4370
      7  O2A        2.6230   -5.0930  -26.2270 O.2   1211  ADP1211    -0.5169
      8  O3A        4.7830   -5.4390  -25.0130 O.3   1211  ADP1211    -0.2261
      9  O5'        3.7910   -7.3210  -26.3140 O.3   1211  ADP1211    -0.3111
     10  C5'        4.1060   -8.6540  -25.8780 C.3   1211  ADP1211     0.1813
     11  C4'        4.3440   -9.5180  -27.1210 C.3   1211  ADP1211     0.1821
     12  O4'        5.5180   -9.0740  -27.8170 O.3   1211  ADP1211    -0.3135
     13  C3'        4.6820  -10.9490  -26.8580 C.3   1211  ADP1211     0.2184
     14  O3'        3.5180  -11.6890  -26.6220 O.3   1211  ADP1211    -0.2174
     15  C2'        5.4670  -11.4230  -28.0620 C.3   1211  ADP1211     0.2570
     16  O2'        4.6880  -12.0120  -29.0980 O.3   1211  ADP1211    -0.2130
     17  C1'        6.0170  -10.1350  -28.6220 C.3   1211  ADP1211     0.3186
     18  N9         7.4830  -10.1610  -28.4460 N.pl3 1211  ADP1211    -0.1439
     19  C8         8.1440   -9.8350  -27.3130 C.3   1211  ADP1211     0.3377
     20  N7         9.4720   -9.9310  -27.4930 N.2   1211  ADP1211    -0.2095
     21  C5         9.6590  -10.3330  -28.7770 C.2   1211  ADP1211     0.2526
     22  C6        10.8310  -10.6290  -29.6300 C.2   1211  ADP1211     0.4393
     23  N6        12.0860  -10.5340  -29.1140 N.pl3 1211  ADP1211     0.2180
     24  N1        10.5770  -10.9950  -30.9170 N.2   1211  ADP1211     0.0021
     25  C2         9.3240  -11.1250  -31.4300 C.3   1211  ADP1211     0.5254
     26  N3         8.2130  -10.8570  -30.7080 N.2   1211  ADP1211    -0.0055
     27  C4         8.3380  -10.4730  -29.4080 C.2   1211  ADP1211     0.3518
@<TRIPOS>BOND
     1    25    24    1
     2    25    26    1
     3    24    22    2
     4    26    27    2
     5    22    23    1
     6    22    21    1
     7    27    21    1
     8    27    18    1
     9    16    15    1
    10    21    20    2
    11    17    18    1
    12    17    15    1
    13    17    12    1
    14    18    19    1
    15    15    13    1
    16    12    11    1
    17    20    19    1
    18    11    13    1
    19    11    10    1
    20    13    14    1
    21     9    10    1
    22     9     5    1
    23     7     5    2
    24     5     8    1
    25     5     6    1
    26     8     1    1
    27     3     1    2
    28     1     4    1
    29     1     2    1
