@<TRIPOS>MOLECULE
3po1_MKY_C_1.pdb
 20 21 0 0 0
SMALL
GASTEIGER

@<TRIPOS>ATOM
      1  C1        19.8380  -12.0960   20.0850 C.3     1  MKY1        0.0513
      2  C2        18.5770  -12.2900   20.9350 C.3     1  MKY1        0.2086
      3  O3        17.5090  -11.4390   20.4140 O.3     1  MKY1       -0.4473
      4  C4        16.2900  -11.6030   20.9340 C.2     1  MKY1        0.3376
      5  O5        16.1190  -12.2710   21.9490 O.2     1  MKY1       -0.2482
      6  C6        15.1420  -10.9060   20.2340 C.3     1  MKY1        0.2050
      7  O7        10.7270   -8.9010   24.5660 O.3     1  MKY1       -0.2866
      8  C8        11.5110   -9.4980   23.6190 C.ar    1  MKY1        0.1963
      9  C9        12.5050   -8.7710   22.9760 C.ar    1  MKY1        0.0433
     10  C10       13.3250   -9.3340   22.0150 C.ar    1  MKY1        0.0184
     11  C11       13.1300  -10.6840   21.6570 C.ar    1  MKY1        0.0574
     12  N12       13.8930  -11.4370   20.7890 N.pl3   1  MKY1       -0.2564
     13  C13       13.6690  -12.7590   20.6360 C.3     1  MKY1        0.3123
     14  N14       14.4340  -13.5860   19.9390 N.pl3   1  MKY1       -0.0564
     15  C15       14.2020  -14.9010   19.9260 C.cat   1  MKY1        0.5369
     16  N16       13.7690  -15.4820   21.1080 N.pl3   1  MKY1        0.1355
     17  N17       14.4830  -15.6550   18.8070 N.pl3   1  MKY1        0.1355
     18  S18       12.2280  -13.0550   21.6500 S.3     1  MKY1       -0.0495
     19  C19       12.1350  -11.4050   22.3370 C.ar    1  MKY1        0.0465
     20  C20       11.3210  -10.8380   23.2880 C.ar    1  MKY1        0.0496
@<TRIPOS>BOND
     1    17    15    1
     2    15    14    2
     3    15    16    1
     4    14    13    1
     5     1     2    1
     6     6    12    1
     7     6     4    1
     8     3     4    1
     9     3     2    1
    10    13    12    1
    11    13    18    1
    12    12    11    1
    13     4     5    2
    14    18    19    1
    15    11    10   ar
    16    11    19   ar
    17    10     9   ar
    18    19    20   ar
    19     9     8   ar
    20    20     8   ar
    21     8     7    1
