@<TRIPOS>MOLECULE
3po4_DDS_A_1.pdb
 29 31 0 0 0
SMALL
GASTEIGER

@<TRIPOS>ATOM
      1  N1        20.9160  -18.8810   -2.6040 N.2   835  DDS835      0.0021
      2  C2        20.8110  -20.1510   -3.0270 C.3   835  DDS835      0.5254
      3  N3        20.9710  -20.4590   -4.3170 N.2   835  DDS835     -0.0055
      4  C4        21.2310  -19.4970   -5.2210 C.2   835  DDS835      0.3518
      5  C5        21.3500  -18.1690   -4.8170 C.2   835  DDS835      0.2526
      6  C6        21.1770  -17.8800   -3.4670 C.2   835  DDS835      0.4393
      7  N6        21.2830  -16.5060   -3.0040 N.pl3 835  DDS835      0.2180
      8  N7        21.6130  -17.4350   -5.9230 N.2   835  DDS835     -0.2095
      9  C8        21.6750  -18.2690   -6.9750 C.3   835  DDS835      0.3377
     10  N9        21.4420  -19.5190   -6.5440 N.pl3 835  DDS835     -0.1461
     11  PA        20.4420  -17.0550  -10.6260 P.3   835  DDS835      0.2189
     12  PB        17.7470  -17.3680  -11.4110 P.3   835  DDS835      0.2277
     13  PG        17.4580  -14.7380  -12.0910 P.3   835  DDS835      0.5373
     14  C1'       21.4140  -20.7530   -7.3580 C.3   835  DDS835      0.2847
     15  O1A       20.8290  -15.7510   -9.9940 O.3   835  DDS835     -0.4371
     16  O1B       16.7710  -18.4280  -10.9370 O.3   835  DDS835     -0.4368
     17  O1G       17.3340  -13.5660  -11.1380 O.3   835  DDS835     -0.1143
     18  C2'       20.0260  -21.1240   -7.7670 C.3   835  DDS835      0.0823
     19  O2A       20.7510  -17.0400  -12.1010 O.2   835  DDS835     -0.5170
     20  O2B       18.2360  -17.6290  -12.8250 O.2   835  DDS835     -0.5168
     21  O2G       16.5200  -14.4960  -13.2440 O.2   835  DDS835     -0.2221
     22  C3'       19.8920  -20.6320   -9.1420 C.3   835  DDS835      0.0392
     23  O3A       18.9010  -17.2870  -10.3170 O.3   835  DDS835     -0.2700
     24  O3B       16.9830  -15.9900  -11.2880 O.3   835  DDS835     -0.2258
     25  O3G       18.8910  -14.8980  -12.5390 O.3   835  DDS835     -0.1143
     26  C4'       21.2670  -20.5920   -9.6780 C.3   835  DDS835      0.1493
     27  O4'       22.1760  -20.6340   -8.5190 O.3   835  DDS835     -0.3183
     28  C5'       21.4800  -19.4200  -10.4550 C.3   835  DDS835      0.1786
     29  O5'       21.2770  -18.1680   -9.8690 O.3   835  DDS835     -0.3113
@<TRIPOS>BOND
     1    21    13    2
     2    20    12    2
     3    25    13    1
     4    19    11    2
     5    13    24    1
     6    13    17    1
     7    12    24    1
     8    12    16    1
     9    12    23    1
    10    11    23    1
    11    11    15    1
    12    11    29    1
    13    28    29    1
    14    28    26    1
    15    26    22    1
    16    26    27    1
    17    22    18    1
    18    27    14    1
    19    18    14    1
    20    14    10    1
    21     9    10    1
    22     9     8    1
    23    10     4    1
    24     8     5    2
    25     4     5    1
    26     4     3    2
    27     5     6    1
    28     3     2    1
    29     6     7    1
    30     6     1    2
    31     2     1    1
