@<TRIPOS>MOLECULE
3po5_DDS_A_1.pdb
 29 31 0 0 0
SMALL
GASTEIGER

@<TRIPOS>ATOM
      1  N1        19.5430  -16.3710   -2.4910 N.2   835  DDS835      0.0021
      2  C2        19.3150  -17.6200   -2.9360 C.3   835  DDS835      0.5254
      3  N3        19.3790  -17.9250   -4.2440 N.2   835  DDS835     -0.0055
      4  C4        19.6770  -16.9810   -5.1630 C.2   835  DDS835      0.3518
      5  C5        19.9150  -15.6700   -4.7280 C.2   835  DDS835      0.2526
      6  C6        19.8420  -15.3790   -3.3560 C.2   835  DDS835      0.4393
      7  N6        20.0840  -14.0530   -2.8820 N.pl3 835  DDS835      0.2180
      8  N7        20.1850  -14.9310   -5.8230 N.2   835  DDS835     -0.2095
      9  C8        20.1180  -15.7360   -6.8980 C.3   835  DDS835      0.3377
     10  N9        19.8070  -16.9880   -6.5130 N.pl3 835  DDS835     -0.1461
     11  PA        18.7930  -13.7980  -10.4350 P.3   835  DDS835      0.2189
     12  PB        16.1810  -14.0170  -11.4430 P.3   835  DDS835      0.2277
     13  PG        15.9490  -11.2830  -11.7170 P.3   835  DDS835      0.5373
     14  C1'       19.6480  -18.1490   -7.4170 C.3   835  DDS835      0.2847
     15  O1A       19.3760  -13.1890   -9.1750 O.3   835  DDS835     -0.4371
     16  O1B       15.3020  -15.1640  -10.9880 O.3   835  DDS835     -0.4368
     17  O1G       16.8280  -10.9720  -10.5310 O.3   835  DDS835     -0.1143
     18  C2'       18.2370  -18.5570   -7.7150 C.3   835  DDS835      0.0823
     19  O2A       19.2150  -13.0060  -11.6470 O.2   835  DDS835     -0.5170
     20  O2B       16.8300  -14.2990  -12.7760 O.2   835  DDS835     -0.5168
     21  O2G       14.8280  -10.2690  -11.7130 O.3   835  DDS835     -0.1143
     22  C3'       18.0350  -18.3710   -9.1610 C.3   835  DDS835      0.0392
     23  O3A       17.2260  -13.8260  -10.2460 O.3   835  DDS835     -0.2700
     24  O3B       15.2960  -12.7070  -11.4990 O.3   835  DDS835     -0.2258
     25  O3G       16.7430  -11.2230  -12.9930 O.2   835  DDS835     -0.2221
     26  C4'       19.1930  -17.5810   -9.6150 C.3   835  DDS835      0.1493
     27  O4'       20.2610  -17.8460   -8.6370 O.3   835  DDS835     -0.3183
     28  C5'       18.8700  -16.1960   -9.5420 C.3   835  DDS835      0.1786
     29  O5'       19.2730  -15.2980  -10.5270 O.3   835  DDS835     -0.3113
@<TRIPOS>BOND
     1    25    13    2
     2    20    12    2
     3    13    21    1
     4    13    24    1
     5    13    17    1
     6    19    11    2
     7    24    12    1
     8    12    16    1
     9    12    23    1
    10    29    11    1
    11    29    28    1
    12    11    23    1
    13    11    15    1
    14    26    28    1
    15    26    22    1
    16    26    27    1
    17    22    18    1
    18    27    14    1
    19    18    14    1
    20    14    10    1
    21     9    10    1
    22     9     8    1
    23    10     4    1
    24     8     5    2
    25     4     5    1
    26     4     3    2
    27     5     6    1
    28     3     2    1
    29     6     7    1
    30     6     1    2
    31     2     1    1
