@<TRIPOS>MOLECULE
3po6_RDT_A_1.pdb
 19 20 0 0 0
SMALL
GASTEIGER

@<TRIPOS>ATOM
      1  CAA       16.1140   -3.4070    6.9730 C.3   263  RDT263      0.2526
      2  CAB       14.4920   -5.9630    9.2690 C.3   263  RDT263      0.2526
      3  CAC       12.9490   -3.5710   13.3990 C.3   263  RDT263      0.0240
      4  NAD       10.0260    0.2570   13.7490 N.3   263  RDT263      0.0516
      5  OAE       10.0740   -2.3200   13.9080 O.2   263  RDT263     -0.1383
      6  OAF       11.5210   -0.8120   15.4150 O.2   263  RDT263     -0.1383
      7  CAG       14.3140   -1.3210    9.3200 C.ar  263  RDT263      0.0356
      8  CAH       13.5990   -3.7620   10.3500 C.ar  263  RDT263      0.0368
      9  CAI       13.2010   -0.0610   11.1130 C.3   263  RDT263      0.0454
     10  CAJ       11.9290   -0.2330   11.8900 C.3   263  RDT263      0.1020
     11  OAK       15.4420   -2.2620    7.5040 O.3   263  RDT263     -0.4684
     12  OAL       14.7410   -4.7950    8.4990 O.3   263  RDT263     -0.4684
     13  CAM       13.5700   -1.3860   10.4870 C.ar  263  RDT263     -0.0202
     14  CAN       14.7000   -2.4470    8.6450 C.ar  263  RDT263      0.1721
     15  CAO       14.3400   -3.6810    9.1600 C.ar  263  RDT263      0.1721
     16  CAP       13.2020   -2.6010   11.0270 C.ar  263  RDT263     -0.0068
     17  CAQ       12.3500   -2.6110   12.3450 C.3   263  RDT263      0.1027
     18  NAR       12.1730   -1.2340   12.9230 N.3   263  RDT263     -0.1399
     19  SAS       10.9170   -1.0630   14.0340 S.O2  263  RDT263      0.1329
@<TRIPOS>BOND
     1     1    11    1
     2    11    14    1
     3    12    15    1
     4    12     2    1
     5    14    15   ar
     6    14     7   ar
     7    15     8   ar
     8     7    13   ar
     9     8    16   ar
    10    13    16   ar
    11    13     9    1
    12    16    17    1
    13     9    10    1
    14    10    18    1
    15    17    18    1
    16    17     3    1
    17    18    19    1
    18     4    19    1
    19     5    19    2
    20    19     6    2
