@<TRIPOS>MOLECULE
3po6_DT9_A_1.pdb
 19 20 0 0 0
SMALL
GASTEIGER

@<TRIPOS>ATOM
      1  CAA       -3.4630    4.7380    9.5310 C.3   262  DT9262      0.2526
      2  CAB       -7.3150    7.2130   12.0570 C.3   262  DT9262      0.2526
      3  CAC       -5.6020    4.2000   16.1210 C.3   262  DT9262      0.0240
      4  NAD       -5.3570   -0.6010   16.2180 N.3   262  DT9262      0.0516
      5  OAE       -5.1810    1.4280   17.7960 O.2   262  DT9262     -0.1383
      6  OAF       -7.3630    1.2110   16.8330 O.2   262  DT9262     -0.1383
      7  CAG       -4.5890    3.3020   11.6010 C.ar  262  DT9262      0.0356
      8  CAH       -6.3630    4.7990   13.1350 C.ar  262  DT9262      0.0368
      9  CAI       -4.1670    1.6360   13.4140 C.3   262  DT9262      0.0454
     10  CAJ       -4.1920    1.6420   14.9470 C.3   262  DT9262      0.1020
     11  OAK       -4.8780    4.8630    9.7830 O.3   262  DT9262     -0.4684
     12  OAL       -6.5970    6.3240   11.2080 O.3   262  DT9262     -0.4684
     13  CAM       -4.8850    2.8850   12.8950 C.ar  262  DT9262     -0.0202
     14  CAN       -5.1700    4.4520   11.0660 C.ar  262  DT9262      0.1721
     15  CAO       -6.0530    5.2180   11.8250 C.ar  262  DT9262      0.1721
     16  CAP       -5.7720    3.6500   13.6670 C.ar  262  DT9262     -0.0068
     17  CAQ       -6.1250    3.2080   15.0950 C.3   262  DT9262      0.1027
     18  NAR       -5.6230    1.8200   15.2950 N.3   262  DT9262     -0.1399
     19  SAS       -5.9130    0.9810   16.6140 S.O2  262  DT9262      0.1329
@<TRIPOS>BOND
     1     1    11    1
     2    11    14    1
     3    14     7   ar
     4    14    15   ar
     5    12    15    1
     6    12     2    1
     7     7    13   ar
     8    15     8   ar
     9    13     9    1
    10    13    16   ar
    11     8    16   ar
    12     9    10    1
    13    16    17    1
    14    10    18    1
    15    17    18    1
    16    17     3    1
    17    18    19    1
    18     4    19    1
    19    19     6    2
    20    19     5    2
