@<TRIPOS>MOLECULE
3po7_ZON_A_1.pdb
 14 15 0 0 0
SMALL
GASTEIGER

@<TRIPOS>ATOM
      1  NAA       55.4350  152.6480   25.0730 N.3   601  ZON601      0.0349
      2  OAB       54.8260  153.1560   22.6270 O.2   601  ZON601     -0.1544
      3  OAC       54.6330  154.9680   24.2690 O.2   601  ZON601     -0.1544
      4  CAD       51.7070  155.9700   28.7010 C.ar  601  ZON601      0.0032
      5  CAE       52.1550  156.4220   27.4600 C.ar  601  ZON601      0.0002
      6  CAF       51.4810  154.6100   28.9000 C.ar  601  ZON601      0.0402
      7  CAG       52.3720  155.5230   26.4140 C.ar  601  ZON601      0.0045
      8  CAH       52.7220  153.0520   24.3270 C.3   601  ZON601      0.2208
      9  NAI       51.9360  151.9670   26.4730 N.ar  601  ZON601     -0.0795
     10  OAJ       51.5730  152.3580   27.7760 O.2   601  ZON601     -0.3537
     11  CAK       52.2790  153.0500   25.7860 C.ar  601  ZON601      0.1261
     12  CAL       51.7050  153.7100   27.8570 C.ar  601  ZON601      0.1766
     13  CAM       52.1480  154.1610   26.6150 C.ar  601  ZON601      0.0556
     14  SAN       54.4650  153.4950   24.0440 S.O2  601  ZON601      0.0799
@<TRIPOS>BOND
     1     2    14    2
     2    14     3    2
     3    14     8    1
     4    14     1    1
     5     8    11    1
     6    11     9   ar
     7    11    13   ar
     8     7    13   ar
     9     7     5   ar
    10     9    10   ar
    11    13    12   ar
    12     5     4   ar
    13    10    12   ar
    14    12     6   ar
    15     4     6   ar
