@<TRIPOS>MOLECULE
3po9_XPT_A_1.pdb
 10 9 0 0 0
SMALL
GASTEIGER

@<TRIPOS>ATOM
      1  C3        21.1050   17.4730   14.2160 C.3     1  XPT1        0.0481
      2  C4        20.1280   16.9050   15.2360 C.3     1  XPT1        0.0108
      3  C5        18.8300   16.4860   14.5860 C.3     1  XPT1        0.0009
      4  C6        22.6140   20.5090   13.1680 C.3     1  XPT1        0.0481
      5  C7        22.7030   19.7010   11.8810 C.3     1  XPT1        0.0108
      6  C8        23.8010   20.2650   11.0070 C.3     1  XPT1        0.0009
      7  C9        22.2510   19.7860   16.5160 C.3     1  XPT1        0.0481
      8  C10       21.2000   20.0780   17.5760 C.3     1  XPT1        0.0108
      9  C11       21.8620   20.5290   18.8610 C.3     1  XPT1        0.0009
     10  SN1       21.3440   19.5580   14.5970 S.3     1  XPT1       -0.1795
@<TRIPOS>BOND
     1     6     5    1
     2     5     4    1
     3     4    10    1
     4     1    10    1
     5     1     2    1
     6     3     2    1
     7    10     7    1
     8     7     8    1
     9     8     9    1
