@<TRIPOS>MOLECULE
3poc_ACR_A_1.pdb
 24 24 0 0 0
SMALL
GASTEIGER

@<TRIPOS>ATOM
      1  C1A      -22.2220   -7.2380   53.3150 C.3   664  ACR664      0.1249
      2  C2A      -22.8940   -6.1120   54.1180 C.3   664  ACR664      0.2020
      3  C3A      -22.1440   -4.8010   53.9190 C.3   664  ACR664      0.2137
      4  C4A      -20.7220   -4.9120   54.4250 C.3   664  ACR664      0.1872
      5  C5A      -20.0390   -6.1590   53.9190 C.3   664  ACR664      0.0676
      6  C6A      -18.5610   -6.2810   54.0830 C.3   664  ACR664      0.1847
      7  C7A      -20.7660   -7.2790   53.7190 C.3   664  ACR664      0.0270
      8  O2A      -24.2750   -5.9490   53.7520 O.3   664  ACR664     -0.2188
      9  O3A      -22.7940   -3.7140   54.5940 O.3   664  ACR664     -0.2176
     10  O4A      -19.9460   -3.7680   54.0550 O.3   664  ACR664     -0.2202
     11  O6A      -18.4680   -6.5350   55.4900 O.3   664  ACR664     -0.2203
     12  N4B      -22.2290   -6.9370   51.8840 N.3   664  ACR664     -0.1301
     13  C1D      -15.3140  -12.8190   47.0070 C.3   664  ACR664      0.3024
     14  C2D      -15.4260  -11.5530   46.1470 C.3   664  ACR664      0.2434
     15  C3D      -16.8660  -11.0420   46.0350 C.3   664  ACR664      0.2199
     16  C4D      -17.8510  -12.1800   45.7180 C.3   664  ACR664      0.2144
     17  C5D      -17.6470  -13.3550   46.6880 C.3   664  ACR664      0.1836
     18  C6D      -18.5560  -14.5370   46.3790 C.3   664  ACR664      0.2142
     19  O1D      -15.7320  -12.5630   48.3470 O.3   664  ACR664     -0.1869
     20  O2D      -14.5700  -10.5240   46.6610 O.3   664  ACR664     -0.2148
     21  O3D      -16.9490  -10.0050   45.0510 O.3   664  ACR664     -0.2174
     22  O4D      -19.2120  -11.7490   45.8290 O.3   664  ACR664     -0.2176
     23  O5D      -16.2890  -13.7990   46.6360 O.3   664  ACR664     -0.3236
     24  O6D      -17.8580  -15.4960   45.5780 O.3   664  ACR664     -0.2176
@<TRIPOS>BOND
     1    21    15    1
     2    24    18    1
     3    16    22    1
     4    16    15    1
     5    16    17    1
     6    15    14    1
     7    14    20    1
     8    14    13    1
     9    18    17    1
    10    23    17    1
    11    23    13    1
    12    13    19    1
    13    12     1    1
    14     1     7    1
    15     1     2    1
    16     7     5    1
    17     8     2    1
    18     5     6    1
    19     5     4    1
    20     3     2    1
    21     3     4    1
    22     3     9    1
    23    10     4    1
    24     6    11    1
