@<TRIPOS>MOLECULE
3poo_S69_A_1.pdb
 23 24 0 0 0
SMALL
GASTEIGER

@<TRIPOS>ATOM
      1  C1        23.4970   11.6240    0.1410 C.ar  2001  S692001    -0.0100
      2  C2        24.0610   10.2920   -0.1000 C.3   2001  S692001     0.1146
      3  C3        25.5660   10.2430   -0.0310 C.2   2001  S692001     0.2620
      4  O4        26.1940   10.2740    1.0600 O.2   2001  S692001    -0.2715
      5  N5        26.3080   10.1600   -1.2730 N.am  2001  S692001    -0.1109
      6  N6        27.6400   10.1180   -1.1960 N.3   2001  S692001    -0.1035
      7  C7        28.0940   10.2890   -2.5200 C.3   2001  S692001     0.1427
      8  C8        29.6080   10.2830   -2.6850 C.ar  2001  S692001     0.0324
      9  C9        24.0130   12.6970   -0.5450 C.ar  2001  S692001    -0.0036
     10  C10       23.4950   13.9830   -0.3340 C.ar  2001  S692001     0.0028
     11  C11       22.4730   14.1730    0.5650 C.ar  2001  S692001     0.0369
     12  C12       21.9720   13.1080    1.2370 C.ar  2001  S692001     0.1384
     13  O13       20.9410   13.3370    2.1260 O.3   2001  S692001    -0.4714
     14  C14       20.3780   12.2360    2.8210 C.3   2001  S692001     0.2525
     15  C15       22.4850   11.8040    1.0420 C.ar  2001  S692001     0.0331
     16  C16       30.1030   10.3780   -4.0140 C.ar  2001  S692001    -0.0181
     17  C17       29.1330   10.4750   -5.2050 C.3   2001  S692001     0.0310
     18  C18       31.4940   10.3900   -4.2370 C.ar  2001  S692001     0.0377
     19  C19       32.3540   10.3070   -3.1550 C.ar  2001  S692001     0.1986
     20  O20       33.7000   10.3120   -3.3940 O.3   2001  S692001    -0.2865
     21  C21       31.8720   10.2150   -1.8340 C.ar  2001  S692001     0.0837
     22  C22       30.4540   10.2050   -1.6120 C.ar  2001  S692001     0.1960
     23  O23       29.9980   10.1310   -0.3350 O.3   2001  S692001    -0.2868
@<TRIPOS>BOND
     1    17    16    1
     2    18    16   ar
     3    18    19   ar
     4    16     8   ar
     5    20    19    1
     6    19    21   ar
     7     8     7    1
     8     8    22   ar
     9     7     6    1
    10    21    22   ar
    11    22    23    1
    12     5     6    1
    13     5     3   am
    14     9    10   ar
    15     9     1   ar
    16    10    11   ar
    17     2     3    1
    18     2     1    1
    19     3     4    2
    20     1    15   ar
    21    11    12   ar
    22    15    12   ar
    23    12    13    1
    24    13    14    1
