@<TRIPOS>MOLECULE
3por_C8E_A_1.pdb
 21 20 0 0 0
SMALL
GASTEIGER

@<TRIPOS>ATOM
      1  C1         7.2030  -30.7140   35.1030 C.3   545  C8E545      0.0000
      2  C2         7.1930  -29.1970   35.2300 C.3   545  C8E545      0.0000
      3  C3         5.7900  -28.7900   35.0610 C.3   545  C8E545      0.0000
      4  C4         5.9960  -27.3320   34.9730 C.3   545  C8E545      0.0003
      5  C5         4.7240  -26.7630   34.4530 C.3   545  C8E545      0.0048
      6  C6         3.3980  -27.2040   35.1820 C.3   545  C8E545      0.0293
      7  C7         2.4290  -28.2500   34.4360 C.2   545  C8E545      0.0138
      8  C8         0.9200  -28.1470   34.7990 C.2   545  C8E545      0.1678
      9  O9         0.0060  -29.1020   34.2780 O.2   545  C8E545     -0.4700
     10  C10       -0.1690  -30.2210   35.1310 C.3   545  C8E545      0.2374
     11  C11       -1.2330  -30.2590   36.2100 C.3   545  C8E545      0.1894
     12  O12       -2.6130  -30.2630   35.8750 O.3   545  C8E545     -0.3471
     13  C13       -3.1440  -28.9570   35.9810 C.3   545  C8E545      0.1743
     14  C14       -3.0000  -28.3230   37.3300 C.3   545  C8E545      0.1742
     15  O15       -3.4650  -29.0890   38.4340 O.3   545  C8E545     -0.3484
     16  C16       -3.8270  -28.1830   39.4980 C.3   545  C8E545      0.1742
     17  C17       -5.2820  -27.7400   39.8840 C.3   545  C8E545      0.1742
     18  O18       -6.2930  -27.2050   38.9670 O.3   545  C8E545     -0.3483
     19  C19       -6.3990  -25.7560   38.8740 C.3   545  C8E545      0.1777
     20  C20       -7.4480  -24.9620   39.6930 C.3   545  C8E545      0.2140
     21  O21       -7.3230  -25.1950   41.0990 O.3   545  C8E545     -0.2176
@<TRIPOS>BOND
     1     9     8    1
     2     9    10    1
     3     7     8    2
     4     7     6    1
     5     5     4    1
     6     5     6    1
     7     4     3    1
     8     3     2    1
     9     1     2    1
    10    10    11    1
    11    12    13    1
    12    12    11    1
    13    13    14    1
    14    14    15    1
    15    15    16    1
    16    19    18    1
    17    19    20    1
    18    18    17    1
    19    16    17    1
    20    20    21    1
