@<TRIPOS>MOLECULE
3pot_TP7_A_1.pdb
 21 20 0 0 0
SMALL
GASTEIGER

@<TRIPOS>ATOM
      1  N         23.5490   37.6450  -17.9190 N.am  558  TP7558     -0.1930
      2  P         22.2360   42.0110  -17.7650 P.3   558  TP7558      0.5326
      3  O1P       23.5700   42.7040  -17.5640 O.3   558  TP7558     -0.1145
      4  O2P       21.6360   42.2410  -19.1300 O.2   558  TP7558     -0.2224
      5  O3P       21.2430   42.2870  -16.6390 O.3   558  TP7558     -0.1145
      6  O4P       22.6820   40.4750  -17.6750 O.3   558  TP7558     -0.2704
      7  CB        21.7790   39.4260  -18.0590 C.3   558  TP7558      0.1572
      8  C         23.3380   38.9900  -19.9420 C.2   558  TP7558      0.3867
      9  O         22.7340   39.2040  -21.0150 O.co2 558  TP7558     -0.2437
     10  OXT       24.5650   39.2760  -19.7630 O.co2 558  TP7558     -0.2437
     11  CA        22.6110   38.3580  -18.7860 C.3   558  TP7558      0.2251
     12  CG        21.0460   38.8670  -16.8320 C.3   558  TP7558      0.0351
     13  O1        22.3060   35.8310  -17.6550 O.2   558  TP7558     -0.2733
     14  C1        23.3440   36.4360  -17.4240 C.2   558  TP7558      0.2419
     15  C2        24.4320   35.8060  -16.6100 C.3   558  TP7558      0.0868
     16  C3        24.3220   34.3160  -16.9350 C.3   558  TP7558      0.0096
     17  C4        25.5770   33.5570  -16.5640 C.3   558  TP7558      0.0005
     18  C5        26.0970   34.0500  -15.2330 C.3   558  TP7558      0.0009
     19  C6        25.2400   33.5720  -14.0560 C.3   558  TP7558      0.0125
     20  C7        25.0230   32.0610  -14.1280 C.3   558  TP7558      0.0687
     21  S7        24.0260   31.4700  -12.7450 S.3   558  TP7558     -0.0821
@<TRIPOS>BOND
     1     9     8   ar
     2     8    10   ar
     3     8    11    1
     4     4     2    2
     5    11     7    1
     6    11     1    1
     7     7     6    1
     8     7    12    1
     9     1    14   am
    10     2     6    1
    11     2     3    1
    12     2     5    1
    13    13    14    2
    14    14    15    1
    15    16    15    1
    16    16    17    1
    17    17    18    1
    18    18    19    1
    19    20    19    1
    20    20    21    1
