@<TRIPOS>MOLECULE
3pot_TXZ_A_1.pdb
 20 19 0 0 0
SMALL
GASTEIGER

@<TRIPOS>ATOM
      1  C         23.3530   38.9790  -19.9440 C.2   557  TXZ557      0.3867
      2  N         23.5390   37.6050  -17.8940 N.am  557  TXZ557     -0.1930
      3  O         24.5780   39.2790  -19.7630 O.co2 557  TXZ557     -0.2437
      4  P         22.2380   42.0090  -17.7660 P.3   557  TXZ557      0.5326
      5  C1        23.3650   36.3830  -17.3910 C.2   557  TXZ557      0.2419
      6  O1        22.3210   35.7900  -17.6420 O.2   557  TXZ557     -0.2733
      7  C2        24.5000   35.8640  -16.5240 C.3   557  TXZ557      0.0868
      8  C3        24.9020   34.3770  -16.5790 C.3   557  TXZ557      0.0096
      9  C4        25.9170   33.9800  -15.4900 C.3   557  TXZ557      0.0014
     10  C5        25.2240   33.5560  -14.1660 C.3   557  TXZ557      0.0125
     11  C6        25.0240   32.0400  -14.1350 C.3   557  TXZ557      0.0687
     12  S6        24.0230   31.4710  -12.7460 S.3   557  TXZ557     -0.0821
     13  CA        22.6240   38.3400  -18.7820 C.3   557  TXZ557      0.2251
     14  CB        21.7770   39.4140  -18.0530 C.3   557  TXZ557      0.1572
     15  CG        21.0310   38.8880  -16.8150 C.3   557  TXZ557      0.0351
     16  O1P       23.5690   42.7210  -17.5760 O.3   557  TXZ557     -0.1145
     17  O2P       21.6360   42.2500  -19.1330 O.2   557  TXZ557     -0.2224
     18  O3P       21.2410   42.2940  -16.6370 O.3   557  TXZ557     -0.1145
     19  O4P       22.6830   40.4720  -17.6730 O.3   557  TXZ557     -0.2704
     20  OXT       22.7450   39.1980  -21.0170 O.co2 557  TXZ557     -0.2437
@<TRIPOS>BOND
     1    20     1   ar
     2     1     3   ar
     3     1    13    1
     4    17     4    2
     5    13    14    1
     6    13     2    1
     7    14    19    1
     8    14    15    1
     9     2     5   am
    10     4    19    1
    11     4    16    1
    12     4    18    1
    13     6     5    2
    14     5     7    1
    15     8     7    1
    16     8     9    1
    17     9    10    1
    18    10    11    1
    19    11    12    1
