@<TRIPOS>MOLECULE
3poy_BGC_A_1.pdb
 11 11 0 0 0
SMALL
GASTEIGER

@<TRIPOS>ATOM
      1  C2        58.3850   54.6190  -41.5420 C.3   2000  BGC2000     0.2141
      2  C3        57.3650   53.7660  -42.3080 C.3   2000  BGC2000     0.2173
      3  C4        57.8950   52.9870  -43.5610 C.3   2000  BGC2000     0.2142
      4  C5        59.3490   52.4620  -43.4490 C.3   2000  BGC2000     0.1810
      5  C6        59.7660   52.1550  -44.9600 C.3   2000  BGC2000     0.2141
      6  C1        59.7900   53.9670  -41.4660 C.3   2000  BGC2000     0.1777
      7  O2        57.7900   54.7220  -40.2490 O.3   2000  BGC2000    -0.2176
      8  O3        56.2260   54.5930  -42.6210 O.3   2000  BGC2000    -0.2175
      9  O4        57.0480   51.8450  -43.8620 O.3   2000  BGC2000    -0.2176
     10  O5        60.2970   53.3670  -42.7310 O.3   2000  BGC2000    -0.3481
     11  O6        60.2200   50.8020  -45.1730 O.3   2000  BGC2000    -0.2176
@<TRIPOS>BOND
     1    11     5    1
     2     5     4    1
     3     9     3    1
     4     3     4    1
     5     3     2    1
     6     4    10    1
     7    10     6    1
     8     8     2    1
     9     2     1    1
    10     1     6    1
    11     1     7    1
