@<TRIPOS>MOLECULE
3poz_03P_A_1.pdb
 38 41 0 0 0
SMALL
GASTEIGER

@<TRIPOS>ATOM
      1  N1        14.7340   33.5590   13.1610 N.2   1023  03P1023    -0.0350
      2  N3        20.2250   35.7750   15.3950 N.am  1023  03P1023    -0.2035
      3  C4        15.8900   35.0340   17.2350 C.2   1023  03P1023     0.0633
      4  C5        14.5180   34.8540   17.0580 C.2   1023  03P1023     0.0325
      5  C6        18.0730   34.7880   16.0540 C.3   1023  03P1023     0.1150
      6  C7        18.7830   36.0320   15.5310 C.3   1023  03P1023     0.1365
      7  C8        20.7150   35.0010   14.4070 C.2   1023  03P1023     0.2439
      8  C10       17.2240   33.5270   11.8350 C.ar  1023  03P1023     0.1842
      9  C13       17.5500   32.9210    9.0980 C.ar  1023  03P1023     0.1560
     10  C15       18.1350   32.5430   11.4220 C.ar  1023  03P1023     0.0476
     11  C17       18.4040   30.7430    6.4860 C.ar  1023  03P1023     0.0375
     12  C20       16.0480   29.3940    7.1640 C.ar  1023  03P1023     0.0744
     13  C21       16.2660   30.6950    7.6250 C.ar  1023  03P1023     0.0413
     14  C22       14.8020   28.6230    7.5000 C.3   1023  03P1023     0.4187
     15  C24       24.1210   33.2280   14.0430 C.3   1023  03P1023     0.0334
     16  F2        13.8670   29.3560    8.0560 F     1023  03P1023    -0.1659
     17  F         14.2830   28.1180    6.3950 F     1023  03P1023    -0.1659
     18  F1        15.1020   27.6320    8.3300 F     1023  03P1023    -0.1659
     19  C19       17.0120   28.7820    6.3480 C.ar  1023  03P1023     0.0041
     20  C18       18.1880   29.4520    6.0170 C.ar  1023  03P1023     0.0031
     21  C16       17.4560   31.3660    7.3000 C.ar  1023  03P1023     0.1453
     22  O1        17.6880   32.6400    7.7450 O.3   1023  03P1023    -0.4526
     23  C12       16.6540   33.8950    9.5210 C.ar  1023  03P1023     0.0956
     24 CL         15.6760   34.7660    8.3190 Cl    1023  03P1023    -0.0789
     25  C11       16.4760   34.2030   10.8620 C.ar  1023  03P1023     0.0589
     26  C14       18.3170   32.2500   10.0520 C.ar  1023  03P1023     0.0420
     27  N4        17.0810   33.8100   13.1800 N.pl3 1023  03P1023    -0.0082
     28  C1        15.8750   33.8860   13.8120 C.2   1023  03P1023     0.3628
     29  C         13.5190   33.6450   13.7380 C.3   1023  03P1023     0.3914
     30  C3        15.7330   34.3090   15.1460 C.3   1023  03P1023     0.2238
     31  C2        14.4750   34.4120   15.7050 C.2   1023  03P1023     0.0895
     32  N         13.3710   34.0640   15.0050 N.2   1023  03P1023    -0.2207
     33  N2        16.5930   34.7400   16.1000 N.pl3 1023  03P1023    -0.2917
     34  O         20.0140   34.4420   13.5830 O.2   1023  03P1023    -0.2733
     35  C9        22.2200   34.8250   14.3240 C.3   1023  03P1023     0.1171
     36  C23       22.6070   33.3860   13.9560 C.3   1023  03P1023     0.1355
     37  O2        22.0200   32.5000   14.9190 O.3   1023  03P1023    -0.2252
     38  C25       22.1470   32.9560   12.5610 C.3   1023  03P1023     0.0334
@<TRIPOS>BOND
     1    20    19   ar
     2    20    11   ar
     3    19    12   ar
     4    17    14    1
     5    11    21   ar
     6    12    14    1
     7    12    13   ar
     8    21    13   ar
     9    21    22    1
    10    14    16    1
    11    14    18    1
    12    22     9    1
    13    24    23    1
    14     9    23   ar
    15     9    26   ar
    16    23    25   ar
    17    26    10   ar
    18    25     8   ar
    19    10     8   ar
    20     8    27    1
    21    38    36    1
    22     1    29    1
    23     1    28    2
    24    27    28    1
    25    34     7    2
    26    29    32    1
    27    28    30    1
    28    36    15    1
    29    36    35    1
    30    36    37    1
    31    35     7    1
    32     7     2   am
    33    32    31    2
    34    30    31    1
    35    30    33    1
    36     2     6    1
    37     6     5    1
    38    31     4    1
    39     5    33    1
    40    33     3    1
    41     4     3    2
