@<TRIPOS>MOLECULE
3pp0_03Q_A_1.pdb
 34 37 0 0 0
SMALL
GASTEIGER

@<TRIPOS>ATOM
      1  O1        12.9040   15.4160   27.6660 O.3     1  03Q1       -0.2176
      2  C2        12.7010   15.4320   29.0830 C.3     1  03Q1        0.2140
      3  C3        13.6420   14.4880   29.8430 C.3     1  03Q1        0.1777
      4  O4        14.2820   13.5780   28.9490 O.3     1  03Q1       -0.3492
      5  C5        14.3860   12.2360   29.4150 C.3     1  03Q1        0.1636
      6  C6        15.2870   11.5040   28.4250 C.3     1  03Q1        0.1237
      7  N7        16.7110   11.4550   28.8350 N.pl3   1  03Q1       -0.2910
      8  C8        17.2480   10.4260   29.5520 C.2     1  03Q1        0.0633
      9  C9        18.5700   10.6210   29.7440 C.2     1  03Q1        0.0325
     10  C10       18.9150   11.8710   29.0910 C.2     1  03Q1        0.0895
     11  N11       20.0600   12.5660   28.9470 N.2     1  03Q1       -0.2207
     12  C12       20.0730   13.7020   28.2760 C.3     1  03Q1        0.3914
     13  N13       18.9650   14.2110   27.7290 N.2     1  03Q1       -0.0350
     14  C14       17.7780   13.5830   27.8240 C.2     1  03Q1        0.3629
     15  N15       16.6330   14.1290   27.2530 N.pl3   1  03Q1       -0.0066
     16  C16       16.6740   15.2830   26.4610 C.ar    1  03Q1        0.2032
     17  C17       15.8300   16.3470   26.7750 C.ar    1  03Q1        0.1463
     18  N18       15.8160   17.4600   26.0650 N.ar    1  03Q1       -0.2054
     19  C19       16.6130   17.6270   25.0380 C.ar    1  03Q1        0.2405
     20  O20       16.5470   18.8100   24.3620 O.3     1  03Q1       -0.4353
     21  C21       17.3830   19.8530   24.6570 C.ar    1  03Q1        0.1472
     22  C22       18.4440   19.7380   25.5530 C.ar    1  03Q1        0.0375
     23  C23       19.2830   20.8190   25.8100 C.ar    1  03Q1        0.0031
     24  C24       19.0830   22.0330   25.1770 C.ar    1  03Q1        0.0041
     25  C25       18.0320   22.1390   24.2780 C.ar    1  03Q1        0.0744
     26  C26       17.1940   21.0640   24.0140 C.ar    1  03Q1        0.0414
     27  C27       17.8170   23.4520   23.5920 C.3     1  03Q1        0.4187
     28  F28       16.8670   23.4020   22.5930 F       1  03Q1       -0.1659
     29  F29       19.0360   23.8760   23.0710 F       1  03Q1       -0.1659
     30  F30       17.3300   24.3620   24.4970 F       1  03Q1       -0.1659
     31  C31       17.4910   16.6020   24.6570 C.ar    1  03Q1        0.1146
     32 CL32       18.5300   16.8010   23.2920 Cl      1  03Q1       -0.0772
     33  C33       17.5300   15.4110   25.3730 C.ar    1  03Q1        0.0621
     34  C34       17.7100   12.3580   28.5250 C.3     1  03Q1        0.2238
@<TRIPOS>BOND
     1    28    27    1
     2    29    27    1
     3    32    31    1
     4    27    25    1
     5    27    30    1
     6    26    25   ar
     7    26    21   ar
     8    25    24   ar
     9    20    21    1
    10    20    19    1
    11    31    19   ar
    12    31    33   ar
    13    21    22   ar
    14    19    18   ar
    15    24    23   ar
    16    33    16   ar
    17    22    23   ar
    18    18    17   ar
    19    16    17   ar
    20    16    15    1
    21    15    14    1
    22     1     2    1
    23    13    14    2
    24    13    12    1
    25    14    34    1
    26    12    11    1
    27     6     7    1
    28     6     5    1
    29    34     7    1
    30    34    10    1
    31     7     8    1
    32    11    10    2
    33     4     5    1
    34     4     3    1
    35     2     3    1
    36    10     9    1
    37     8     9    2
