@<TRIPOS>MOLECULE
3pp1_ATP_A_1.pdb
 31 33 0 0 0
SMALL
GASTEIGER

@<TRIPOS>ATOM
      1  PG       -24.3160   28.0020    2.6320 P.3   400  ATP400      0.5373
      2  O1G      -23.5640   28.3730    1.3680 O.2   400  ATP400     -0.2221
      3  O2G      -25.8180   27.7550    2.4530 O.3   400  ATP400     -0.1143
      4  O3G      -23.9550   28.8900    3.8040 O.3   400  ATP400     -0.1143
      5  PB       -24.2840   25.6650    4.2190 P.3   400  ATP400      0.2277
      6  O1B      -25.6290   25.0210    3.9510 O.2   400  ATP400     -0.5168
      7  O2B      -23.1030   24.8230    4.6480 O.3   400  ATP400     -0.4368
      8  O3B      -23.7280   26.5440    2.9980 O.3   400  ATP400     -0.2258
      9  PA       -25.5340   26.6730    6.5810 P.3   400  ATP400      0.2189
     10  O1A      -25.2090   27.9260    7.3600 O.3   400  ATP400     -0.4371
     11  O2A      -26.9520   26.3920    6.1380 O.2   400  ATP400     -0.5170
     12  O3A      -24.5640   26.8030    5.3080 O.3   400  ATP400     -0.2700
     13  O5'      -25.0800   25.3530    7.3690 O.3   400  ATP400     -0.3112
     14  C5'      -23.7900   25.1910    7.9190 C.3   400  ATP400      0.1813
     15  C4'      -23.6340   23.7130    8.2630 C.3   400  ATP400      0.1821
     16  O4'      -24.4270   23.3730    9.4070 O.3   400  ATP400     -0.3135
     17  C3'      -24.0840   22.7780    7.1470 C.3   400  ATP400      0.2184
     18  O3'      -22.9560   22.2860    6.4070 O.3   400  ATP400     -0.2174
     19  C2'      -24.7330   21.6040    7.8380 C.3   400  ATP400      0.2570
     20  O2'      -23.7850   20.5390    7.8580 O.3   400  ATP400     -0.2130
     21  C1'      -24.9210   22.0450    9.2700 C.3   400  ATP400      0.3186
     22  N9       -26.3530   22.0210    9.5890 N.pl3 400  ATP400     -0.1439
     23  C8       -27.2340   22.9330    9.1650 C.3   400  ATP400      0.3377
     24  N7       -28.4670   22.6260    9.6330 N.2   400  ATP400     -0.2095
     25  C5       -28.3750   21.4990   10.3720 C.2   400  ATP400      0.2526
     26  C6       -29.3040   20.6390   11.1490 C.2   400  ATP400      0.4393
     27  N6       -30.6170   20.9590   11.2200 N.pl3 400  ATP400      0.2180
     28  N1       -28.8030   19.5370   11.7770 N.2   400  ATP400      0.0021
     29  C2       -27.4990   19.2160   11.7050 C.3   400  ATP400      0.5254
     30  N3       -26.6130   19.9620   11.0140 N.2   400  ATP400     -0.0055
     31  C4       -26.9730   21.0970   10.3390 C.2   400  ATP400      0.3518
@<TRIPOS>BOND
     1     2     1    2
     2     3     1    1
     3     1     8    1
     4     1     4    1
     5     8     5    1
     6     6     5    2
     7     5     7    1
     8     5    12    1
     9    12     9    1
    10    11     9    2
    11    18    17    1
    12     9    10    1
    13     9    13    1
    14    17    19    1
    15    17    15    1
    16    13    14    1
    17    19    20    1
    18    19    21    1
    19    14    15    1
    20    15    16    1
    21    23    22    1
    22    23    24    1
    23    21    16    1
    24    21    22    1
    25    22    31    1
    26    24    25    2
    27    31    25    1
    28    31    30    2
    29    25    26    1
    30    30    29    1
    31    26    27    1
    32    26    28    2
    33    29    28    1
