@<TRIPOS>MOLECULE
3pp1_IZG_A_1.pdb
 28 30 0 0 0
SMALL
GASTEIGER

@<TRIPOS>ATOM
      1  C1       -34.6430   33.0180    2.7360 C.3   500  IZG500      0.2613
      2  N2       -34.3370   32.0160    3.7490 N.am  500  IZG500     -0.1339
      3  C3       -33.0410   31.5590    3.8870 C.2   500  IZG500      0.3173
      4  N4       -32.0340   32.0100    3.0980 N.2   500  IZG500     -0.0444
      5  C5       -30.7910   31.5690    3.2250 C.3   500  IZG500      0.3638
      6  N6       -30.4210   30.6280    4.1530 N.am  500  IZG500     -0.2314
      7  C7       -29.0190   30.1450    4.2030 C.3   500  IZG500      0.1330
      8  C8       -27.9940   31.0640    4.8800 C.3   500  IZG500      0.2046
      9  O10      -28.3790   31.3460    6.2320 O.3   500  IZG500     -0.2185
     10  C11      -26.6180   30.3610    4.8420 C.3   500  IZG500      0.2165
     11  O12      -26.0800   30.0460    6.1430 O.3   500  IZG500     -0.2175
     12  C13      -31.3840   30.1140    4.9990 C.2   500  IZG500      0.2457
     13  O14      -31.0990   29.2720    5.8420 O.2   500  IZG500     -0.2737
     14  C15      -32.7340   30.5870    4.8740 C.3   500  IZG500      0.2217
     15  C16      -33.8180   30.0940    5.7250 C.2   500  IZG500      0.1025
     16  N17      -33.5410   29.1400    6.6910 N.pl3 500  IZG500     -0.2110
     17  C18      -34.2610   27.9800    7.0040 C.ar  500  IZG500      0.0976
     18  C19      -35.3980   27.5680    6.3060 C.ar  500  IZG500      0.0192
     19  C20      -36.0700   26.4000    6.6690 C.ar  500  IZG500      0.0073
     20  C21      -35.6400   25.6190    7.7490 C.ar  500  IZG500      0.0324
     21  I22      -36.6860   23.8520    8.3040 I     500  IZG500     -0.0424
     22  C23      -34.5020   26.0430    8.4450 C.ar  500  IZG500      0.0368
     23  C24      -33.8110   27.2070    8.0810 C.ar  500  IZG500      0.1556
     24  F25      -32.7110   27.5900    8.7780 F     500  IZG500     -0.2028
     25  C26      -35.0930   30.6190    5.5270 C.2   500  IZG500      0.2299
     26  F27      -36.1240   30.2090    6.2860 F     500  IZG500     -0.1958
     27  C28      -35.3380   31.5740    4.5350 C.2   500  IZG500      0.3654
     28  O29      -36.4870   31.9930    4.3940 O.2   500  IZG500     -0.2390
@<TRIPOS>BOND
     1     1     2    1
     2     4     5    1
     3     4     3    2
     4     5     6    1
     5     2     3    1
     6     2    27   am
     7     3    14    1
     8     6     7    1
     9     6    12   am
    10     7     8    1
    11    28    27    2
    12    27    25    1
    13    10     8    1
    14    10    11    1
    15    14    12    1
    16    14    15    1
    17     8     9    1
    18    12    13    2
    19    25    15    2
    20    25    26    1
    21    15    16    1
    22    18    19   ar
    23    18    17   ar
    24    19    20   ar
    25    16    17    1
    26    17    23   ar
    27    20    21    1
    28    20    22   ar
    29    23    22   ar
    30    23    24    1
