@<TRIPOS>MOLECULE
3pp6_PAM_A_1.pdb
 18 17 0 0 0
SMALL
GASTEIGER

@<TRIPOS>ATOM
      1  C1        42.2160   62.4200    2.2100 C.2   133  PAM133      0.3649
      2  O1        42.1270   63.2490    3.1350 O.co2 133  PAM133     -0.2457
      3  O2        41.3350   62.2890    1.3370 O.co2 133  PAM133     -0.2457
      4  C2        43.4420   61.5450    2.1410 C.3   133  PAM133      0.1141
      5  C3        44.7150   62.3820    2.2420 C.3   133  PAM133      0.0118
      6  C4        45.9250   61.5030    1.9440 C.3   133  PAM133      0.0006
      7  C5        47.1620   62.3030    1.5620 C.3   133  PAM133      0.0000
      8  C6        48.1690   62.3590    2.7010 C.3   133  PAM133      0.0003
      9  C7        48.1760   63.7580    3.2970 C.3   133  PAM133      0.0047
     10  C8        49.4990   64.4670    3.0660 C.3   133  PAM133      0.0257
     11  C9        49.3590   65.8840    3.5820 C.2   133  PAM133     -0.0307
     12  C10       49.1780   66.9300    2.7710 C.2   133  PAM133     -0.0307
     13  C11       49.1040   66.7690    1.2690 C.3   133  PAM133      0.0257
     14  C12       48.4400   67.9890    0.6330 C.3   133  PAM133      0.0047
     15  C13       47.0000   68.1310    1.1260 C.3   133  PAM133      0.0003
     16  C14       46.0180   68.2680   -0.0350 C.3   133  PAM133      0.0000
     17  C15       46.2490   67.1870   -1.0860 C.3   133  PAM133      0.0000
     18  C16       45.8140   65.8180   -0.6080 C.3   133  PAM133      0.0000
@<TRIPOS>BOND
     1    17    18    1
     2    17    16    1
     3    16    15    1
     4    14    15    1
     5    14    13    1
     6    13    12    1
     7     3     1   ar
     8     7     6    1
     9     7     8    1
    10     6     5    1
    11     4     1    1
    12     4     5    1
    13     1     2   ar
    14     8     9    1
    15    12    11    2
    16    10     9    1
    17    10    11    1
