@<TRIPOS>MOLECULE
3pp7_SVR_B_1.pdb
 41 44 0 0 0
SMALL
GASTEIGER

@<TRIPOS>ATOM
      1  C46       30.0140   24.8660   53.6130 C.ar  499  SVR499      0.0001
      2  C47       29.3350   23.7720   53.0660 C.ar  499  SVR499      0.0046
      3  C48       30.8260   25.6580   52.7990 C.ar  499  SVR499      0.0000
      4  C50       30.9570   25.3530   51.4420 C.ar  499  SVR499      0.0001
      5  C52       30.2790   24.2560   50.8990 C.ar  499  SVR499      0.0046
      6  C49       29.4630   23.4530   51.7070 C.ar  499  SVR499      0.0554
      7  C51       28.6970   22.2360   51.1170 C.2   499  SVR499      0.2690
      8  O54       27.6540   21.8510   51.6510 O.2   499  SVR499     -0.2680
      9  N53       29.2480   21.6540   50.0310 N.am  499  SVR499     -0.1758
     10  C55       28.7270   20.5980   49.3590 C.ar  499  SVR499      0.0698
     11  C56       28.1640   20.8070   48.0840 C.ar  499  SVR499      0.0209
     12  C57       28.7440   19.2890   49.8780 C.ar  499  SVR499     -0.0065
     13  C59       29.3460   18.9660   51.2560 C.3   499  SVR499      0.0324
     14  C60       28.1980   18.2390   49.1320 C.ar  499  SVR499     -0.0028
     15  C62       27.6400   18.4720   47.8720 C.ar  499  SVR499      0.0043
     16  C58       27.6160   19.7580   47.3290 C.ar  499  SVR499      0.0567
     17  C61       26.9840   19.9850   45.9190 C.2   499  SVR499      0.2690
     18  O64       25.7650   19.8940   45.7740 O.2   499  SVR499     -0.2680
     19  N63       27.8570   20.2520   44.9240 N.am  499  SVR499     -0.1754
     20  C65       27.6370   20.4790   43.6010 C.ar  499  SVR499      0.0750
     21  C67       26.3750   20.8470   43.1110 C.ar  499  SVR499      0.0180
     22  C70       26.1570   21.0800   41.7490 C.ar  499  SVR499      0.0202
     23  C71       27.2000   20.9620   40.8300 C.ar  499  SVR499      0.1124
     24  S75       26.9390   21.2640   39.0840 S.3   499  SVR499      0.0421
     25  O80       25.5550   21.4630   38.7940 O.3   499  SVR499     -0.0650
     26  O81       27.4230   20.1010   38.2740 O.3   499  SVR499     -0.0650
     27  O82       27.7030   22.4860   38.6750 O.3   499  SVR499     -0.0650
     28  C66       28.7030   20.3610   42.6770 C.ar  499  SVR499      0.0343
     29  C68       28.4680   20.6050   41.3010 C.ar  499  SVR499      0.0214
     30  C72       29.5070   20.4920   40.3710 C.ar  499  SVR499      0.0203
     31  C69       30.0140   20.0000   43.0650 C.ar  499  SVR499      0.1149
     32  S73       30.5110   19.6570   44.7220 S.3   499  SVR499      0.0421
     33  O77       31.9080   19.3440   44.7330 O.3   499  SVR499     -0.0650
     34  O78       29.7500   18.4770   45.2600 O.3   499  SVR499     -0.0650
     35  O79       30.2970   20.8630   45.5910 O.3   499  SVR499     -0.0650
     36  C74       31.0290   19.8950   42.1130 C.ar  499  SVR499      0.0378
     37  C76       30.7890   20.1370   40.7680 C.ar  499  SVR499      0.1137
     38  S83       32.0960   19.9930   39.5920 S.3   499  SVR499      0.0421
     39  O85       31.9460   18.7770   38.8470 O.3   499  SVR499     -0.0650
     40  O86       33.4090   19.9830   40.3210 O.3   499  SVR499     -0.0650
     41  O84       32.0590   21.1630   38.6490 O.3   499  SVR499     -0.0650
@<TRIPOS>BOND
     1    26    24    1
     2    41    38    1
     3    27    24    1
     4    25    24    1
     5    39    38    1
     6    24    23    1
     7    38    40    1
     8    38    37    1
     9    30    37   ar
    10    30    29   ar
    11    37    36   ar
    12    23    29   ar
    13    23    22   ar
    14    29    28   ar
    15    22    21   ar
    16    36    31   ar
    17    28    31   ar
    18    28    20   ar
    19    31    32    1
    20    21    20   ar
    21    20    19    1
    22    32    33    1
    23    32    34    1
    24    32    35    1
    25    19    17   am
    26    18    17    2
    27    17    16    1
    28    16    15   ar
    29    16    11   ar
    30    15    14   ar
    31    11    10   ar
    32    14    12   ar
    33    10    12   ar
    34    10     9    1
    35    12    13    1
    36     9     7   am
    37     5     4   ar
    38     5     6   ar
    39     7     8    2
    40     7     6    1
    41     4     3   ar
    42     6     2   ar
    43     3     1   ar
    44     2     1   ar
