@<TRIPOS>MOLECULE
3ppj_FOI_A_1.pdb
 25 28 0 0 0
SMALL
GASTEIGER

@<TRIPOS>ATOM
      1  C1        80.7940   10.7900   -8.1510 C.ar  727  FOI727      0.0991
      2  N2        81.5050   11.8130   -8.6870 N.ar  727  FOI727     -0.2391
      3  C3        82.8350   11.6500   -8.8860 C.ar  727  FOI727      0.1363
      4  C4        83.4480   10.4550   -8.5550 C.ar  727  FOI727      0.1660
      5  C5        82.7610    9.4550   -8.0230 C.ar  727  FOI727      0.0561
      6  C6        81.4090    9.5810   -7.8140 C.ar  727  FOI727      0.0251
      7  C7        83.7170    8.3820   -7.8090 C.ar  727  FOI727      0.1144
      8  C8        84.9270    8.8810   -8.2280 C.ar  727  FOI727      0.2355
      9  O9        84.7660   10.1680   -8.6970 O.2   727  FOI727     -0.4440
     10  C10       86.3230    8.3450   -8.2780 C.2   727  FOI727      0.3778
     11  O11       87.2930    8.9610   -8.7150 O.2   727  FOI727     -0.2414
     12  O12       86.3890    7.0690   -7.7540 O.3   727  FOI727     -0.4392
     13  C13       87.6990    6.4910   -7.7540 C.3   727  FOI727      0.2561
     14  N14       83.5280    7.1410   -7.2890 N.pl3 727  FOI727     -0.2091
     15  C15       82.3480    6.4100   -7.0230 C.ar  727  FOI727      0.0706
     16  C16       82.2530    5.6710   -5.8810 C.ar  727  FOI727      0.0162
     17  C17       81.1050    4.9620   -5.6370 C.ar  727  FOI727     -0.0012
     18  C18       80.0750    5.0180   -6.5190 C.ar  727  FOI727      0.0003
     19  C19       80.1560    5.7100   -7.6170 C.ar  727  FOI727     -0.0012
     20  C20       81.2780    6.4330   -7.9080 C.ar  727  FOI727      0.0162
     21  C21       78.9210    5.6260   -8.4490 C.2   727  FOI727     -0.0030
     22  C22       78.0180    4.6950   -7.6280 C.2   727  FOI727     -0.0020
     23  C23       78.8560    4.3540   -6.4190 C.3   727  FOI727      0.1503
     24  N24       78.5340    3.5980   -5.4140 N.4   727  FOI727     -0.0403
     25  O25       77.2440    3.0770   -5.5790 O.3   727  FOI727     -0.0995
@<TRIPOS>BOND
     1     3     2   ar
     2     3     4   ar
     3    11    10    2
     4     9     4   ar
     5     9     8   ar
     6     2     1   ar
     7     4     5   ar
     8    21    22    2
     9    21    19    1
    10    10     8    1
    11    10    12    1
    12     8     7   ar
    13     1     6   ar
    14     5     6   ar
    15     5     7   ar
    16    20    19   ar
    17    20    15   ar
    18     7    14    1
    19    13    12    1
    20    22    23    1
    21    19    18   ar
    22    14    15    1
    23    15    16   ar
    24    18    23    1
    25    18    17   ar
    26    23    24    1
    27    16    17   ar
    28    25    24    1
