@<TRIPOS>MOLECULE
3ppk_FNI_A_1.pdb
 30 34 0 0 0
SMALL
GASTEIGER

@<TRIPOS>ATOM
      1  C1        80.7220   10.9630   -8.4450 C.ar  727  FNI727      0.0991
      2  N2        81.4950   11.8560   -9.1060 N.ar  727  FNI727     -0.2391
      3  C3        82.8070   11.5990   -9.3100 C.ar  727  FNI727      0.1363
      4  C4        83.3650   10.3960   -8.8320 C.ar  727  FNI727      0.1659
      5  C5        82.5820    9.4650   -8.1500 C.ar  727  FNI727      0.0560
      6  C6        81.2160    9.7370   -7.9400 C.ar  727  FNI727      0.0251
      7  O7        84.6640    9.9790   -8.9480 O.2   727  FNI727     -0.4459
      8  C8        84.6190    8.7330   -8.2900 C.ar  727  FNI727      0.2155
      9  C9        83.3410    8.3440   -7.7680 C.ar  727  FNI727      0.1125
     10  C10       85.8330    7.9950   -8.2160 C.2   727  FNI727      0.3063
     11  N11       83.0670    7.2040   -7.1070 N.pl3 727  FNI727     -0.2091
     12  C12       82.0240    6.3790   -6.9570 C.ar  727  FNI727      0.0706
     13  C13       82.0540    5.4650   -5.8830 C.ar  727  FNI727      0.0166
     14  C14       80.9780    4.5780   -5.6820 C.ar  727  FNI727      0.0045
     15  C15       79.8730    4.6090   -6.5560 C.ar  727  FNI727      0.0390
     16  C16       79.8430    5.5250   -7.6310 C.ar  727  FNI727      0.0044
     17  C17       80.9190    6.4120   -7.8340 C.ar  727  FNI727      0.0166
     18  C18       78.7950    3.7230   -6.3540 C.ar  727  FNI727      0.1956
     19  C19       77.6890    3.7530   -7.2290 C.ar  727  FNI727      0.0420
     20  C20       77.6620    4.6690   -8.3030 C.ar  727  FNI727      0.0033
     21  C21       78.7390    5.5570   -8.5060 C.ar  727  FNI727      0.0002
     22  O22       85.7660    6.7680   -8.1670 O.2   727  FNI727     -0.2645
     23  O23       78.8180    2.8300   -5.3110 O.3   727  FNI727     -0.2866
     24  N24       86.9590    8.7190   -8.1670 N.am  727  FNI727     -0.1539
     25  C25       88.3110    8.3040   -8.0870 C.ar  727  FNI727      0.1582
     26  N26       89.3100    9.2030   -8.2530 N.ar  727  FNI727     -0.2071
     27  C27       90.5700    8.7380   -8.1670 C.ar  727  FNI727      0.2001
     28  N28       90.9260    7.4530   -7.9290 N.ar  727  FNI727     -0.2223
     29  C29       89.9430    6.5360   -7.7600 C.ar  727  FNI727      0.1036
     30  C30       88.5930    6.9370   -7.8340 C.ar  727  FNI727      0.0569
@<TRIPOS>BOND
     1     3     2   ar
     2     3     4   ar
     3     2     1   ar
     4     7     4   ar
     5     7     8   ar
     6     4     5   ar
     7    21    20   ar
     8    21    16   ar
     9     1     6   ar
    10    20    19   ar
    11     8    10    1
    12     8     9   ar
    13    26    27   ar
    14    26    25   ar
    15    10    24   am
    16    10    22    2
    17    27    28   ar
    18    24    25    1
    19     5     6   ar
    20     5     9   ar
    21    25    30   ar
    22    28    29   ar
    23    30    29   ar
    24    17    16   ar
    25    17    12   ar
    26     9    11    1
    27    16    15   ar
    28    19    18   ar
    29    11    12    1
    30    12    13   ar
    31    15    18   ar
    32    15    14   ar
    33    18    23    1
    34    13    14   ar
