@<TRIPOS>MOLECULE
3ppl_PLP_A_1.pdb
 16 16 0 0 0
SMALL
GASTEIGER

@<TRIPOS>ATOM
      1  N1         7.1280    4.4460   56.4550 N.ar  500  PLP500     -0.2452
      2  C2         7.1840    4.8300   57.7430 C.ar  500  PLP500      0.0979
      3  C2A        6.1940    4.2420   58.6910 C.3   500  PLP500      0.0555
      4  C3         8.1440    5.7570   58.1250 C.ar  500  PLP500      0.2073
      5  O3         8.1790    6.1650   59.4230 O.3   500  PLP500     -0.2856
      6  C4         8.9750    6.3330   57.1580 C.ar  500  PLP500      0.0506
      7  C4A       10.0090    7.3020   57.6260 C.3   500  PLP500      0.2116
      8  O4A       11.0610    6.7250   57.9690 O.3   500  PLP500     -0.2151
      9  C5         8.8320    5.9590   55.8210 C.ar  500  PLP500      0.0286
     10  C6         7.9080    4.9890   55.4940 C.ar  500  PLP500      0.0966
     11  C5A        9.6650    6.5490   54.7080 C.3   500  PLP500      0.1816
     12  O4P       10.2750    5.5520   53.9450 O.3   500  PLP500     -0.2653
     13  P         10.9140    5.7960   52.4960 P.3   500  PLP500      0.5329
     14  O1P       11.3490    4.4200   52.0720 O.3   500  PLP500     -0.1145
     15  O2P       12.0970    6.7350   52.6860 O.3   500  PLP500     -0.1145
     16  O3P        9.8520    6.3790   51.5830 O.2   500  PLP500     -0.2224
@<TRIPOS>BOND
     1    16    13    2
     2    14    13    1
     3    13    15    1
     4    13    12    1
     5    12    11    1
     6    11     9    1
     7    10     9   ar
     8    10     1   ar
     9     9     6   ar
    10     1     2   ar
    11     6     7    1
    12     6     4   ar
    13     7     8    1
    14     2     4   ar
    15     2     3    1
    16     4     5    1
