@<TRIPOS>MOLECULE
3ppm_1DO_B_1.pdb
 13 12 0 0 0
SMALL
GASTEIGER

@<TRIPOS>ATOM
      1  O2S       50.9680  -42.3350   39.0360 O.3   603  1DO603     -0.2204
      2  C1        51.0550  -41.0350   39.6270 C.3   603  1DO603      0.1821
      3  C2        51.2320  -41.1590   41.1440 C.3   603  1DO603      0.0355
      4  C3        50.0510  -41.8960   41.7750 C.3   603  1DO603      0.0027
      5  C4        50.1990  -42.0170   43.2930 C.3   603  1DO603      0.0001
      6  C5        48.9830  -42.7440   43.8620 C.3   603  1DO603      0.0000
      7  C6        47.7290  -41.9500   43.4930 C.3   603  1DO603      0.0000
      8  C7        46.4400  -42.5890   44.0090 C.3   603  1DO603      0.0000
      9  C8        45.2470  -41.7460   43.5540 C.3   603  1DO603      0.0000
     10  C9        45.2480  -41.6850   42.0210 C.3   603  1DO603      0.0000
     11  C10       44.0840  -40.8690   41.4610 C.3   603  1DO603      0.0000
     12  C11       44.1280  -40.8140   39.9290 C.3   603  1DO603      0.0000
     13  C12       44.0520  -42.2090   39.3060 C.3   603  1DO603      0.0000
@<TRIPOS>BOND
     1     1     2    1
     2    13    12    1
     3     2     3    1
     4    12    11    1
     5     3     4    1
     6    11    10    1
     7     4     5    1
     8    10     9    1
     9     5     6    1
    10     7     6    1
    11     7     8    1
    12     9     8    1
