@<TRIPOS>MOLECULE
3ppm_JG1_A_1.pdb
 25 27 0 0 0
SMALL
GASTEIGER

@<TRIPOS>ATOM
      1  N1        32.5530  -38.9130    7.6590 N.ar  600  JG1600     -0.2391
      2  C2        33.3950  -39.9450    7.8620 C.ar  600  JG1600      0.1362
      3  C3        32.9480  -41.0900    8.5190 C.ar  600  JG1600      0.0240
      4  C4        31.6140  -41.1470    8.9280 C.ar  600  JG1600      0.0033
      5  C5        30.7620  -40.0650    8.6830 C.ar  600  JG1600      0.0207
      6  C6        31.2820  -38.9480    8.0330 C.ar  600  JG1600      0.0990
      7  C7        34.7270  -39.8840    7.4470 C.ar  600  JG1600      0.2676
      8  N8        35.4270  -38.9000    6.8570 N.ar  600  JG1600     -0.1052
      9  N9        36.6060  -39.2610    6.6730 N.ar  600  JG1600     -0.1038
     10  C10       36.7190  -40.5270    7.0760 C.ar  600  JG1600      0.2849
     11  O11       35.5490  -40.9460    7.6310 O.2   600  JG1600     -0.4120
     12  C12       37.9700  -41.3810    7.1060 C.2   600  JG1600      0.2276
     13  C13       39.3180  -40.7480    6.7250 C.3   600  JG1600      0.0742
     14  O14       37.8830  -42.5650    7.4460 O.2   600  JG1600     -0.2863
     15  C15       40.4330  -41.7670    6.5250 C.3   600  JG1600      0.0083
     16  C16       41.7410  -41.0350    6.1990 C.3   600  JG1600      0.0005
     17  C17       42.8790  -42.0100    5.8940 C.3   600  JG1600      0.0004
     18  C18       43.2100  -42.9790    7.0220 C.3   600  JG1600      0.0047
     19  C19       44.3560  -43.8870    6.5650 C.3   600  JG1600      0.0264
     20  C20       44.7420  -44.9100    7.6380 C.ar  600  JG1600     -0.0222
     21  C21       44.9920  -46.2280    7.2710 C.ar  600  JG1600     -0.0043
     22  C22       45.3480  -47.1690    8.2330 C.ar  600  JG1600     -0.0003
     23  C23       45.4420  -46.7960    9.5690 C.ar  600  JG1600     -0.0000
     24  C24       45.1830  -45.4810    9.9370 C.ar  600  JG1600     -0.0003
     25  C25       44.8370  -44.5380    8.9720 C.ar  600  JG1600     -0.0043
@<TRIPOS>BOND
     1    17    16    1
     2    17    18    1
     3    16    15    1
     4    15    13    1
     5    19    18    1
     6    19    20    1
     7     9     8   ar
     8     9    10   ar
     9    13    12    1
    10     8     7   ar
    11    10    12    1
    12    10    11   ar
    13    12    14    2
    14    21    20   ar
    15    21    22   ar
    16     7    11   ar
    17     7     2    1
    18    20    25   ar
    19     1     2   ar
    20     1     6   ar
    21     2     3   ar
    22     6     5   ar
    23    22    23   ar
    24     3     4   ar
    25     5     4   ar
    26    25    24   ar
    27    23    24   ar
