@<TRIPOS>MOLECULE
3ppo_DCK_A_1.pdb
 11 10 0 0 0
SMALL
GASTEIGER

@<TRIPOS>ATOM
      1  C01       -1.7850   28.8330   10.4460 C.3   401  DCK401     -0.0954
      2  N02       -1.2470   29.6110    9.3430 N.4   401  DCK401      0.3905
      3  C03        0.1040   29.1220    9.2440 C.3   401  DCK401     -0.0954
      4  C04       -2.0410   29.2940    8.1790 C.3   401  DCK401     -0.0954
      5  C05       -1.1380   31.0360    9.6090 C.3   401  DCK401     -0.0064
      6  C06       -2.0710   32.1070    9.1030 C.2   401  DCK401      0.1419
      7  O07       -3.3200   31.9090    8.9030 O.2   401  DCK401     -0.2977
      8  C08       -1.7240   33.5170    9.5270 C.3   401  DCK401      0.1760
      9  C09       -2.9330   34.3940    9.6910 C.2   401  DCK401      0.3722
     10  O10       -4.0310   34.0050    9.7900 O.co2 401  DCK401     -0.2452
     11  O11       -2.5970   35.6490    9.4650 O.co2 401  DCK401     -0.2452
@<TRIPOS>BOND
     1     4     2    1
     2     7     6    2
     3     6     8    1
     4     6     5    1
     5     3     2    1
     6     2     5    1
     7     2     1    1
     8    11     9   ar
     9     8     9    1
    10     9    10   ar
