@<TRIPOS>MOLECULE
3ppr_4CS_A_1.pdb
 10 10 0 0 0
SMALL
GASTEIGER

@<TRIPOS>ATOM
      1  O         31.7120   12.8040    9.9750 O.co2 401  4CS401     -0.2435
      2  C         32.5830   13.2390    9.3870 C.2   401  4CS401      0.3875
      3  OXT       33.7780   12.6640    9.4210 O.co2 401  4CS401     -0.2435
      4  CA        32.5220   14.6700    8.8700 C.3   401  4CS401      0.2173
      5  CB        33.7870   15.3830    9.2650 C.3   401  4CS401      0.0639
      6  CAD       33.7550   16.8290    8.8800 C.3   401  4CS401      0.1386
      7  NAG       32.4780   17.4300    9.1480 N.2   401  4CS401     -0.2239
      8  CAI       31.3980   16.6850    9.6700 C.1   401  4CS401      0.0036
      9  CAA       30.1910   17.3770   10.2750 C.3   401  4CS401      0.1143
     10  N         31.3440   15.2880    9.3970 N.2   401  4CS401     -0.2144
@<TRIPOS>BOND
     1     4     5    1
     2     4     2    1
     3     4    10    1
     4     6     7    1
     5     6     5    1
     6     7     8    2
     7     2     3   ar
     8     2     1   ar
     9    10     8    2
    10     8     9    1
