@<TRIPOS>MOLECULE
3pps_MAN_A_1.pdb
 11 11 0 0 0
SMALL
GASTEIGER

@<TRIPOS>ATOM
      1  C1        24.8700   12.4920   28.3130 C.3   715  MAN715      0.1777
      2  C2        24.3930   13.0000   29.7010 C.3   715  MAN715      0.2141
      3  C3        23.0070   12.4690   30.0980 C.3   715  MAN715      0.2173
      4  C4        22.1260   12.8210   28.9130 C.3   715  MAN715      0.2142
      5  C5        22.6000   12.0750   27.6710 C.3   715  MAN715      0.1810
      6  C6        21.6500   12.4060   26.5360 C.3   715  MAN715      0.2141
      7  O2        24.2960   14.4090   29.4990 O.3   715  MAN715     -0.2176
      8  O3        22.5860   13.0630   31.2850 O.3   715  MAN715     -0.2175
      9  O4        20.7780   12.5690   29.1680 O.3   715  MAN715     -0.2176
     10  O5        23.8990   12.5550   27.2910 O.3   715  MAN715     -0.3481
     11  O6        21.2790   11.2080   25.9120 O.3   715  MAN715     -0.2176
@<TRIPOS>BOND
     1    11     6    1
     2     6     5    1
     3    10     5    1
     4    10     1    1
     5     5     4    1
     6     1     2    1
     7     4     9    1
     8     4     3    1
     9     7     2    1
    10     2     3    1
    11     3     8    1
