@<TRIPOS>MOLECULE
3ppt_PAM_A_1.pdb
 18 17 0 0 0
SMALL
GASTEIGER

@<TRIPOS>ATOM
      1  C1        15.3070   47.9860    4.7420 C.2   500  PAM500      0.3649
      2  O1        15.4220   47.6790    3.5280 O.co2 500  PAM500     -0.2457
      3  O2        15.4610   47.1350    5.6500 O.co2 500  PAM500     -0.2457
      4  C2        14.9780   49.4140    5.1460 C.3   500  PAM500      0.1141
      5  C3        14.5570   50.3000    3.9820 C.3   500  PAM500      0.0118
      6  C4        14.1800   51.6970    4.4710 C.3   500  PAM500      0.0006
      7  C5        13.6130   52.5270    3.3200 C.3   500  PAM500      0.0000
      8  C6        13.2360   53.9570    3.6950 C.3   500  PAM500      0.0003
      9  C7        12.2360   54.0180    4.8430 C.3   500  PAM500      0.0047
     10  C8        10.9310   53.3250    4.4750 C.3   500  PAM500      0.0257
     11  C9         9.9800   53.3720    5.6440 C.2   500  PAM500     -0.0307
     12  C10        8.7660   52.8200    5.5890 C.2   500  PAM500     -0.0307
     13  C11        8.2570   52.1050    4.3610 C.3   500  PAM500      0.0257
     14  C12        7.9320   50.6630    4.7200 C.3   500  PAM500      0.0047
     15  C13        8.9620   49.6930    4.1660 C.3   500  PAM500      0.0003
     16  C14        8.8030   49.5400    2.6590 C.3   500  PAM500      0.0000
     17  C15        9.7600   48.4770    2.1390 C.3   500  PAM500      0.0000
     18  C16        9.0900   47.5960    1.1130 C.3   500  PAM500      0.0000
@<TRIPOS>BOND
     1    18    17    1
     2    17    16    1
     3    16    15    1
     4     7     8    1
     5     7     6    1
     6     2     1   ar
     7     8     9    1
     8     5     6    1
     9     5     4    1
    10    15    14    1
    11    13    14    1
    12    13    12    1
    13    10     9    1
    14    10    11    1
    15     1     4    1
    16     1     3   ar
    17    12    11    2
