@<TRIPOS>MOLECULE
3ppu_GSH_A_1.pdb
 20 19 0 0 0
SMALL
GASTEIGER

@<TRIPOS>ATOM
      1  N1        28.8310   61.5140   19.5500 N.3   500  GSH500     -0.1208
      2  CA1       29.2640   61.7320   20.9350 C.3   500  GSH500      0.1948
      3  C1        29.3480   63.2180   21.1880 C.2   500  GSH500      0.3819
      4  O11       29.8530   63.9920   20.3620 O.co2 500  GSH500     -0.2441
      5  O12       28.9160   63.7010   22.2450 O.co2 500  GSH500     -0.2441
      6  CB1       30.6090   61.0500   21.2590 C.3   500  GSH500      0.0402
      7  CG1       30.9900   61.1200   22.7490 C.3   500  GSH500      0.0889
      8  CD1       32.0590   60.0940   23.1460 C.2   500  GSH500      0.2418
      9  OE1       32.1750   58.8690   22.4530 O.2   500  GSH500     -0.2733
     10  N2        32.8700   60.3600   24.1780 N.am  500  GSH500     -0.1968
     11  CA2       33.8670   59.3750   24.6280 C.3   500  GSH500      0.1843
     12  C2        33.4060   58.3680   25.6660 C.2   500  GSH500      0.2627
     13  O2        32.5730   58.7130   26.7380 O.2   500  GSH500     -0.2714
     14  CB2       35.1320   60.0750   25.1270 C.3   500  GSH500      0.0997
     15  SG2       36.3530   60.2560   23.8030 S.3   500  GSH500     -0.0797
     16  N3        33.8560   57.1290   25.5240 N.am  500  GSH500     -0.1917
     17  CA3       33.4420   56.0460   26.3980 C.3   500  GSH500      0.2285
     18  C3        33.3350   54.7670   25.6140 C.2   500  GSH500      0.3865
     19  O31       33.2830   54.8210   24.3670 O.co2 500  GSH500     -0.2437
     20  O32       33.3000   53.6500   26.1800 O.co2 500  GSH500     -0.2437
@<TRIPOS>BOND
     1     1     2    1
     2     4     3   ar
     3     2     3    1
     4     2     6    1
     5     3     5   ar
     6     6     7    1
     7     9     8    2
     8     7     8    1
     9     8    10   am
    10    15    14    1
    11    10    11    1
    12    19    18   ar
    13    11    14    1
    14    11    12    1
    15    16    12   am
    16    16    17    1
    17    18    20   ar
    18    18    17    1
    19    12    13    2
