@<TRIPOS>MOLECULE
3ppz_STU_A_1.pdb
 35 42 0 0 0
SMALL
GASTEIGER

@<TRIPOS>ATOM
      1  O4       -12.7140   41.5580   -6.3100 O.3     1  STU1       -0.3186
      2  C25      -13.9610   41.8190   -6.8760 C.3     1  STU1        0.2078
      3  C24      -14.7680   42.8650   -6.1260 C.3     1  STU1        0.0739
      4  C23      -13.8870   43.4520   -5.0180 C.3     1  STU1        0.1086
      5  C22      -13.4820   42.2840   -4.1110 C.3     1  STU1        0.1761
      6  C21      -12.6770   41.2950   -4.9380 C.3     1  STU1        0.1915
      7  C26      -11.2100   41.5370   -4.5650 C.3     1  STU1        0.0566
      8  N2       -13.0210   39.9130   -4.5830 N.ar    1  STU1       -0.3054
      9  C18      -13.9280   39.1440   -5.3060 C.ar    1  STU1        0.0774
     10  C19      -14.6770   39.4580   -6.4460 C.ar    1  STU1        0.0783
     11  C6       -15.5360   38.5110   -7.0110 C.ar    1  STU1        0.0293
     12  C7       -15.6460   37.2290   -6.4260 C.ar    1  STU1        0.0822
     13  C10      -14.8950   36.9250   -5.2970 C.ar    1  STU1        0.0154
     14  C11      -14.0440   37.8700   -4.7320 C.ar    1  STU1        0.0173
     15  C12      -13.1460   37.8750   -3.5810 C.ar    1  STU1        0.0171
     16  C17      -12.5430   39.1550   -3.5330 C.ar    1  STU1        0.0617
     17  C16      -11.6370   39.4450   -2.5140 C.ar    1  STU1        0.0172
     18  C15      -11.3510   38.4440   -1.6000 C.ar    1  STU1        0.0015
     19  C14      -11.9470   37.1980   -1.6570 C.ar    1  STU1        0.0001
     20  C13      -12.8530   36.8790   -2.6510 C.ar    1  STU1        0.0015
     21  C9       -15.2470   35.5030   -4.9260 C.3     1  STU1        0.1650
     22  N1       -16.3350   35.1060   -5.8270 N.2     1  STU1       -0.1976
     23  C8       -16.4610   36.0530   -6.7710 C.1     1  STU1        0.1501
     24  O5       -17.1840   35.9670   -7.7450 O.2     1  STU1       -0.2222
     25  C5       -16.1510   39.1680   -8.1610 C.ar    1  STU1        0.0180
     26  C20      -15.6140   40.4750   -8.2220 C.ar    1  STU1        0.0618
     27  C1       -16.0130   41.3610   -9.2220 C.ar    1  STU1        0.0172
     28  C2       -16.9290   40.8970  -10.1520 C.ar    1  STU1        0.0015
     29  C3       -17.4490   39.6170  -10.0930 C.ar    1  STU1        0.0001
     30  C4       -17.0810   38.7230   -9.1020 C.ar    1  STU1        0.0015
     31  N3       -14.7340   40.6110   -7.1510 N.ar    1  STU1       -0.3039
     32  O6       -14.6720   41.6370   -3.6580 O.3     1  STU1       -0.3478
     33  C27      -14.6160   41.6730   -2.2330 C.3     1  STU1        0.1743
     34  N4       -14.6470   44.4470   -4.2520 N.3     1  STU1       -0.2152
     35  C28      -13.7900   44.8850   -3.1440 C.3     1  STU1        0.1075
@<TRIPOS>BOND
     1    28    29   ar
     2    28    27   ar
     3    29    30   ar
     4    27    26   ar
     5    30    25   ar
     6    26    25   ar
     7    26    31   ar
     8    25    11   ar
     9    24    23    2
    10    31     2    1
    11    31    10   ar
    12    11    10   ar
    13    11    12   ar
    14     2     1    1
    15     2     3    1
    16    23    12    1
    17    23    22    2
    18    10     9   ar
    19    12    13   ar
    20     1     6    1
    21     3     4    1
    22    22    21    1
    23     9    14   ar
    24     9     8   ar
    25    13    21    1
    26    13    14   ar
    27     4    34    1
    28     4     5    1
    29     6     8    1
    30     6     7    1
    31     6     5    1
    32    14    15   ar
    33     8    16   ar
    34    34    35    1
    35     5    32    1
    36    32    33    1
    37    15    16   ar
    38    15    20   ar
    39    16    17   ar
    40    20    19   ar
    41    17    18   ar
    42    19    18   ar
