@<TRIPOS>MOLECULE
3pq2_HDE_A_1.pdb
 44 52 0 0 0
SMALL
GASTEIGER

@<TRIPOS>ATOM
      1 FE         -1.2400   -1.5440   21.5320 Fe    761  HDE761      0.0000
      2  NA         0.2140   -1.3580   20.1970 N.pl3 761  HDE761      0.0000
      3  NB        -2.0150    0.1650   20.8320 N.2   761  HDE761      0.0000
      4  NC        -2.6700   -1.7220   22.9520 N.ar  761  HDE761      0.0000
      5  ND        -0.4100   -3.2970   22.2950 N.2   761  HDE761      0.0000
      6  C1A        1.3130   -2.2550   20.0800 C.2   761  HDE761      0.0000
      7  O1A        2.3150   -3.2430   18.0940 O.3   761  HDE761      0.0000
      8  C1B       -1.8320    0.6740   19.5300 C.2   761  HDE761      0.0000
      9  C1C       -3.8600   -0.9390   23.0550 C.ar  761  HDE761      0.0000
     10  C1D       -0.8550   -4.1830   23.2230 C.2   761  HDE761      0.0000
     11  O1D        4.5010   -7.4970   20.9100 O.co2 761  HDE761      0.0000
     12  C2A        2.1510   -2.0260   18.8580 C.2   761  HDE761      0.0000
     13  O2A        4.0950   -4.5610   17.2960 O.2   761  HDE761      0.0000
     14  C2B       -2.8070    1.6630   19.2160 C.2   761  HDE761      0.0000
     15  C2C       -4.8880   -1.4530   23.8870 C.ar  761  HDE761      0.0000
     16  C2D       -0.0200   -5.2480   23.5420 C.2   761  HDE761      0.0000
     17  O2D        3.9560   -8.2960   22.8940 O.co2 761  HDE761      0.0000
     18  C3A        1.3950   -0.9370   18.0680 C.2   761  HDE761      0.0000
     19  C3B       -3.7450    1.6520   20.3620 C.2   761  HDE761      0.0000
     20  C3C       -4.3480   -2.7750   24.2680 C.ar  761  HDE761      0.0000
     21  C3D        1.1780   -4.9920   22.7240 C.2   761  HDE761      0.0000
     22  C4A        0.2070   -0.6190   18.9640 C.2   761  HDE761      0.0000
     23  C4B       -3.2630    0.6870   21.2260 C.2   761  HDE761      0.0000
     24  C4C       -3.0310   -2.9270   23.6250 C.ar  761  HDE761      0.0000
     25  C4D        0.8020   -3.7590   21.9940 C.2   761  HDE761      0.0000
     26  CAA        3.5600   -1.6260   19.3030 C.2   761  HDE761      0.0000
     27  CAB       -5.0340    2.4490   20.6140 C.3   761  HDE761      0.0000
     28  CAC       -5.0610   -3.8270   25.0900 C.3   761  HDE761      0.0000
     29  CAD        2.4670   -5.7430   22.6080 C.3   761  HDE761      0.0000
     30  CBA        4.5620   -2.6460   18.7430 C.2   761  HDE761      0.0000
     31  CBB       -5.4280    3.0530   19.3380 C.3   761  HDE761      0.0000
     32  CBC       -6.4980   -3.4430   25.1430 C.3   761  HDE761      0.0000
     33  CBD        2.3090   -6.9900   21.7130 C.3   761  HDE761      0.0000
     34  CGA        3.7020   -3.6090   17.9780 C.2   761  HDE761      0.0000
     35  CGD        3.6720   -7.6430   21.8490 C.2   761  HDE761      0.0000
     36  CHA        1.7020   -3.1130   21.0330 C.2   761  HDE761      0.0000
     37  CHB       -0.6530    0.3820   18.6980 C.2   761  HDE761      0.0000
     38  CHC       -3.8840    0.3980   22.5110 C.2   761  HDE761      0.0000
     39  CHD       -2.1690   -4.0920   23.8410 C.2   761  HDE761      0.0000
     40  CMA        2.2140    0.3410   17.7690 C.3   761  HDE761      0.0000
     41  CMB       -2.8250    2.4930   17.9490 C.3   761  HDE761      0.0000
     42  CMC       -6.2050   -0.8410   24.2530 C.3   761  HDE761      0.0000
     43  CMD       -0.2910   -6.3750   24.5130 C.3   761  HDE761      0.0000
     44  ONA        0.9860   -1.4340   16.7810 O.2   761  HDE761      0.0000
@<TRIPOS>BOND
     1    44    18    1
     2    13    34    2
     3    40    18    1
     4    41    14    1
     5    34     7    1
     6    34    30    1
     7    18    12    2
     8    18    22    1
     9     7    12    1
    10    37    22    2
    11    37     8    1
    12    30    26    2
    13    12    26    1
    14    12     6    1
    15    22     2    1
    16    14     8    1
    17    14    19    2
    18    31    27    1
    19     8     3    2
    20     6     2    1
    21     6    36    2
    22     2     1    1
    23    19    27    1
    24    19    23    1
    25     3    23    1
    26     3     1    1
    27    11    35   ar
    28    36    25    1
    29    23    38    2
    30     1     5    1
    31     1     4    1
    32    33    35    1
    33    33    29    1
    34    35    17   ar
    35    25     5    2
    36    25    21    1
    37     5    10    1
    38    38     9    1
    39    29    21    1
    40    21    16    2
    41     4     9   ar
    42     4    24   ar
    43     9    15   ar
    44    10    16    1
    45    10    39    2
    46    16    43    1
    47    24    39    1
    48    24    20   ar
    49    15    42    1
    50    15    20   ar
    51    20    28    1
    52    28    32    1
