@<TRIPOS>MOLECULE
3pq2_HDD_A_1.pdb
 44 52 0 0 0
SMALL
GASTEIGER

@<TRIPOS>ATOM
      1 FE         -1.6300   -1.7780   21.6380 Fe    760  HDD760      0.0000
      2  CHA        1.4530   -3.2150   21.2100 C.2   760  HDD760      0.0000
      3  CHB       -2.3280   -4.0290   24.2010 C.2   760  HDD760      0.0000
      4  CHC       -4.5030   -0.0880   22.4150 C.2   760  HDD760      0.0000
      5  CHD       -1.0280    0.3810   19.0290 C.2   760  HDD760      0.0000
      6  NA        -0.6870   -3.2570   22.4980 N.2   760  HDD760      0.0000
      7  C1A        0.5800   -3.7060   22.1520 C.2   760  HDD760      0.0000
      8  C2A        0.9150   -4.8490   23.0030 C.2   760  HDD760      0.0000
      9  C3A       -0.1090   -5.0600   23.8140 C.2   760  HDD760      0.0000
     10  C4A       -1.1400   -4.0840   23.5220 C.2   760  HDD760      0.0000
     11  CMA       -0.2120   -6.1900   24.8620 C.3   760  HDD760      0.0000
     12  CAA        2.2290   -5.6650   22.9640 C.3   760  HDD760      0.0000
     13  CBA        2.0710   -6.9400   22.0820 C.3   760  HDD760      0.0000
     14  CGA        3.4110   -7.6520   22.1590 C.2   760  HDD760      0.0000
     15  O1A        4.1970   -7.5740   21.1820 O.co2 760  HDD760      0.0000
     16  O2A        3.7110   -8.3310   23.1920 O.co2 760  HDD760      0.0000
     17  NB        -3.1580   -2.0310   23.0400 N.ar  760  HDD760      0.0000
     18  C1B       -3.2340   -3.0110   24.0240 C.ar  760  HDD760      0.0000
     19  C2B       -4.4550   -2.8180   24.7720 C.ar  760  HDD760      0.0000
     20  C3B       -5.0670   -1.7400   24.2850 C.ar  760  HDD760      0.0000
     21  C4B       -4.2490   -1.1980   23.1800 C.ar  760  HDD760      0.0000
     22  CMB       -5.0150   -3.7190   25.8930 C.3   760  HDD760      0.0000
     23  CAB       -6.4140   -1.2470   24.8290 C.2   760  HDD760      0.0000
     24  CBB       -7.4810   -1.5610   24.0880 C.2   760  HDD760      0.0000
     25  NC        -2.5880   -0.1940   20.8540 N.2   760  HDD760      0.0000
     26  C1C       -3.7470    0.3830   21.3630 C.2   760  HDD760      0.0000
     27  C2C       -3.9620    1.6320   20.6590 C.2   760  HDD760      0.0000
     28  C3C       -3.1130    1.6810   19.6280 C.2   760  HDD760      0.0000
     29  C4C       -2.1410    0.5890   19.8050 C.2   760  HDD760      0.0000
     30  CMC       -5.2800    2.4840   20.7600 C.3   760  HDD760      0.0000
     31  CAC       -3.0010    2.7730   18.5360 C.2   760  HDD760      0.0000
     32  CBC       -4.0800    2.9770   17.7270 C.2   760  HDD760      0.0000
     33  ND         0.0040   -1.4720   20.3290 N.pl3 760  HDD760      0.0000
     34  C1D        0.0060   -0.5220   19.2960 C.2   760  HDD760      0.0000
     35  C2D        1.2380   -0.6700   18.5550 C.2   760  HDD760      0.0000
     36  C3D        2.0730   -1.8040   19.2060 C.2   760  HDD760      0.0000
     37  C4D        1.2090   -2.1900   20.3180 C.2   760  HDD760      0.0000
     38  CMD        1.9620    0.6990   18.5110 C.3   760  HDD760      0.0000
     39  CAD        3.5710   -1.5750   19.5390 C.3   760  HDD760      0.0000
     40  CBD        4.2300   -2.1090   18.2460 C.3   760  HDD760      0.0000
     41  CGD        3.3710   -3.3400   18.0370 C.2   760  HDD760      0.0000
     42  O1D        2.1410   -2.8930   18.3840 O.3   760  HDD760      0.0000
     43  O2D        3.5230   -4.2640   17.1620 O.2   760  HDD760      0.0000
     44  OND        0.9270   -1.0250   17.1690 O.2   760  HDD760      0.0000
@<TRIPOS>BOND
     1    43    41    2
     2    44    35    1
     3    32    31    2
     4    41    40    1
     5    41    42    1
     6    40    39    1
     7    42    36    1
     8    38    35    1
     9    31    28    1
    10    35    36    2
    11    35    34    1
    12     5    34    2
    13     5    29    1
    14    36    39    1
    15    36    37    1
    16    34    33    1
    17    28    29    1
    18    28    27    2
    19    29    25    2
    20    37    33    1
    21    37     2    2
    22    33     1    1
    23    27    30    1
    24    27    26    1
    25    25    26    1
    26    25     1    1
    27    15    14   ar
    28     2     7    1
    29    26     4    2
    30     1     6    1
    31     1    17    1
    32    13    14    1
    33    13    12    1
    34     7     6    2
    35     7     8    1
    36    14    16   ar
    37     4    21    1
    38     6    10    1
    39    12     8    1
    40     8     9    2
    41    17    21   ar
    42    17    18   ar
    43    21    20   ar
    44    10     9    1
    45    10     3    2
    46     9    11    1
    47    18     3    1
    48    18    19   ar
    49    24    23    2
    50    20    19   ar
    51    20    23    1
    52    19    22    1
