@<TRIPOS>MOLECULE
3pq3_HDE_A_1.pdb
 44 52 0 0 0
SMALL
GASTEIGER

@<TRIPOS>ATOM
      1 FE         -1.2240   -1.5470   21.5410 Fe    761  HDE761      0.0000
      2  NA         0.2630   -1.3520   20.2070 N.pl3 761  HDE761      0.0000
      3  NB        -1.9900    0.1590   20.8290 N.2   761  HDE761      0.0000
      4  NC        -2.6690   -1.7440   22.9430 N.ar  761  HDE761      0.0000
      5  ND        -0.3860   -3.2900   22.3030 N.2   761  HDE761      0.0000
      6  C1A        1.3560   -2.2830   20.0680 C.2   761  HDE761      0.0000
      7  O1A        2.3650   -3.3310   18.0860 O.3   761  HDE761      0.0000
      8  C1B       -1.7940    0.6700   19.5280 C.2   761  HDE761      0.0000
      9  C1C       -3.8610   -0.9680   23.0270 C.ar  761  HDE761      0.0000
     10  C1D       -0.8270   -4.1850   23.2560 C.2   761  HDE761      0.0000
     11  O1D        4.4710   -7.5140   20.9010 O.co2 761  HDE761      0.0000
     12  C2A        2.1750   -2.1060   18.8240 C.2   761  HDE761      0.0000
     13  O2A        4.1660   -4.6640   17.3050 O.2   761  HDE761      0.0000
     14  C2B       -2.7720    1.6320   19.1910 C.2   761  HDE761      0.0000
     15  C2C       -4.8960   -1.4660   23.8520 C.ar  761  HDE761      0.0000
     16  C2D        0.0180   -5.2480   23.5480 C.2   761  HDE761      0.0000
     17  O2D        4.0110   -8.2180   22.9370 O.co2 761  HDE761      0.0000
     18  C3A        1.3720   -1.0370   18.0440 C.2   761  HDE761      0.0000
     19  C3B       -3.7410    1.6120   20.3160 C.2   761  HDE761      0.0000
     20  C3C       -4.3450   -2.7830   24.2590 C.ar  761  HDE761      0.0000
     21  C3D        1.2300   -4.9920   22.7370 C.2   761  HDE761      0.0000
     22  C4A        0.2480   -0.6380   18.9770 C.2   761  HDE761      0.0000
     23  C4B       -3.2450    0.6590   21.1920 C.2   761  HDE761      0.0000
     24  C4C       -3.0140   -2.9420   23.6330 C.ar  761  HDE761      0.0000
     25  C4D        0.8530   -3.7440   22.0010 C.2   761  HDE761      0.0000
     26  CAA        3.6000   -1.7080   19.2270 C.2   761  HDE761      0.0000
     27  CAB       -5.0360    2.3800   20.5580 C.3   761  HDE761      0.0000
     28  CAC       -4.9890   -3.8570   25.0920 C.3   761  HDE761      0.0000
     29  CAD        2.5220   -5.7660   22.6140 C.3   761  HDE761      0.0000
     30  CBA        4.6170   -2.6810   18.6260 C.2   761  HDE761      0.0000
     31  CBB       -5.4990    3.0460   19.3270 C.3   761  HDE761      0.0000
     32  CBC       -6.4530   -3.7010   24.9470 C.3   761  HDE761      0.0000
     33  CBD        2.3330   -7.0110   21.7680 C.3   761  HDE761      0.0000
     34  CGA        3.7530   -3.6870   17.9330 C.2   761  HDE761      0.0000
     35  CGD        3.6920   -7.6330   21.8810 C.2   761  HDE761      0.0000
     36  CHA        1.7540   -3.1280   21.0140 C.2   761  HDE761      0.0000
     37  CHB       -0.5850    0.3850   18.7230 C.2   761  HDE761      0.0000
     38  CHC       -3.8620    0.3610   22.4610 C.2   761  HDE761      0.0000
     39  CHD       -2.1530   -4.1080   23.8890 C.2   761  HDE761      0.0000
     40  CMA        2.2410    0.1810   17.7160 C.3   761  HDE761      0.0000
     41  CMB       -2.8010    2.4460   17.9300 C.3   761  HDE761      0.0000
     42  CMC       -6.2160   -0.8020   24.1850 C.3   761  HDE761      0.0000
     43  CMD       -0.2620   -6.3680   24.5200 C.3   761  HDE761      0.0000
     44  ONA        0.8500   -1.5170   16.7910 O.2   761  HDE761      0.0000
@<TRIPOS>BOND
     1    44    18    1
     2    13    34    2
     3    40    18    1
     4    41    14    1
     5    34     7    1
     6    34    30    1
     7    18    12    2
     8    18    22    1
     9     7    12    1
    10    30    26    2
    11    37    22    2
    12    37     8    1
    13    12    26    1
    14    12     6    1
    15    22     2    1
    16    14     8    1
    17    14    19    2
    18    31    27    1
    19     8     3    2
    20     6     2    1
    21     6    36    2
    22     2     1    1
    23    19    27    1
    24    19    23    1
    25     3    23    1
    26     3     1    1
    27    11    35   ar
    28    36    25    1
    29    23    38    2
    30     1     5    1
    31     1     4    1
    32    33    35    1
    33    33    29    1
    34    35    17   ar
    35    25     5    2
    36    25    21    1
    37     5    10    1
    38    38     9    1
    39    29    21    1
    40    21    16    2
    41     4     9   ar
    42     4    24   ar
    43     9    15   ar
    44    10    16    1
    45    10    39    2
    46    16    43    1
    47    24    39    1
    48    24    20   ar
    49    15    42    1
    50    15    20   ar
    51    20    28    1
    52    32    28    1
