@<TRIPOS>MOLECULE
3pq3_HDD_A_1.pdb
 44 52 0 0 0
SMALL
GASTEIGER

@<TRIPOS>ATOM
      1 FE         -1.6590   -1.7690   21.6530 Fe    760  HDD760      0.0000
      2  CHA        1.4610   -3.1680   21.2200 C.2   760  HDD760      0.0000
      3  CHB       -2.3690   -4.0580   24.2320 C.2   760  HDD760      0.0000
      4  CHC       -4.4770   -0.0360   22.4230 C.2   760  HDD760      0.0000
      5  CHD       -1.0510    0.3790   18.9860 C.2   760  HDD760      0.0000
      6  NA        -0.6920   -3.2180   22.5110 N.2   760  HDD760      0.0000
      7  C1A        0.5930   -3.6590   22.1620 C.2   760  HDD760      0.0000
      8  C2A        0.8940   -4.8570   22.9890 C.2   760  HDD760      0.0000
      9  C3A       -0.1740   -5.0650   23.7670 C.2   760  HDD760      0.0000
     10  C4A       -1.1710   -4.0790   23.5240 C.2   760  HDD760      0.0000
     11  CMA       -0.3660   -6.1760   24.8060 C.3   760  HDD760      0.0000
     12  CAA        2.1890   -5.7180   22.9880 C.3   760  HDD760      0.0000
     13  CBA        2.0710   -7.0370   22.2120 C.3   760  HDD760      0.0000
     14  CGA        3.4320   -7.6610   22.2300 C.2   760  HDD760      0.0000
     15  O1A        4.1970   -7.5480   21.2140 O.co2 760  HDD760      0.0000
     16  O2A        3.7530   -8.3190   23.2480 O.co2 760  HDD760      0.0000
     17  NB        -3.1250   -2.0350   23.0550 N.ar  760  HDD760      0.0000
     18  C1B       -3.2490   -3.0220   24.0400 C.ar  760  HDD760      0.0000
     19  C2B       -4.4900   -2.7970   24.7630 C.ar  760  HDD760      0.0000
     20  C3B       -5.0370   -1.6940   24.2720 C.ar  760  HDD760      0.0000
     21  C4B       -4.2220   -1.1780   23.1660 C.ar  760  HDD760      0.0000
     22  CMB       -5.1000   -3.6390   25.8920 C.3   760  HDD760      0.0000
     23  CAB       -6.3640   -1.1270   24.7760 C.3   760  HDD760      0.0000
     24  CBB       -7.4080   -1.6060   24.1100 C.3   760  HDD760      0.0000
     25  NC        -2.6130   -0.1320   20.8260 N.2   760  HDD760      0.0000
     26  C1C       -3.7400    0.4770   21.3580 C.2   760  HDD760      0.0000
     27  C2C       -4.0170    1.6530   20.5220 C.2   760  HDD760      0.0000
     28  C3C       -3.0510    1.7600   19.6120 C.2   760  HDD760      0.0000
     29  C4C       -2.1450    0.6320   19.7820 C.2   760  HDD760      0.0000
     30  CMC       -5.1520    2.7130   20.6690 C.3   760  HDD760      0.0000
     31  CAC       -2.9030    2.8180   18.5130 C.2   760  HDD760      0.0000
     32  CBC       -3.9770    3.0200   17.7240 C.2   760  HDD760      0.0000
     33  ND        -0.0050   -1.4600   20.2900 N.pl3 760  HDD760      0.0000
     34  C1D       -0.0110   -0.5050   19.2730 C.2   760  HDD760      0.0000
     35  C2D        1.1820   -0.6720   18.5050 C.2   760  HDD760      0.0000
     36  C3D        2.0350   -1.7740   19.1920 C.2   760  HDD760      0.0000
     37  C4D        1.2010   -2.1730   20.3060 C.2   760  HDD760      0.0000
     38  CMD        1.7970    0.7160   18.3000 C.3   760  HDD760      0.0000
     39  CAD        3.5400   -1.6060   19.5160 C.3   760  HDD760      0.0000
     40  CBD        4.1190   -2.0360   18.1870 C.3   760  HDD760      0.0000
     41  CGD        3.2720   -3.2840   18.0480 C.2   760  HDD760      0.0000
     42  O1D        2.0420   -2.8130   18.3100 O.3   760  HDD760      0.0000
     43  O2D        3.4720   -4.2730   17.3030 O.2   760  HDD760      0.0000
     44  OND        0.8670   -1.1970   17.1640 O.2   760  HDD760      0.0000
@<TRIPOS>BOND
     1    44    35    1
     2    43    41    2
     3    32    31    2
     4    41    40    1
     5    41    42    1
     6    40    39    1
     7    38    35    1
     8    42    36    1
     9    35    36    2
    10    35    34    1
    11    31    28    1
    12     5    34    2
    13     5    29    1
    14    36    39    1
    15    36    37    1
    16    34    33    1
    17    28    29    1
    18    28    27    2
    19    29    25    2
    20    33    37    1
    21    33     1    1
    22    37     2    2
    23    27    30    1
    24    27    26    1
    25    25    26    1
    26    25     1    1
    27    15    14   ar
    28     2     7    1
    29    26     4    2
    30     1     6    1
    31     1    17    1
    32     7     6    2
    33     7     8    1
    34    13    14    1
    35    13    12    1
    36    14    16   ar
    37     4    21    1
    38     6    10    1
    39    12     8    1
    40     8     9    2
    41    17    21   ar
    42    17    18   ar
    43    21    20   ar
    44    10     9    1
    45    10     3    2
    46     9    11    1
    47    18     3    1
    48    18    19   ar
    49    24    23    1
    50    20    19   ar
    51    20    23    1
    52    19    22    1
