@<TRIPOS>MOLECULE
3pq4_HDE_A_1.pdb
 44 52 0 0 0
SMALL
GASTEIGER

@<TRIPOS>ATOM
      1 FE         -1.1990   -1.5650   21.5620 Fe    761  HDE761      0.0000
      2  NA         0.2990   -1.3790   20.2460 N.pl3 761  HDE761      0.0000
      3  NB        -1.9710    0.1500   20.8740 N.2   761  HDE761      0.0000
      4  NC        -2.6650   -1.7370   22.9520 N.ar  761  HDE761      0.0000
      5  ND        -0.3640   -3.3170   22.3120 N.2   761  HDE761      0.0000
      6  C1A        1.3750   -2.3030   20.0700 C.2   761  HDE761      0.0000
      7  O1A        2.3020   -3.2740   18.0260 O.3   761  HDE761      0.0000
      8  C1B       -1.7610    0.6760   19.5750 C.2   761  HDE761      0.0000
      9  C1C       -3.8830   -0.9810   23.0200 C.ar  761  HDE761      0.0000
     10  C1D       -0.8070   -4.1820   23.2680 C.2   761  HDE761      0.0000
     11  O1D        4.4990   -7.5480   20.8450 O.co2 761  HDE761      0.0000
     12  C2A        2.2000   -2.0850   18.8270 C.2   761  HDE761      0.0000
     13  O2A        3.9600   -4.7640   17.2470 O.2   761  HDE761      0.0000
     14  C2B       -2.7680    1.5860   19.1890 C.2   761  HDE761      0.0000
     15  C2C       -4.9220   -1.5250   23.8260 C.ar  761  HDE761      0.0000
     16  C2D        0.0090   -5.2540   23.5790 C.2   761  HDE761      0.0000
     17  O2D        3.9530   -8.3090   22.8670 O.co2 761  HDE761      0.0000
     18  C3A        1.4520   -0.9380   18.1330 C.2   761  HDE761      0.0000
     19  C3B       -3.7660    1.5400   20.2860 C.2   761  HDE761      0.0000
     20  C3C       -4.3530   -2.8170   24.2480 C.ar  761  HDE761      0.0000
     21  C3D        1.1910   -5.0290   22.7230 C.2   761  HDE761      0.0000
     22  C4A        0.3030   -0.6050   19.0590 C.2   761  HDE761      0.0000
     23  C4B       -3.2500    0.6340   21.1940 C.2   761  HDE761      0.0000
     24  C4C       -3.0020   -2.9430   23.6390 C.ar  761  HDE761      0.0000
     25  C4D        0.8360   -3.7820   21.9970 C.2   761  HDE761      0.0000
     26  CAA        3.6490   -1.7510   19.1520 C.2   761  HDE761      0.0000
     27  CAB       -5.1090    2.2340   20.4830 C.3   761  HDE761      0.0000
     28  CAC       -5.0550   -3.8670   25.0860 C.3   761  HDE761      0.0000
     29  CAD        2.4850   -5.7620   22.5670 C.3   761  HDE761      0.0000
     30  CBA        4.5830   -2.8300   18.6090 C.2   761  HDE761      0.0000
     31  CBB       -5.3670    3.1420   19.3570 C.3   761  HDE761      0.0000
     32  CBC       -6.4980   -3.5470   25.0530 C.3   761  HDE761      0.0000
     33  CBD        2.3220   -7.0570   21.7890 C.3   761  HDE761      0.0000
     34  CGA        3.6540   -3.7510   17.8900 C.2   761  HDE761      0.0000
     35  CGD        3.7050   -7.6590   21.8410 C.2   761  HDE761      0.0000
     36  CHA        1.7290   -3.1890   20.9920 C.2   761  HDE761      0.0000
     37  CHB       -0.5240    0.4230   18.7940 C.2   761  HDE761      0.0000
     38  CHC       -3.9310    0.3460   22.4400 C.2   761  HDE761      0.0000
     39  CHD       -2.1050   -4.0640   23.9010 C.2   761  HDE761      0.0000
     40  CMA        2.3240    0.2990   17.9120 C.3   761  HDE761      0.0000
     41  CMB       -2.8030    2.3810   17.8990 C.3   761  HDE761      0.0000
     42  CMC       -6.2980   -0.9710   24.1570 C.3   761  HDE761      0.0000
     43  CMD       -0.3140   -6.3380   24.5850 C.3   761  HDE761      0.0000
     44  ONA        0.9250   -1.3190   16.8410 O.2   761  HDE761      0.0000
@<TRIPOS>BOND
     1    44    18    1
     2    13    34    2
     3    34     7    1
     4    34    30    1
     5    41    14    1
     6    40    18    1
     7     7    12    1
     8    18    12    2
     9    18    22    1
    10    30    26    2
    11    37    22    2
    12    37     8    1
    13    12    26    1
    14    12     6    1
    15    22     2    1
    16    14     8    1
    17    14    19    2
    18    31    27    1
    19     8     3    2
    20     6     2    1
    21     6    36    2
    22     2     1    1
    23    19    27    1
    24    19    23    1
    25    11    35   ar
    26     3    23    1
    27     3     1    1
    28    36    25    1
    29    23    38    2
    30     1     5    1
    31     1     4    1
    32    33    35    1
    33    33    29    1
    34    35    17   ar
    35    25     5    2
    36    25    21    1
    37     5    10    1
    38    38     9    1
    39    29    21    1
    40    21    16    2
    41     4     9   ar
    42     4    24   ar
    43     9    15   ar
    44    10    16    1
    45    10    39    2
    46    16    43    1
    47    24    39    1
    48    24    20   ar
    49    15    42    1
    50    15    20   ar
    51    20    28    1
    52    32    28    1
