@<TRIPOS>MOLECULE
3pq4_HDD_A_1.pdb
 44 52 0 0 0
SMALL
GASTEIGER

@<TRIPOS>ATOM
      1 FE         -1.6550   -1.7670   21.6270 Fe    760  HDD760      0.0000
      2  CHA        1.4570   -3.1970   21.1850 C.2   760  HDD760      0.0000
      3  CHB       -2.3130   -4.0050   24.1730 C.2   760  HDD760      0.0000
      4  CHC       -4.5330   -0.0230   22.4150 C.2   760  HDD760      0.0000
      5  CHD       -1.0520    0.3250   18.9900 C.2   760  HDD760      0.0000
      6  NA        -0.6270   -3.2480   22.5000 N.2   760  HDD760      0.0000
      7  C1A        0.6220   -3.7010   22.1480 C.2   760  HDD760      0.0000
      8  C2A        0.9240   -4.8750   22.9800 C.2   760  HDD760      0.0000
      9  C3A       -0.1120   -5.0700   23.7900 C.2   760  HDD760      0.0000
     10  C4A       -1.1170   -4.0810   23.5100 C.2   760  HDD760      0.0000
     11  CMA       -0.2720   -6.1710   24.8500 C.3   760  HDD760      0.0000
     12  CAA        2.2260   -5.7170   22.9580 C.3   760  HDD760      0.0000
     13  CBA        2.1130   -7.0440   22.1740 C.3   760  HDD760      0.0000
     14  CGA        3.5090   -7.6220   22.2400 C.2   760  HDD760      0.0000
     15  O1A        4.3330   -7.5030   21.2730 O.co2 760  HDD760      0.0000
     16  O2A        3.8120   -8.2510   23.2720 O.co2 760  HDD760      0.0000
     17  NB        -3.1370   -1.9900   23.0310 N.ar  760  HDD760      0.0000
     18  C1B       -3.2200   -2.9920   24.0010 C.ar  760  HDD760      0.0000
     19  C2B       -4.4500   -2.7830   24.7630 C.ar  760  HDD760      0.0000
     20  C3B       -5.0470   -1.7010   24.2810 C.ar  760  HDD760      0.0000
     21  C4B       -4.2490   -1.1500   23.1750 C.ar  760  HDD760      0.0000
     22  CMB       -5.0650   -3.6360   25.8970 C.3   760  HDD760      0.0000
     23  CAB       -6.3870   -1.2000   24.8670 C.2   760  HDD760      0.0000
     24  CBB       -7.5240   -1.7840   24.5400 C.2   760  HDD760      0.0000
     25  NC        -2.6540   -0.1640   20.8410 N.2   760  HDD760      0.0000
     26  C1C       -3.7890    0.4690   21.3470 C.2   760  HDD760      0.0000
     27  C2C       -3.9740    1.7130   20.5740 C.2   760  HDD760      0.0000
     28  C3C       -3.0860    1.6920   19.5810 C.2   760  HDD760      0.0000
     29  C4C       -2.1670    0.5860   19.7870 C.2   760  HDD760      0.0000
     30  CMC       -5.2110    2.6810   20.5650 C.3   760  HDD760      0.0000
     31  CAC       -2.9260    2.7570   18.4700 C.2   760  HDD760      0.0000
     32  CBC       -4.0340    3.0910   17.7900 C.2   760  HDD760      0.0000
     33  ND        -0.0130   -1.4790   20.2800 N.pl3 760  HDD760      0.0000
     34  C1D       -0.0110   -0.5520   19.2570 C.2   760  HDD760      0.0000
     35  C2D        1.2010   -0.7010   18.4920 C.2   760  HDD760      0.0000
     36  C3D        2.0230   -1.8040   19.1740 C.2   760  HDD760      0.0000
     37  C4D        1.1950   -2.1790   20.2990 C.2   760  HDD760      0.0000
     38  CMD        1.8750    0.6690   18.3410 C.3   760  HDD760      0.0000
     39  CAD        3.4950   -1.5920   19.5510 C.3   760  HDD760      0.0000
     40  CBD        4.1730   -2.1350   18.3180 C.3   760  HDD760      0.0000
     41  CGD        3.2840   -3.3010   17.9970 C.2   760  HDD760      0.0000
     42  O1D        2.0590   -2.9080   18.3700 O.3   760  HDD760      0.0000
     43  O2D        3.5150   -4.3140   17.2640 O.2   760  HDD760      0.0000
     44  OND        0.9010   -1.1040   17.0830 O.2   760  HDD760      0.0000
@<TRIPOS>BOND
     1    44    35    1
     2    43    41    2
     3    32    31    2
     4    41    40    1
     5    41    42    1
     6    40    39    1
     7    38    35    1
     8    42    36    1
     9    31    28    1
    10    35    36    2
    11    35    34    1
    12     5    34    2
    13     5    29    1
    14    36    39    1
    15    36    37    1
    16    34    33    1
    17    28    29    1
    18    28    27    2
    19    29    25    2
    20    33    37    1
    21    33     1    1
    22    37     2    2
    23    30    27    1
    24    27    26    1
    25    25    26    1
    26    25     1    1
    27     2     7    1
    28    15    14   ar
    29    26     4    2
    30     1     6    1
    31     1    17    1
    32     7     6    2
    33     7     8    1
    34    13    14    1
    35    13    12    1
    36    14    16   ar
    37     4    21    1
    38     6    10    1
    39    12     8    1
    40     8     9    2
    41    17    21   ar
    42    17    18   ar
    43    21    20   ar
    44    10     9    1
    45    10     3    2
    46     9    11    1
    47    18     3    1
    48    18    19   ar
    49    20    19   ar
    50    20    23    1
    51    24    23    2
    52    19    22    1
