@<TRIPOS>MOLECULE
3pq5_HDE_A_1.pdb
 44 52 0 0 0
SMALL
GASTEIGER

@<TRIPOS>ATOM
      1 FE         -1.2310   -1.5760   21.5220 Fe    761  HDE761      0.0000
      2  NA         0.2580   -1.3680   20.1950 N.pl3 761  HDE761      0.0000
      3  NB        -1.9990    0.1260   20.7970 N.2   761  HDE761      0.0000
      4  NC        -2.6900   -1.7760   22.9310 N.ar  761  HDE761      0.0000
      5  ND        -0.4090   -3.3100   22.2970 N.2   761  HDE761      0.0000
      6  C1A        1.3440   -2.3100   20.0720 C.2   761  HDE761      0.0000
      7  O1A        2.4140   -3.3210   18.1100 O.3   761  HDE761      0.0000
      8  C1B       -1.8340    0.6320   19.4810 C.2   761  HDE761      0.0000
      9  C1C       -3.8920   -0.9920   22.9960 C.ar  761  HDE761      0.0000
     10  C1D       -0.8620   -4.1940   23.2320 C.2   761  HDE761      0.0000
     11  O1D        4.5360   -7.5350   20.9870 O.co2 761  HDE761      0.0000
     12  C2A        2.2040   -2.1040   18.8650 C.2   761  HDE761      0.0000
     13  O2A        4.2170   -4.6060   17.2620 O.2   761  HDE761      0.0000
     14  C2B       -2.8520    1.5780   19.1670 C.2   761  HDE761      0.0000
     15  C2C       -4.9460   -1.5310   23.7870 C.ar  761  HDE761      0.0000
     16  C2D       -0.0330   -5.2730   23.5370 C.2   761  HDE761      0.0000
     17  O2D        3.9320   -8.3310   22.9420 O.co2 761  HDE761      0.0000
     18  C3A        1.4470   -0.9950   18.0960 C.2   761  HDE761      0.0000
     19  C3B       -3.7860    1.5670   20.3120 C.2   761  HDE761      0.0000
     20  C3C       -4.4150   -2.8570   24.1890 C.ar  761  HDE761      0.0000
     21  C3D        1.1530   -5.0300   22.7030 C.2   761  HDE761      0.0000
     22  C4A        0.2450   -0.6520   18.9520 C.2   761  HDE761      0.0000
     23  C4B       -3.2650    0.6210   21.1750 C.2   761  HDE761      0.0000
     24  C4C       -3.0580   -2.9740   23.6110 C.ar  761  HDE761      0.0000
     25  C4D        0.8050   -3.7840   21.9930 C.2   761  HDE761      0.0000
     26  CAA        3.6080   -1.7210   19.3130 C.2   761  HDE761      0.0000
     27  CAB       -5.0920    2.3250   20.5460 C.3   761  HDE761      0.0000
     28  CAC       -5.1400   -3.9300   24.9810 C.3   761  HDE761      0.0000
     29  CAD        2.4500   -5.7690   22.5760 C.3   761  HDE761      0.0000
     30  CBA        4.6480   -2.6330   18.6480 C.2   761  HDE761      0.0000
     31  CBB       -5.4470    3.0640   19.3200 C.3   761  HDE761      0.0000
     32  CBC       -6.5500   -3.4650   25.1000 C.3   761  HDE761      0.0000
     33  CBD        2.3200   -7.0650   21.7750 C.3   761  HDE761      0.0000
     34  CGA        3.8120   -3.6430   17.9280 C.2   761  HDE761      0.0000
     35  CGD        3.6890   -7.6820   21.9090 C.2   761  HDE761      0.0000
     36  CHA        1.7110   -3.1650   21.0080 C.2   761  HDE761      0.0000
     37  CHB       -0.6430    0.3190   18.6330 C.2   761  HDE761      0.0000
     38  CHC       -3.8780    0.3460   22.4570 C.2   761  HDE761      0.0000
     39  CHD       -2.1750   -4.1260   23.8600 C.2   761  HDE761      0.0000
     40  CMA        2.2680    0.2770   17.7720 C.3   761  HDE761      0.0000
     41  CMB       -2.9730    2.3960   17.9120 C.3   761  HDE761      0.0000
     42  CMC       -6.3040   -0.9290   24.0730 C.3   761  HDE761      0.0000
     43  CMD       -0.3350   -6.3750   24.5510 C.3   761  HDE761      0.0000
     44  ONA        0.9710   -1.4840   16.8610 O.2   761  HDE761      0.0000
@<TRIPOS>BOND
     1    44    18    1
     2    13    34    2
     3    40    18    1
     4    41    14    1
     5    34     7    1
     6    34    30    1
     7    18    12    2
     8    18    22    1
     9     7    12    1
    10    37    22    2
    11    37     8    1
    12    30    26    2
    13    12    26    1
    14    12     6    1
    15    22     2    1
    16    14     8    1
    17    14    19    2
    18    31    27    1
    19     8     3    2
    20     6     2    1
    21     6    36    2
    22     2     1    1
    23    19    27    1
    24    19    23    1
    25     3    23    1
    26     3     1    1
    27    11    35   ar
    28    36    25    1
    29    23    38    2
    30     1     5    1
    31     1     4    1
    32    33    35    1
    33    33    29    1
    34    35    17   ar
    35    25     5    2
    36    25    21    1
    37     5    10    1
    38    38     9    1
    39    29    21    1
    40    21    16    2
    41     4     9   ar
    42     4    24   ar
    43     9    15   ar
    44    10    16    1
    45    10    39    2
    46    16    43    1
    47    24    39    1
    48    24    20   ar
    49    15    42    1
    50    15    20   ar
    51    20    28    1
    52    28    32    1
