@<TRIPOS>MOLECULE
3pq5_HDD_A_1.pdb
 44 52 0 0 0
SMALL
GASTEIGER

@<TRIPOS>ATOM
      1 FE         -1.6570   -1.7640   21.6390 Fe    760  HDD760      0.0000
      2  CHA        1.4650   -3.2080   21.1780 C.2   760  HDD760      0.0000
      3  CHB       -2.3290   -4.0240   24.2180 C.2   760  HDD760      0.0000
      4  CHC       -4.5130   -0.0030   22.4220 C.2   760  HDD760      0.0000
      5  CHD       -1.0410    0.4040   18.9730 C.2   760  HDD760      0.0000
      6  NA        -0.6770   -3.2490   22.4980 N.2   760  HDD760      0.0000
      7  C1A        0.6070   -3.6940   22.1570 C.2   760  HDD760      0.0000
      8  C2A        0.9110   -4.8390   23.0170 C.2   760  HDD760      0.0000
      9  C3A       -0.1000   -5.0270   23.8560 C.2   760  HDD760      0.0000
     10  C4A       -1.1320   -4.0540   23.5560 C.2   760  HDD760      0.0000
     11  CMA       -0.1920   -6.1280   24.9540 C.3   760  HDD760      0.0000
     12  CAA        2.2270   -5.6700   23.0480 C.3   760  HDD760      0.0000
     13  CBA        2.1180   -6.9630   22.2060 C.3   760  HDD760      0.0000
     14  CGA        3.4780   -7.5960   22.2260 C.2   760  HDD760      0.0000
     15  O1A        4.2510   -7.5210   21.2130 O.co2 760  HDD760      0.0000
     16  O2A        3.8020   -8.2220   23.2550 O.co2 760  HDD760      0.0000
     17  NB        -3.1140   -1.9960   23.0380 N.ar  760  HDD760      0.0000
     18  C1B       -3.2190   -2.9820   24.0140 C.ar  760  HDD760      0.0000
     19  C2B       -4.4510   -2.8010   24.7320 C.ar  760  HDD760      0.0000
     20  C3B       -5.0410   -1.7110   24.2810 C.ar  760  HDD760      0.0000
     21  C4B       -4.2300   -1.1400   23.1710 C.ar  760  HDD760      0.0000
     22  CMB       -5.0330   -3.7200   25.8320 C.3   760  HDD760      0.0000
     23  CAB       -6.4130   -1.2940   24.8540 C.2   760  HDD760      0.0000
     24  CBB       -7.4570   -1.5300   24.0550 C.2   760  HDD760      0.0000
     25  NC        -2.6500   -0.0970   20.8180 N.2   760  HDD760      0.0000
     26  C1C       -3.7940    0.4990   21.3430 C.2   760  HDD760      0.0000
     27  C2C       -3.9860    1.7550   20.6090 C.2   760  HDD760      0.0000
     28  C3C       -3.0960    1.7770   19.6030 C.2   760  HDD760      0.0000
     29  C4C       -2.1640    0.6660   19.7670 C.2   760  HDD760      0.0000
     30  CMC       -5.2440    2.6920   20.6680 C.3   760  HDD760      0.0000
     31  CAC       -2.9680    2.8380   18.5060 C.2   760  HDD760      0.0000
     32  CBC       -4.0960    3.1050   17.7980 C.2   760  HDD760      0.0000
     33  ND         0.0200   -1.4530   20.2740 N.pl3 760  HDD760      0.0000
     34  C1D       -0.0040   -0.5070   19.2390 C.2   760  HDD760      0.0000
     35  C2D        1.2000   -0.6470   18.4980 C.2   760  HDD760      0.0000
     36  C3D        2.0280   -1.7800   19.1590 C.2   760  HDD760      0.0000
     37  C4D        1.2080   -2.2020   20.2760 C.2   760  HDD760      0.0000
     38  CMD        1.9080    0.7260   18.3740 C.3   760  HDD760      0.0000
     39  CAD        3.5090   -1.5610   19.4890 C.3   760  HDD760      0.0000
     40  CBD        4.1480   -2.0980   18.2070 C.3   760  HDD760      0.0000
     41  CGD        3.2440   -3.2970   17.9500 C.2   760  HDD760      0.0000
     42  O1D        2.0280   -2.8470   18.3110 O.3   760  HDD760      0.0000
     43  O2D        3.3940   -4.2860   17.1360 O.2   760  HDD760      0.0000
     44  OND        0.8790   -1.0020   17.1210 O.2   760  HDD760      0.0000
@<TRIPOS>BOND
     1    44    35    1
     2    43    41    2
     3    32    31    2
     4    41    40    1
     5    41    42    1
     6    40    39    1
     7    42    36    1
     8    38    35    1
     9    35    36    2
    10    35    34    1
    11    31    28    1
    12     5    34    2
    13     5    29    1
    14    36    39    1
    15    36    37    1
    16    34    33    1
    17    28    29    1
    18    28    27    2
    19    29    25    2
    20    33    37    1
    21    33     1    1
    22    37     2    2
    23    27    30    1
    24    27    26    1
    25    25    26    1
    26    25     1    1
    27     2     7    1
    28    15    14   ar
    29    26     4    2
    30     1     6    1
    31     1    17    1
    32     7     6    2
    33     7     8    1
    34    13    14    1
    35    13    12    1
    36    14    16   ar
    37     4    21    1
    38     6    10    1
    39     8    12    1
    40     8     9    2
    41    17    21   ar
    42    17    18   ar
    43    21    20   ar
    44    10     9    1
    45    10     3    2
    46     9    11    1
    47    18     3    1
    48    18    19   ar
    49    24    23    2
    50    20    19   ar
    51    20    23    1
    52    19    22    1
