@<TRIPOS>MOLECULE
3pq6_HDD_A_1.pdb
 44 52 0 0 0
SMALL
GASTEIGER

@<TRIPOS>ATOM
      1 FE         -1.6790   -1.7670   21.6140 Fe    760  HDD760      0.0000
      2  CHA        1.4760   -3.1320   21.2250 C.2   760  HDD760      0.0000
      3  CHB       -2.3510   -4.0170   24.1700 C.2   760  HDD760      0.0000
      4  CHC       -4.5310   -0.0250   22.4050 C.2   760  HDD760      0.0000
      5  CHD       -1.0250    0.3900   19.0140 C.2   760  HDD760      0.0000
      6  NA        -0.6700   -3.2480   22.5050 N.2   760  HDD760      0.0000
      7  C1A        0.6120   -3.6630   22.1580 C.2   760  HDD760      0.0000
      8  C2A        0.9370   -4.8300   22.9680 C.2   760  HDD760      0.0000
      9  C3A       -0.1040   -5.0530   23.7820 C.2   760  HDD760      0.0000
     10  C4A       -1.1360   -4.0690   23.5290 C.2   760  HDD760      0.0000
     11  CMA       -0.2280   -6.1640   24.8240 C.3   760  HDD760      0.0000
     12  CAA        2.2690   -5.6320   22.9180 C.3   760  HDD760      0.0000
     13  CBA        2.0570   -6.9650   22.1770 C.3   760  HDD760      0.0000
     14  CGA        3.4090   -7.6380   22.2030 C.2   760  HDD760      0.0000
     15  O1A        4.2320   -7.4940   21.2460 O.co2 760  HDD760      0.0000
     16  O2A        3.6610   -8.3540   23.1870 O.co2 760  HDD760      0.0000
     17  NB        -3.1850   -2.0340   22.9750 N.ar  760  HDD760      0.0000
     18  C1B       -3.2390   -2.9880   24.0060 C.ar  760  HDD760      0.0000
     19  C2B       -4.4440   -2.7680   24.7660 C.ar  760  HDD760      0.0000
     20  C3B       -5.0240   -1.6610   24.2970 C.ar  760  HDD760      0.0000
     21  C4B       -4.2550   -1.1640   23.1440 C.ar  760  HDD760      0.0000
     22  CMB       -4.9700   -3.6310   25.9420 C.3   760  HDD760      0.0000
     23  CAB       -6.3430   -1.0920   24.8390 C.3   760  HDD760      0.0000
     24  CBB       -7.4320   -1.5410   24.1770 C.3   760  HDD760      0.0000
     25  NC        -2.6210   -0.1870   20.8490 N.2   760  HDD760      0.0000
     26  C1C       -3.7620    0.4280   21.3410 C.2   760  HDD760      0.0000
     27  C2C       -3.9740    1.6420   20.5580 C.2   760  HDD760      0.0000
     28  C3C       -3.0510    1.7040   19.5990 C.2   760  HDD760      0.0000
     29  C4C       -2.1470    0.5940   19.7910 C.2   760  HDD760      0.0000
     30  CMC       -5.1970    2.6070   20.6680 C.3   760  HDD760      0.0000
     31  CAC       -2.9270    2.7810   18.4880 C.2   760  HDD760      0.0000
     32  CBC       -4.0490    3.0300   17.7770 C.2   760  HDD760      0.0000
     33  ND         0.0320   -1.4300   20.3190 N.pl3 760  HDD760      0.0000
     34  C1D        0.0320   -0.4760   19.3040 C.2   760  HDD760      0.0000
     35  C2D        1.2220   -0.6280   18.5200 C.2   760  HDD760      0.0000
     36  C3D        2.0590   -1.7490   19.1970 C.2   760  HDD760      0.0000
     37  C4D        1.2190   -2.1270   20.3250 C.2   760  HDD760      0.0000
     38  CMD        1.9370    0.7370   18.4170 C.3   760  HDD760      0.0000
     39  CAD        3.5620   -1.5780   19.5060 C.3   760  HDD760      0.0000
     40  CBD        4.2370   -2.1080   18.2610 C.3   760  HDD760      0.0000
     41  CGD        3.2800   -3.2610   18.0030 C.2   760  HDD760      0.0000
     42  O1D        2.0680   -2.8120   18.3620 O.3   760  HDD760      0.0000
     43  O2D        3.4700   -4.3320   17.3750 O.2   760  HDD760      0.0000
     44  OND        0.8340   -1.0350   17.1510 O.2   760  HDD760      0.0000
@<TRIPOS>BOND
     1    44    35    1
     2    43    41    2
     3    32    31    2
     4    41    40    1
     5    41    42    1
     6    40    39    1
     7    42    36    1
     8    38    35    1
     9    31    28    1
    10    35    36    2
    11    35    34    1
    12     5    34    2
    13     5    29    1
    14    36    39    1
    15    36    37    1
    16    34    33    1
    17    28    29    1
    18    28    27    2
    19    29    25    2
    20    33    37    1
    21    33     1    1
    22    37     2    2
    23    27    30    1
    24    27    26    1
    25    25    26    1
    26    25     1    1
    27     2     7    1
    28    15    14   ar
    29    26     4    2
    30     1     6    1
    31     1    17    1
    32     7     6    2
    33     7     8    1
    34    13    14    1
    35    13    12    1
    36    14    16   ar
    37     4    21    1
    38     6    10    1
    39    12     8    1
    40     8     9    2
    41    17    21   ar
    42    17    18   ar
    43    21    20   ar
    44    10     9    1
    45    10     3    2
    46     9    11    1
    47    18     3    1
    48    18    19   ar
    49    24    23    1
    50    20    19   ar
    51    20    23    1
    52    19    22    1
