@<TRIPOS>MOLECULE
3pq6_HDE_A_1.pdb
 44 52 0 0 0
SMALL
GASTEIGER

@<TRIPOS>ATOM
      1 FE         -1.2350   -1.5630   21.5460 Fe    761  HDE761      0.0000
      2  NA         0.2280   -1.3840   20.2020 N.pl3 761  HDE761      0.0000
      3  NB        -1.9950    0.1340   20.8360 N.2   761  HDE761      0.0000
      4  NC        -2.6640   -1.7380   22.9730 N.ar  761  HDE761      0.0000
      5  ND        -0.4130   -3.3110   22.3210 N.2   761  HDE761      0.0000
      6  C1A        1.3160   -2.2920   20.0660 C.2   761  HDE761      0.0000
      7  O1A        2.3320   -3.3120   18.0430 O.3   761  HDE761      0.0000
      8  C1B       -1.8610    0.6040   19.4990 C.2   761  HDE761      0.0000
      9  C1C       -3.8480   -0.9430   23.0880 C.ar  761  HDE761      0.0000
     10  C1D       -0.8500   -4.1780   23.2730 C.2   761  HDE761      0.0000
     11  O1D        4.4440   -7.4890   20.8170 O.co2 761  HDE761      0.0000
     12  C2A        2.1650   -2.1090   18.8320 C.2   761  HDE761      0.0000
     13  O2A        4.0760   -4.7080   17.2130 O.2   761  HDE761      0.0000
     14  C2B       -2.8450    1.5470   19.1690 C.2   761  HDE761      0.0000
     15  C2C       -4.8590   -1.4650   23.9330 C.ar  761  HDE761      0.0000
     16  C2D       -0.0160   -5.2550   23.5630 C.2   761  HDE761      0.0000
     17  O2D        3.9880   -8.1910   22.8500 O.co2 761  HDE761      0.0000
     18  C3A        1.3690   -1.0070   18.0870 C.2   761  HDE761      0.0000
     19  C3B       -3.7470    1.5740   20.3550 C.2   761  HDE761      0.0000
     20  C3C       -4.3310   -2.7920   24.3230 C.ar  761  HDE761      0.0000
     21  C3D        1.1670   -5.0220   22.7220 C.2   761  HDE761      0.0000
     22  C4A        0.1980   -0.6780   18.9780 C.2   761  HDE761      0.0000
     23  C4B       -3.2320    0.6520   21.2400 C.2   761  HDE761      0.0000
     24  C4C       -3.0220   -2.9450   23.6620 C.ar  761  HDE761      0.0000
     25  C4D        0.8070   -3.7760   22.0070 C.2   761  HDE761      0.0000
     26  CAA        3.6030   -1.7680   19.2320 C.2   761  HDE761      0.0000
     27  CAB       -5.0300    2.3550   20.6130 C.3   761  HDE761      0.0000
     28  CAC       -5.0700   -3.8440   25.1370 C.3   761  HDE761      0.0000
     29  CAD        2.4340   -5.8150   22.6400 C.3   761  HDE761      0.0000
     30  CBA        4.5860   -2.8010   18.6680 C.2   761  HDE761      0.0000
     31  CBB       -5.4200    3.0870   19.3900 C.3   761  HDE761      0.0000
     32  CBC       -6.5000   -3.4430   25.0890 C.3   761  HDE761      0.0000
     33  CBD        2.2810   -7.0030   21.6810 C.3   761  HDE761      0.0000
     34  CGA        3.7010   -3.7390   17.8990 C.2   761  HDE761      0.0000
     35  CGD        3.6630   -7.6100   21.7920 C.2   761  HDE761      0.0000
     36  CHA        1.6970   -3.1320   21.0310 C.2   761  HDE761      0.0000
     37  CHB       -0.6940    0.2840   18.6530 C.2   761  HDE761      0.0000
     38  CHC       -3.8460    0.4160   22.5490 C.2   761  HDE761      0.0000
     39  CHD       -2.1600   -4.0950   23.8770 C.2   761  HDE761      0.0000
     40  CMA        2.1130    0.3130   17.8740 C.3   761  HDE761      0.0000
     41  CMB       -2.9820    2.3520   17.8960 C.3   761  HDE761      0.0000
     42  CMC       -6.1750   -0.8420   24.3090 C.3   761  HDE761      0.0000
     43  CMD       -0.2710   -6.3670   24.5390 C.3   761  HDE761      0.0000
     44  ONA        0.8500   -1.4760   16.8290 O.2   761  HDE761      0.0000
@<TRIPOS>BOND
     1    44    18    1
     2    13    34    2
     3    40    18    1
     4    41    14    1
     5    34     7    1
     6    34    30    1
     7     7    12    1
     8    18    12    2
     9    18    22    1
    10    37    22    2
    11    37     8    1
    12    30    26    2
    13    12    26    1
    14    12     6    1
    15    22     2    1
    16    14     8    1
    17    14    19    2
    18    31    27    1
    19     8     3    2
    20     6     2    1
    21     6    36    2
    22     2     1    1
    23    19    27    1
    24    19    23    1
    25    11    35   ar
    26     3    23    1
    27     3     1    1
    28    36    25    1
    29    23    38    2
    30     1     5    1
    31     1     4    1
    32    33    35    1
    33    33    29    1
    34    35    17   ar
    35    25     5    2
    36    25    21    1
    37     5    10    1
    38    38     9    1
    39    29    21    1
    40    21    16    2
    41     4     9   ar
    42     4    24   ar
    43     9    15   ar
    44    10    16    1
    45    10    39    2
    46    16    43    1
    47    24    39    1
    48    24    20   ar
    49    15    42    1
    50    15    20   ar
    51    20    28    1
    52    32    28    1
