@<TRIPOS>MOLECULE
3pq7_HDD_A_1.pdb
 44 52 0 0 0
SMALL
GASTEIGER

@<TRIPOS>ATOM
      1 FE         -1.6450   -1.7820   21.6270 Fe    760  HDD760      0.0000
      2  CHA        1.4720   -3.1700   21.1990 C.2   760  HDD760      0.0000
      3  CHB       -2.3370   -3.9980   24.2120 C.2   760  HDD760      0.0000
      4  CHC       -4.4970    0.0000   22.3930 C.2   760  HDD760      0.0000
      5  CHD       -1.0420    0.3260   18.9640 C.2   760  HDD760      0.0000
      6  NA        -0.6740   -3.2360   22.4840 N.2   760  HDD760      0.0000
      7  C1A        0.6020   -3.6650   22.1550 C.2   760  HDD760      0.0000
      8  C2A        0.9120   -4.8100   23.0060 C.2   760  HDD760      0.0000
      9  C3A       -0.1260   -5.0160   23.8090 C.2   760  HDD760      0.0000
     10  C4A       -1.1360   -4.0450   23.5400 C.2   760  HDD760      0.0000
     11  CMA       -0.2460   -6.1230   24.8700 C.3   760  HDD760      0.0000
     12  CAA        2.1990   -5.6940   23.0160 C.3   760  HDD760      0.0000
     13  CBA        1.9710   -7.0130   22.2110 C.3   760  HDD760      0.0000
     14  CGA        3.3410   -7.6690   22.2090 C.2   760  HDD760      0.0000
     15  O1A        4.1590   -7.5820   21.2400 O.co2 760  HDD760      0.0000
     16  O2A        3.6450   -8.3190   23.2170 O.co2 760  HDD760      0.0000
     17  NB        -3.1320   -1.9960   23.0490 N.ar  760  HDD760      0.0000
     18  C1B       -3.2330   -2.9910   24.0150 C.ar  760  HDD760      0.0000
     19  C2B       -4.4890   -2.7990   24.7140 C.ar  760  HDD760      0.0000
     20  C3B       -5.0690   -1.7330   24.2260 C.ar  760  HDD760      0.0000
     21  C4B       -4.2350   -1.1560   23.1490 C.ar  760  HDD760      0.0000
     22  CMB       -5.1070   -3.6620   25.8190 C.3   760  HDD760      0.0000
     23  CAB       -6.4290   -1.2910   24.7910 C.3   760  HDD760      0.0000
     24  CBB       -7.4810   -1.6590   24.0620 C.3   760  HDD760      0.0000
     25  NC        -2.6190   -0.1770   20.8100 N.2   760  HDD760      0.0000
     26  C1C       -3.7500    0.4770   21.3290 C.2   760  HDD760      0.0000
     27  C2C       -4.0000    1.6410   20.4710 C.2   760  HDD760      0.0000
     28  C3C       -3.0200    1.7320   19.5880 C.2   760  HDD760      0.0000
     29  C4C       -2.1320    0.5760   19.7660 C.2   760  HDD760      0.0000
     30  CMC       -5.0960    2.7470   20.6240 C.3   760  HDD760      0.0000
     31  CAC       -2.8680    2.8100   18.5000 C.2   760  HDD760      0.0000
     32  CBC       -3.9150    3.0180   17.6610 C.2   760  HDD760      0.0000
     33  ND         0.0080   -1.4770   20.2800 N.pl3 760  HDD760      0.0000
     34  C1D        0.0060   -0.5430   19.2510 C.2   760  HDD760      0.0000
     35  C2D        1.1910   -0.6730   18.4940 C.2   760  HDD760      0.0000
     36  C3D        2.0580   -1.7790   19.1650 C.2   760  HDD760      0.0000
     37  C4D        1.2130   -2.1850   20.2850 C.2   760  HDD760      0.0000
     38  CMD        1.8480    0.7210   18.3110 C.3   760  HDD760      0.0000
     39  CAD        3.5280   -1.5290   19.5070 C.3   760  HDD760      0.0000
     40  CBD        4.2400   -1.9840   18.2340 C.3   760  HDD760      0.0000
     41  CGD        3.4030   -3.2460   18.0120 C.2   760  HDD760      0.0000
     42  O1D        2.1610   -2.8520   18.3140 O.3   760  HDD760      0.0000
     43  O2D        3.5870   -4.1560   17.1500 O.2   760  HDD760      0.0000
     44  OND        0.8210   -1.0660   17.1360 O.2   760  HDD760      0.0000
@<TRIPOS>BOND
     1    44    35    1
     2    43    41    2
     3    32    31    2
     4    41    40    1
     5    41    42    1
     6    40    39    1
     7    38    35    1
     8    42    36    1
     9    35    36    2
    10    35    34    1
    11    31    28    1
    12     5    34    2
    13     5    29    1
    14    36    39    1
    15    36    37    1
    16    34    33    1
    17    28    29    1
    18    28    27    2
    19    29    25    2
    20    33    37    1
    21    33     1    1
    22    37     2    2
    23    27    30    1
    24    27    26    1
    25    25    26    1
    26    25     1    1
    27     2     7    1
    28    15    14   ar
    29    26     4    2
    30     1     6    1
    31     1    17    1
    32     7     6    2
    33     7     8    1
    34    14    13    1
    35    14    16   ar
    36    13    12    1
    37     4    21    1
    38     6    10    1
    39     8    12    1
    40     8     9    2
    41    17    21   ar
    42    17    18   ar
    43    21    20   ar
    44    10     9    1
    45    10     3    2
    46     9    11    1
    47    18     3    1
    48    18    19   ar
    49    24    23    1
    50    20    19   ar
    51    20    23    1
    52    19    22    1
