@<TRIPOS>MOLECULE
3pq7_HDE_A_1.pdb
 44 52 0 0 0
SMALL
GASTEIGER

@<TRIPOS>ATOM
      1 FE         -1.2540   -1.5890   21.5290 Fe    761  HDE761      0.0000
      2  NA         0.2290   -1.3430   20.2160 N.pl3 761  HDE761      0.0000
      3  NB        -2.0130    0.1250   20.8610 N.2   761  HDE761      0.0000
      4  NC        -2.7030   -1.8310   22.9240 N.ar  761  HDE761      0.0000
      5  ND        -0.4270   -3.3560   22.2650 N.2   761  HDE761      0.0000
      6  C1A        1.3200   -2.2610   20.1040 C.2   761  HDE761      0.0000
      7  O1A        2.2550   -3.3150   18.0860 O.3   761  HDE761      0.0000
      8  C1B       -1.8220    0.6480   19.5630 C.2   761  HDE761      0.0000
      9  C1C       -3.8750   -1.0390   23.0630 C.ar  761  HDE761      0.0000
     10  C1D       -0.8680   -4.2440   23.2170 C.2   761  HDE761      0.0000
     11  O1D        4.5470   -7.5750   20.9610 O.co2 761  HDE761      0.0000
     12  C2A        2.1400   -2.0900   18.8530 C.2   761  HDE761      0.0000
     13  O2A        3.9110   -4.7800   17.3050 O.2   761  HDE761      0.0000
     14  C2B       -2.8050    1.6150   19.2400 C.2   761  HDE761      0.0000
     15  C2C       -4.9020   -1.5730   23.8860 C.ar  761  HDE761      0.0000
     16  C2D       -0.0350   -5.2940   23.5280 C.2   761  HDE761      0.0000
     17  O2D        4.0150   -8.1800   22.9480 O.co2 761  HDE761      0.0000
     18  C3A        1.3770   -0.9780   18.0900 C.2   761  HDE761      0.0000
     19  C3B       -3.7740    1.5620   20.3690 C.2   761  HDE761      0.0000
     20  C3C       -4.3620   -2.8930   24.2470 C.ar  761  HDE761      0.0000
     21  C3D        1.1920   -5.0090   22.7320 C.2   761  HDE761      0.0000
     22  C4A        0.2320   -0.6200   18.9930 C.2   761  HDE761      0.0000
     23  C4B       -3.2760    0.6200   21.2450 C.2   761  HDE761      0.0000
     24  C4C       -3.0610   -3.0500   23.5760 C.ar  761  HDE761      0.0000
     25  C4D        0.8170   -3.7640   22.0260 C.2   761  HDE761      0.0000
     26  CAA        3.5750   -1.7500   19.2200 C.2   761  HDE761      0.0000
     27  CAB       -5.0760    2.3060   20.6220 C.3   761  HDE761      0.0000
     28  CAC       -5.0080   -3.9920   25.0590 C.3   761  HDE761      0.0000
     29  CAD        2.5140   -5.7340   22.6240 C.3   761  HDE761      0.0000
     30  CBA        4.5290   -2.7590   18.5700 C.2   761  HDE761      0.0000
     31  CBB       -5.4380    3.0560   19.4140 C.3   761  HDE761      0.0000
     32  CBC       -6.4640   -3.8230   24.8750 C.3   761  HDE761      0.0000
     33  CBD        2.3340   -7.0050   21.7640 C.3   761  HDE761      0.0000
     34  CGA        3.6050   -3.7480   17.9230 C.2   761  HDE761      0.0000
     35  CGD        3.7140   -7.6280   21.8880 C.2   761  HDE761      0.0000
     36  CHA        1.7150   -3.0770   21.0830 C.2   761  HDE761      0.0000
     37  CHB       -0.6280    0.3840   18.7290 C.2   761  HDE761      0.0000
     38  CHC       -3.9020    0.3140   22.5270 C.2   761  HDE761      0.0000
     39  CHD       -2.2080   -4.2150   23.7860 C.2   761  HDE761      0.0000
     40  CMA        2.2200    0.2670   17.7920 C.3   761  HDE761      0.0000
     41  CMB       -2.8520    2.4170   17.9670 C.3   761  HDE761      0.0000
     42  CMC       -6.2110   -0.9270   24.2840 C.3   761  HDE761      0.0000
     43  CMD       -0.3670   -6.4110   24.4940 C.3   761  HDE761      0.0000
     44  ONA        0.8580   -1.4250   16.8370 O.2   761  HDE761      0.0000
@<TRIPOS>BOND
     1    44    18    1
     2    13    34    2
     3    40    18    1
     4    34     7    1
     5    34    30    1
     6    41    14    1
     7     7    12    1
     8    18    12    2
     9    18    22    1
    10    30    26    2
    11    37    22    2
    12    37     8    1
    13    12    26    1
    14    12     6    1
    15    22     2    1
    16    14     8    1
    17    14    19    2
    18    31    27    1
    19     8     3    2
    20     6     2    1
    21     6    36    2
    22     2     1    1
    23    19    27    1
    24    19    23    1
    25     3    23    1
    26     3     1    1
    27    11    35   ar
    28    36    25    1
    29    23    38    2
    30     1     5    1
    31     1     4    1
    32    33    35    1
    33    33    29    1
    34    35    17   ar
    35    25     5    2
    36    25    21    1
    37     5    10    1
    38    38     9    1
    39    29    21    1
    40    21    16    2
    41     4     9   ar
    42     4    24   ar
    43     9    15   ar
    44    10    16    1
    45    10    39    2
    46    16    43    1
    47    24    39    1
    48    24    20   ar
    49    15    20   ar
    50    15    42    1
    51    20    28    1
    52    32    28    1
