@<TRIPOS>MOLECULE
3pq8_HDD_A_1.pdb
 44 52 0 0 0
SMALL
GASTEIGER

@<TRIPOS>ATOM
      1 FE         -1.6770   -1.7770   21.6030 Fe    760  HDD760      0.0000
      2  CHA        1.4390   -3.1860   21.1470 C.2   760  HDD760      0.0000
      3  CHB       -2.3450   -4.0250   24.2010 C.2   760  HDD760      0.0000
      4  CHC       -4.5400   -0.0500   22.3900 C.2   760  HDD760      0.0000
      5  CHD       -1.0810    0.3660   19.0140 C.2   760  HDD760      0.0000
      6  NA        -0.6850   -3.2690   22.4660 N.2   760  HDD760      0.0000
      7  C1A        0.5840   -3.6970   22.1170 C.2   760  HDD760      0.0000
      8  C2A        0.9160   -4.8400   22.9640 C.2   760  HDD760      0.0000
      9  C3A       -0.1200   -5.0550   23.7780 C.2   760  HDD760      0.0000
     10  C4A       -1.1430   -4.0870   23.5070 C.2   760  HDD760      0.0000
     11  CMA       -0.2310   -6.1180   24.8750 C.3   760  HDD760      0.0000
     12  CAA        2.2510   -5.6570   22.9510 C.3   760  HDD760      0.0000
     13  CBA        2.0850   -6.9620   22.1340 C.3   760  HDD760      0.0000
     14  CGA        3.4320   -7.6390   22.1840 C.2   760  HDD760      0.0000
     15  O1A        4.2450   -7.5770   21.2080 O.co2 760  HDD760      0.0000
     16  O2A        3.6720   -8.2660   23.2290 O.co2 760  HDD760      0.0000
     17  NB        -3.1750   -2.0400   23.0050 N.ar  760  HDD760      0.0000
     18  C1B       -3.2390   -3.0070   24.0250 C.ar  760  HDD760      0.0000
     19  C2B       -4.4610   -2.7810   24.8000 C.ar  760  HDD760      0.0000
     20  C3B       -5.0440   -1.6950   24.3220 C.ar  760  HDD760      0.0000
     21  C4B       -4.2690   -1.1710   23.1630 C.ar  760  HDD760      0.0000
     22  CMB       -5.0310   -3.6010   25.9820 C.3   760  HDD760      0.0000
     23  CAB       -6.3600   -1.2320   24.9530 C.2   760  HDD760      0.0000
     24  CBB       -7.4860   -1.5110   24.2950 C.2   760  HDD760      0.0000
     25  NC        -2.6400   -0.1570   20.8540 N.2   760  HDD760      0.0000
     26  C1C       -3.8040    0.4350   21.3330 C.2   760  HDD760      0.0000
     27  C2C       -3.9520    1.7050   20.6160 C.2   760  HDD760      0.0000
     28  C3C       -3.1140    1.6900   19.5750 C.2   760  HDD760      0.0000
     29  C4C       -2.2010    0.5870   19.7690 C.2   760  HDD760      0.0000
     30  CMC       -5.2340    2.5960   20.5910 C.3   760  HDD760      0.0000
     31  CAC       -2.9750    2.7470   18.4620 C.2   760  HDD760      0.0000
     32  CBC       -4.0100    3.0090   17.6270 C.2   760  HDD760      0.0000
     33  ND        -0.0320   -1.4710   20.2830 N.pl3 760  HDD760      0.0000
     34  C1D       -0.0250   -0.4860   19.2830 C.2   760  HDD760      0.0000
     35  C2D        1.1920   -0.6040   18.5120 C.2   760  HDD760      0.0000
     36  C3D        2.0060   -1.7450   19.1890 C.2   760  HDD760      0.0000
     37  C4D        1.1820   -2.1540   20.2980 C.2   760  HDD760      0.0000
     38  CMD        1.9040    0.7700   18.3770 C.3   760  HDD760      0.0000
     39  CAD        3.5070   -1.5990   19.4840 C.3   760  HDD760      0.0000
     40  CBD        4.0740   -2.0020   18.1130 C.3   760  HDD760      0.0000
     41  CGD        3.2510   -3.2600   17.9770 C.2   760  HDD760      0.0000
     42  O1D        2.0190   -2.8480   18.3710 O.3   760  HDD760      0.0000
     43  O2D        3.4350   -4.2530   17.1900 O.2   760  HDD760      0.0000
     44  OND        0.9060   -0.9910   17.1140 O.2   760  HDD760      0.0000
@<TRIPOS>BOND
     1    44    35    1
     2    43    41    2
     3    32    31    2
     4    41    40    1
     5    41    42    1
     6    40    39    1
     7    42    36    1
     8    38    35    1
     9    31    28    1
    10    35    36    2
    11    35    34    1
    12     5    34    2
    13     5    29    1
    14    36    39    1
    15    36    37    1
    16    34    33    1
    17    28    29    1
    18    28    27    2
    19    29    25    2
    20    33    37    1
    21    33     1    1
    22    37     2    2
    23    30    27    1
    24    27    26    1
    25    25    26    1
    26    25     1    1
    27     2     7    1
    28    15    14   ar
    29    26     4    2
    30     1     6    1
    31     1    17    1
    32     7     6    2
    33     7     8    1
    34    13    14    1
    35    13    12    1
    36    14    16   ar
    37     4    21    1
    38     6    10    1
    39    12     8    1
    40     8     9    2
    41    17    21   ar
    42    17    18   ar
    43    21    20   ar
    44    10     9    1
    45    10     3    2
    46     9    11    1
    47    18     3    1
    48    18    19   ar
    49    24    23    2
    50    20    19   ar
    51    20    23    1
    52    19    22    1
