@<TRIPOS>MOLECULE
3pq8_HDE_A_1.pdb
 44 52 0 0 0
SMALL
GASTEIGER

@<TRIPOS>ATOM
      1 FE         -1.2320   -1.5650   21.5550 Fe    761  HDE761      0.0000
      2  NA         0.2420   -1.3480   20.2230 N.pl3 761  HDE761      0.0000
      3  NB        -1.9930    0.1340   20.8790 N.2   761  HDE761      0.0000
      4  NC        -2.6670   -1.7790   22.9640 N.ar  761  HDE761      0.0000
      5  ND        -0.4000   -3.3190   22.3000 N.2   761  HDE761      0.0000
      6  C1A        1.3370   -2.2560   20.0860 C.2   761  HDE761      0.0000
      7  O1A        2.3720   -3.2810   18.1120 O.3   761  HDE761      0.0000
      8  C1B       -1.8030    0.6480   19.5620 C.2   761  HDE761      0.0000
      9  C1C       -3.8790   -1.0220   23.0450 C.ar  761  HDE761      0.0000
     10  C1D       -0.8210   -4.1930   23.2550 C.2   761  HDE761      0.0000
     11  O1D        4.4600   -7.5490   20.8420 O.co2 761  HDE761      0.0000
     12  C2A        2.1740   -2.0640   18.8630 C.2   761  HDE761      0.0000
     13  O2A        4.1020   -4.6730   17.3190 O.2   761  HDE761      0.0000
     14  C2B       -2.7890    1.5820   19.2180 C.2   761  HDE761      0.0000
     15  C2C       -4.9150   -1.5610   23.8350 C.ar  761  HDE761      0.0000
     16  C2D        0.0090   -5.2600   23.5360 C.2   761  HDE761      0.0000
     17  O2D        3.9220   -8.2320   22.8780 O.co2 761  HDE761      0.0000
     18  C3A        1.3790   -0.9970   18.0700 C.2   761  HDE761      0.0000
     19  C3B       -3.7480    1.5420   20.3690 C.2   761  HDE761      0.0000
     20  C3C       -4.3640   -2.8730   24.2400 C.ar  761  HDE761      0.0000
     21  C3D        1.1960   -5.0020   22.7010 C.2   761  HDE761      0.0000
     22  C4A        0.2510   -0.6030   19.0090 C.2   761  HDE761      0.0000
     23  C4B       -3.2470    0.6130   21.2460 C.2   761  HDE761      0.0000
     24  C4C       -3.0160   -2.9900   23.6340 C.ar  761  HDE761      0.0000
     25  C4D        0.8180   -3.7620   21.9930 C.2   761  HDE761      0.0000
     26  CAA        3.5900   -1.7220   19.3280 C.2   761  HDE761      0.0000
     27  CAB       -5.0790    2.2500   20.5940 C.3   761  HDE761      0.0000
     28  CAC       -5.0200   -3.9630   25.0500 C.3   761  HDE761      0.0000
     29  CAD        2.4950   -5.7450   22.5690 C.3   761  HDE761      0.0000
     30  CBA        4.6140   -2.6860   18.7050 C.2   761  HDE761      0.0000
     31  CBB       -5.3380    3.1400   19.4440 C.3   761  HDE761      0.0000
     32  CBC       -6.4810   -3.6920   25.0920 C.3   761  HDE761      0.0000
     33  CBD        2.3170   -6.9810   21.6890 C.3   761  HDE761      0.0000
     34  CGA        3.7520   -3.6720   17.9770 C.2   761  HDE761      0.0000
     35  CGD        3.6670   -7.6410   21.8100 C.2   761  HDE761      0.0000
     36  CHA        1.7140   -3.1240   21.0030 C.2   761  HDE761      0.0000
     37  CHB       -0.5760    0.4160   18.7680 C.2   761  HDE761      0.0000
     38  CHC       -3.9160    0.3010   22.4930 C.2   761  HDE761      0.0000
     39  CHD       -2.1360   -4.1190   23.8900 C.2   761  HDE761      0.0000
     40  CMA        2.1880    0.2320   17.6400 C.3   761  HDE761      0.0000
     41  CMB       -2.8320    2.4070   17.9580 C.3   761  HDE761      0.0000
     42  CMC       -6.2590   -0.9850   24.1620 C.3   761  HDE761      0.0000
     43  CMD       -0.2600   -6.3500   24.5290 C.3   761  HDE761      0.0000
     44  ONA        0.8450   -1.5500   16.8530 O.2   761  HDE761      0.0000
@<TRIPOS>BOND
     1    44    18    1
     2    13    34    2
     3    40    18    1
     4    41    14    1
     5    34     7    1
     6    34    30    1
     7    18    12    2
     8    18    22    1
     9     7    12    1
    10    30    26    2
    11    37    22    2
    12    37     8    1
    13    12    26    1
    14    12     6    1
    15    22     2    1
    16    14     8    1
    17    14    19    2
    18    31    27    1
    19     8     3    2
    20     6     2    1
    21     6    36    2
    22     2     1    1
    23    19    27    1
    24    19    23    1
    25    11    35   ar
    26     3    23    1
    27     3     1    1
    28    36    25    1
    29    23    38    2
    30     1     5    1
    31     1     4    1
    32    33    35    1
    33    33    29    1
    34    35    17   ar
    35    25     5    2
    36    25    21    1
    37     5    10    1
    38    38     9    1
    39    29    21    1
    40    21    16    2
    41     4     9   ar
    42     4    24   ar
    43     9    15   ar
    44    10    16    1
    45    10    39    2
    46    16    43    1
    47    24    39    1
    48    24    20   ar
    49    15    42    1
    50    15    20   ar
    51    20    28    1
    52    28    32    1
