@<TRIPOS>MOLECULE
3pqb_VGP_A_1.pdb
 36 40 0 0 0
SMALL
GASTEIGER

@<TRIPOS>ATOM
      1  C          3.9190    7.0370   13.5050 C.3   500  VGP500      0.2525
      2  O          8.9130    3.9640    2.2270 O.3   500  VGP500     -0.2204
      3  C01        5.7200    1.8300    7.0650 C.ar  500  VGP500      0.0419
      4  O01        6.2140    6.7970    7.6080 O.2   500  VGP500     -0.4210
      5  C02        6.1630    2.8480    6.2290 C.ar  500  VGP500      0.0015
      6  O02        4.8780    1.0930    9.1620 O.3   500  VGP500     -0.2865
      7  C03        6.1810    4.1470    6.6950 C.ar  500  VGP500      0.0104
      8  O03        4.4490    2.7980   11.0280 O.3   500  VGP500     -0.4713
      9  C04        5.7650    4.4740    8.0000 C.ar  500  VGP500      0.0391
     10  O04        4.5150    6.7510   12.3100 O.3   500  VGP500     -0.4714
     11  C05        5.3180    3.4570    8.8400 C.ar  500  VGP500      0.0756
     12  O05        6.2240    9.0530    6.9590 O.2   500  VGP500     -0.2445
     13  C06        5.3080    2.1300    8.3630 C.ar  500  VGP500      0.1986
     14  O06        7.5260    4.7570    4.8720 O.3   500  VGP500     -0.3463
     15  C07        5.7880    5.8100    8.4460 C.ar  500  VGP500      0.1487
     16  O07        5.2210    6.1690    2.7570 O.3   500  VGP500     -0.2176
     17  C08        5.3630    6.1210    9.7240 C.ar  500  VGP500      0.0408
     18  O08        4.2790    5.3110    5.4490 O.3   500  VGP500     -0.2173
     19  C09        4.9140    5.1060   10.5650 C.ar  500  VGP500      0.0401
     20  C10        4.8880    3.7750   10.1420 C.ar  500  VGP500      0.1419
     21  C11        6.2960    8.1110    7.9580 C.ar  500  VGP500      0.3458
     22  C12        5.8150    8.4330    9.3330 C.ar  500  VGP500      0.0787
     23  C13        5.3910    7.4320   10.1880 C.ar  500  VGP500      0.0432
     24  C14        5.8340    9.7340    9.7690 C.ar  500  VGP500      0.0024
     25  C15        5.4230   10.0550   11.0380 C.ar  500  VGP500     -0.0190
     26  C16        4.9690    9.0790   11.9040 C.ar  500  VGP500      0.0326
     27  C17        4.9510    7.7440   11.4730 C.ar  500  VGP500      0.1386
     28  C18        5.4840   11.4930   11.4600 C.3   500  VGP500      0.0265
     29  C19        6.6980   12.2820   11.1090 C.3   500  VGP500      0.0050
     30  C20        5.4840    5.7470    4.9840 C.3   500  VGP500      0.2157
     31  C21        6.6390    5.2410    5.7690 C.3   500  VGP500      0.1705
     32  C22        5.7160    5.2500    3.6280 C.3   500  VGP500      0.2143
     33  C23        7.1920    5.0300    3.5690 C.3   500  VGP500      0.1786
     34  C24        7.6630    3.8280    2.7560 C.3   500  VGP500      0.1816
     35  C25        6.6930    3.4330    1.7200 C.3   500  VGP500      0.0382
     36  C26        3.7050    3.1020   12.1540 C.3   500  VGP500      0.2525
@<TRIPOS>BOND
     1    35    34    1
     2     2    34    1
     3    34    33    1
     4    16    32    1
     5    33    32    1
     6    33    14    1
     7    32    30    1
     8    14    31    1
     9    30    18    1
    10    30    31    1
    11    31     7    1
    12     5     7   ar
    13     5     3   ar
    14     7     9   ar
    15    12    21    2
    16     3    13   ar
    17     4    21   ar
    18     4    15   ar
    19    21    22   ar
    20     9    15   ar
    21     9    11   ar
    22    13    11   ar
    23    13     6    1
    24    15    17   ar
    25    11    20   ar
    26    22    24   ar
    27    22    23   ar
    28    17    23   ar
    29    17    19   ar
    30    24    25   ar
    31    20    19   ar
    32    20     8    1
    33    23    27   ar
    34     8    36    1
    35    25    28    1
    36    25    26   ar
    37    29    28    1
    38    27    26   ar
    39    27    10    1
    40    10     1    1
