@<TRIPOS>MOLECULE
3pqc_GDP_A_1.pdb
 28 30 0 0 0
SMALL
GASTEIGER

@<TRIPOS>ATOM
      1  PB       -11.4770    8.0930  -12.0580 P.3   801  GDP801      0.5373
      2  O1B      -12.2510    7.3510  -10.9580 O.3   801  GDP801     -0.1143
      3  O2B      -10.0380    7.7360  -11.9790 O.3   801  GDP801     -0.1143
      4  O3B      -12.0300    7.7420  -13.4160 O.2   801  GDP801     -0.2221
      5  O3A      -11.5150    9.6630  -11.7570 O.3   801  GDP801     -0.2261
      6  PA       -12.4620   10.7570  -12.4380 P.3   801  GDP801      0.2231
      7  O1A      -12.0420   11.1400  -13.7940 O.2   801  GDP801     -0.5169
      8  O2A      -13.9490   10.2580  -12.4210 O.3   801  GDP801     -0.4370
      9  O5'      -12.2950   12.0190  -11.5390 O.3   801  GDP801     -0.3111
     10  C5'      -12.3230   11.9430  -10.1340 C.3   801  GDP801      0.1813
     11  C4'      -12.4890   13.2780   -9.4870 C.3   801  GDP801      0.1799
     12  O4'      -11.3200   13.9930   -9.6630 O.3   801  GDP801     -0.3326
     13  C3'      -13.5190   13.9750  -10.2270 C.3   801  GDP801      0.2158
     14  O3'      -14.2600   14.7950   -9.3510 O.3   801  GDP801     -0.2175
     15  C2'      -12.8380   14.7530  -11.1950 C.3   801  GDP801      0.2310
     16  O2'      -13.5550   15.9610  -11.4930 O.3   801  GDP801     -0.2158
     17  C1'      -11.5870   15.0650  -10.5200 C.3   801  GDP801      0.2293
     18  N9       -10.4520   15.2920  -11.4090 N.pl3 801  GDP801     -0.2354
     19  C8        -9.9760   14.4310  -12.3330 C.3   801  GDP801      0.2246
     20  N7        -8.9050   14.9640  -12.9420 N.2   801  GDP801     -0.2322
     21  C5        -8.6790   16.1810  -12.3990 C.2   801  GDP801      0.2182
     22  C6        -7.7260   17.1760  -12.6050 C.1   801  GDP801      0.2372
     23  O6        -6.7050   17.0210  -13.6030 O.2   801  GDP801     -0.2069
     24  N1        -7.7760   18.3070  -11.8780 N.2   801  GDP801     -0.2485
     25  C2        -8.7320   18.4750  -10.9550 C.1   801  GDP801      0.2531
     26  N2        -8.7310   19.6680  -10.1980 N.pl3 801  GDP801     -0.0226
     27  N3        -9.6620   17.5390  -10.7220 N.2   801  GDP801     -0.3074
     28  C4        -9.6670   16.3860  -11.4220 C.2   801  GDP801      0.2300
@<TRIPOS>BOND
     1     7     6    2
     2    23    22    2
     3     4     1    2
     4    20    21    2
     5    20    19    1
     6    22    21    1
     7    22    24    2
     8     6     8    1
     9     6     5    1
    10     6     9    1
    11    21    28    1
    12    19    18    1
    13     1     3    1
    14     1     5    1
    15     1     2    1
    16    24    25    2
    17     9    10    1
    18    16    15    1
    19    28    18    1
    20    28    27    2
    21    18    17    1
    22    15    17    1
    23    15    13    1
    24    25    27    2
    25    25    26    1
    26    17    12    1
    27    13    11    1
    28    13    14    1
    29    10    11    1
    30    12    11    1
