@<TRIPOS>MOLECULE
3pqd_FBP_C_1.pdb
 20 20 0 0 0
SMALL
GASTEIGER

@<TRIPOS>ATOM
      1  P1         0.8620   68.4140   30.5750 P.3   327  FBP327      0.5328
      2  O1P        1.9860   69.3960   30.3480 O.3   327  FBP327     -0.1145
      3  O2P        0.6560   68.3640   32.0700 O.3   327  FBP327     -0.1145
      4  O3P       -0.4170   68.9490   29.9490 O.2   327  FBP327     -0.2224
      5  O1         1.2680   66.9290   30.0080 O.3   327  FBP327     -0.2648
      6  C1         1.8250   66.6260   28.7270 C.3   327  FBP327      0.2152
      7  C2         3.1760   65.9810   29.0150 C.3   327  FBP327      0.2780
      8  O2         2.9560   64.7980   29.8280 O.3   327  FBP327     -0.1897
      9  C3         3.8450   67.0800   29.7970 C.3   327  FBP327      0.2408
     10  O3         4.0020   66.6800   31.1430 O.3   327  FBP327     -0.2149
     11  C4         5.1380   67.3740   29.0550 C.3   327  FBP327      0.2167
     12  O4         4.9810   68.6400   28.4510 O.3   327  FBP327     -0.2175
     13  C5         5.3250   66.3100   27.9800 C.3   327  FBP327      0.1808
     14  O5         4.0390   65.6750   27.9060 O.3   327  FBP327     -0.3255
     15  C6         6.5560   65.3680   28.2030 C.3   327  FBP327      0.1859
     16  O6         7.7670   65.9430   28.7670 O.3   327  FBP327     -0.2675
     17  P2         9.1320   65.0940   29.1610 P.3   327  FBP327      0.5327
     18  O4P        9.2440   63.9610   28.1800 O.2   327  FBP327     -0.2224
     19  O5P        9.0500   64.5290   30.5550 O.3   327  FBP327     -0.1145
     20  O6P       10.4580   65.8130   29.1180 O.3   327  FBP327     -0.1145
@<TRIPOS>BOND
     1    14    13    1
     2    14     7    1
     3    13    15    1
     4    13    11    1
     5    18    17    2
     6    15    16    1
     7    12    11    1
     8     6     7    1
     9     6     5    1
    10    16    17    1
    11     7     9    1
    12     7     8    1
    13    11     9    1
    14    20    17    1
    15    17    19    1
    16     9    10    1
    17     4     1    2
    18     5     1    1
    19     2     1    1
    20     1     3    1
