@<TRIPOS>MOLECULE
3pqd_NAD_D_1.pdb
 44 48 0 0 0
SMALL
GASTEIGER

@<TRIPOS>ATOM
      1  PA        19.4560   36.3560    8.2130 P.3   327  NAD327      0.2189
      2  O1A       19.7420   34.9040    8.2040 O.2   327  NAD327     -0.5170
      3  O2A       20.2920   37.0730    9.2060 O.3   327  NAD327     -0.4371
      4  O5B       17.8990   36.5910    8.4880 O.3   327  NAD327     -0.3112
      5  C5B       16.9470   35.5870    8.2490 C.3   327  NAD327      0.1813
      6  C4B       16.3950   35.3560    9.6410 C.3   327  NAD327      0.1821
      7  O4B       15.3570   34.4100    9.6770 O.3   327  NAD327     -0.3135
      8  C3B       17.5020   34.7910   10.5070 C.3   327  NAD327      0.2184
      9  O3B       18.2210   35.8240   11.1410 O.3   327  NAD327     -0.2174
     10  C2B       16.7750   33.9290   11.5090 C.3   327  NAD327      0.2570
     11  O2B       16.7240   34.6570   12.7120 O.3   327  NAD327     -0.2130
     12  C1B       15.3750   33.7740   10.9350 C.3   327  NAD327      0.3186
     13  N9A       15.0240   32.3610   10.7370 N.pl3 327  NAD327     -0.1439
     14  C8A       15.7640   31.4260   10.0590 C.3   327  NAD327      0.3377
     15  N7A       15.0940   30.2490   10.0940 N.2   327  NAD327     -0.2095
     16  C5A       13.9410   30.4220   10.7800 C.2   327  NAD327      0.2526
     17  C6A       12.9050   29.5520   11.1050 C.2   327  NAD327      0.4393
     18  N6A       12.8200   28.3710   10.4950 N.pl3 327  NAD327      0.2180
     19  N1A       11.8280   30.0230   11.8320 N.2   327  NAD327      0.0021
     20  C2A       11.7880   31.3460   12.2300 C.3   327  NAD327      0.5254
     21  N3A       12.8200   32.2030   11.8990 N.2   327  NAD327     -0.0055
     22  C4A       13.8810   31.7480   11.1880 C.2   327  NAD327      0.3518
     23  O3        19.6040   36.9410    6.7230 O.3   327  NAD327     -0.2703
     24  PN        19.0180   38.3930    6.3470 P.3   327  NAD327      0.2189
     25  O1N       20.1330   39.2420    5.8730 O.2   327  NAD327     -0.5170
     26  O2N       18.1340   38.8640    7.4400 O.3   327  NAD327     -0.4371
     27  O5D       18.1090   38.0260    5.0680 O.3   327  NAD327     -0.3112
     28  C5D       16.7850   37.5570    5.2100 C.3   327  NAD327      0.1813
     29  C4D       16.2720   37.1390    3.8360 C.3   327  NAD327      0.1799
     30  O4D       15.7770   38.2380    3.0870 O.3   327  NAD327     -0.3327
     31  C3D       17.4090   36.5260    3.0300 C.3   327  NAD327      0.2158
     32  O3D       17.2470   35.1300    2.9150 O.3   327  NAD327     -0.2175
     33  C2D       17.3470   37.1860    1.6690 C.3   327  NAD327      0.2309
     34  O2D       17.1120   36.2100    0.6840 O.3   327  NAD327     -0.2158
     35  C1D       16.1810   38.1590    1.7290 C.3   327  NAD327      0.2263
     36  N1N       16.6490   39.4670    1.2330 N.pl3 327  NAD327     -0.2787
     37  C2N       16.2750   39.9650    0.0100 C.3   327  NAD327      0.1244
     38  C3N       16.7650   41.1980   -0.4290 C.2   327  NAD327      0.0544
     39  C7N       16.9200   41.4460   -1.9010 C.2   327  NAD327      0.2818
     40  O7N       18.2000   41.7260   -2.4400 O.2   327  NAD327     -0.2670
     41  N7N       15.8270   41.4210   -2.6530 N.am  327  NAD327     -0.0839
     42  C4N       17.6000   41.9300    0.3970 C.2   327  NAD327      0.0033
     43  C5N       17.9700   41.4180    1.6270 C.2   327  NAD327      0.0157
     44  C6N       17.4870   40.1830    2.0330 C.2   327  NAD327      0.0633
@<TRIPOS>BOND
     1    41    39   am
     2    40    39    2
     3    39    38    1
     4    38    37    1
     5    38    42    2
     6    37    36    1
     7    42    43    1
     8    34    33    1
     9    36    35    1
    10    36    44    1
    11    43    44    2
    12    33    35    1
    13    33    31    1
    14    35    30    1
    15    32    31    1
    16    31    29    1
    17    30    29    1
    18    29    28    1
    19    27    28    1
    20    27    24    1
    21    25    24    2
    22    24    23    1
    23    24    26    1
    24    23     1    1
    25     2     1    2
    26     1     4    1
    27     1     3    1
    28     5     4    1
    29     5     6    1
    30     6     7    1
    31     6     8    1
    32     7    12    1
    33    14    15    1
    34    14    13    1
    35    15    16    2
    36    18    17    1
    37     8     9    1
    38     8    10    1
    39    13    12    1
    40    13    22    1
    41    16    17    1
    42    16    22    1
    43    12    10    1
    44    17    19    2
    45    22    21    2
    46    10    11    1
    47    19    20    1
    48    21    20    1
