@<TRIPOS>MOLECULE
3pqf_NAD_C_1.pdb
 44 48 0 0 0
SMALL
GASTEIGER

@<TRIPOS>ATOM
      1  PA         3.0730  -28.5020   27.5580 P.3   352  NAD352      0.2189
      2  O1A        1.6160  -28.8140   27.5710 O.3   352  NAD352     -0.4371
      3  O2A        3.3850  -27.3410   26.6830 O.2   352  NAD352     -0.5170
      4  O5B        3.8760  -29.8020   27.0470 O.3   352  NAD352     -0.3112
      5  C5B        3.7190  -31.0690   27.6270 C.3   352  NAD352      0.1813
      6  C4B        4.0220  -32.0530   26.5130 C.3   352  NAD352      0.1821
      7  O4B        4.1020  -33.3640   27.0340 O.3   352  NAD352     -0.3135
      8  C3B        2.9110  -32.0580   25.4700 C.3   352  NAD352      0.2184
      9  O3B        3.4460  -31.7750   24.1920 O.3   352  NAD352     -0.2174
     10  C2B        2.3360  -33.4690   25.5240 C.3   352  NAD352      0.2570
     11  O2B        1.9240  -33.9720   24.2640 O.3   352  NAD352     -0.2130
     12  C1B        3.5130  -34.2400   26.0940 C.3   352  NAD352      0.3186
     13  N9A        3.1490  -35.5490   26.6740 N.pl3 352  NAD352     -0.1439
     14  C8A        2.1010  -35.8360   27.5150 C.3   352  NAD352      0.3377
     15  N7A        2.1410  -37.1610   27.8000 N.2   352  NAD352     -0.2095
     16  C5A        3.1960  -37.7130   27.1550 C.2   352  NAD352      0.2526
     17  C6A        3.6870  -39.0150   27.1000 C.2   352  NAD352      0.4393
     18  N6A        2.9510  -40.0000   27.6210 N.pl3 352  NAD352      0.2180
     19  N1A        4.8170  -39.2920   26.3330 N.2   352  NAD352      0.0021
     20  C2A        5.4490  -38.2820   25.6230 C.3   352  NAD352      0.5254
     21  N3A        4.9500  -36.9920   25.6870 N.2   352  NAD352     -0.0055
     22  C4A        3.8440  -36.7130   26.4400 C.2   352  NAD352      0.3518
     23  O3         3.5740  -28.2560   29.0680 O.3   352  NAD352     -0.2703
     24  PN         4.9510  -27.4970   29.4210 P.3   352  NAD352      0.2189
     25  O1N        4.6450  -26.0860   29.7590 O.3   352  NAD352     -0.4371
     26  O2N        5.9230  -27.8210   28.3470 O.2   352  NAD352     -0.5170
     27  O5D        5.3610  -28.2040   30.8150 O.3   352  NAD352     -0.3112
     28  C5D        5.4900  -29.6080   30.9000 C.3   352  NAD352      0.1813
     29  C4D        4.6830  -30.1420   32.0810 C.3   352  NAD352      0.1799
     30  O4D        5.0510  -29.5020   33.2950 O.3   352  NAD352     -0.3327
     31  C3D        3.1870  -29.8870   31.9390 C.3   352  NAD352      0.2158
     32  O3D        2.5360  -30.8740   31.1790 O.3   352  NAD352     -0.2175
     33  C2D        2.7170  -29.8760   33.3750 C.3   352  NAD352      0.2309
     34  O2D        2.4900  -31.1860   33.8460 O.3   352  NAD352     -0.2158
     35  C1D        3.9060  -29.2840   34.1120 C.3   352  NAD352      0.2263
     36  N1N        3.6440  -27.8420   34.3030 N.pl3 352  NAD352     -0.2787
     37  C2N        4.3630  -26.9040   33.6090 C.3   352  NAD352      0.1244
     38  C3N        4.1200  -25.5410   33.7900 C.2   352  NAD352      0.0544
     39  C7N        5.0660  -24.5150   33.2150 C.2   352  NAD352      0.2818
     40  O7N        5.5230  -24.6700   31.8870 O.2   352  NAD352     -0.2670
     41  N7N        5.4370  -23.4750   33.9620 N.am  352  NAD352     -0.0839
     42  C4N        3.1380  -25.1440   34.6960 C.2   352  NAD352      0.0033
     43  C5N        2.4180  -26.1070   35.3990 C.2   352  NAD352      0.0157
     44  C6N        2.6820  -27.4560   35.1960 C.2   352  NAD352      0.0633
@<TRIPOS>BOND
     1     9     8    1
     2    11    10    1
     3     8    10    1
     4     8     6    1
     5    10    12    1
     6    20    21    1
     7    20    19    1
     8    21    22    2
     9    12    13    1
    10    12     7    1
    11    19    17    2
    12    22    13    1
    13    22    16    1
    14     6     7    1
    15     6     5    1
    16    13    14    1
    17     3     1    2
    18     4     1    1
    19     4     5    1
    20    17    16    1
    21    17    18    1
    22    16    15    2
    23    14    15    1
    24     1     2    1
    25     1    23    1
    26    26    24    2
    27    23    24    1
    28    24    25    1
    29    24    27    1
    30    27    28    1
    31    28    29    1
    32    32    31    1
    33    40    39    2
    34    31    29    1
    35    31    33    1
    36    29    30    1
    37    39    38    1
    38    39    41   am
    39    30    35    1
    40    33    34    1
    41    33    35    1
    42    37    38    1
    43    37    36    1
    44    38    42    2
    45    35    36    1
    46    36    44    1
    47    42    43    1
    48    44    43    2
