@<TRIPOS>MOLECULE
3pqr_RET_A_1.pdb
 20 20 0 0 0
SMALL
GASTEIGER

@<TRIPOS>ATOM
      1  C1       -43.0730  -16.4620   33.9510 C.3   401  RET401      0.0183
      2  C2       -43.3040  -18.0130   34.0590 C.3   401  RET401      0.0044
      3  C3       -44.5210  -18.5000   33.4620 C.3   401  RET401      0.0047
      4  C4       -45.7420  -17.7530   33.8360 C.3   401  RET401      0.0217
      5  C5       -45.5930  -16.2650   33.6970 C.2   401  RET401     -0.0479
      6  C6       -44.4010  -15.6740   33.8500 C.2   401  RET401     -0.0307
      7  C7       -44.2540  -14.2000   33.9420 C.2   401  RET401     -0.0052
      8  C8       -44.9060  -13.3840   34.7610 C.2   401  RET401     -0.0046
      9  C9       -44.7600  -11.9290   34.8710 C.2   401  RET401     -0.0219
     10  C10      -45.2870  -11.3370   35.9630 C.2   401  RET401     -0.0043
     11  C11      -45.2760   -9.9520   36.3410 C.2   401  RET401     -0.0007
     12  C12      -45.9470   -9.4480   37.4010 C.2   401  RET401     -0.0046
     13  C13      -45.9550   -8.0760   37.8660 C.2   401  RET401     -0.0261
     14  C14      -46.8150   -7.7200   38.8540 C.2   401  RET401     -0.0300
     15  C15      -46.9690   -6.4140   39.4720 C.3   401  RET401      0.0304
     16  C16      -42.1180  -16.0050   32.8960 C.3   401  RET401      0.0043
     17  C17      -42.4150  -16.2500   35.3020 C.3   401  RET401      0.0043
     18  C18      -46.8860  -15.5430   33.3700 C.3   401  RET401      0.0260
     19  C19      -44.0410  -11.2120   33.7590 C.3   401  RET401      0.0310
     20  C20      -44.9780   -7.1040   37.2650 C.3   401  RET401      0.0307
@<TRIPOS>BOND
     1    16     1    1
     2    18     5    1
     3     3     4    1
     4     3     2    1
     5     5     4    1
     6     5     6    2
     7    19     9    1
     8     6     7    1
     9     6     1    1
    10     7     8    2
    11     1     2    1
    12     1    17    1
    13     8     9    1
    14     9    10    2
    15    10    11    1
    16    11    12    2
    17    20    13    1
    18    12    13    1
    19    13    14    2
    20    14    15    1
