@<TRIPOS>MOLECULE
3pqr_TRE_A_1.pdb
 23 24 0 0 0
SMALL
GASTEIGER

@<TRIPOS>ATOM
      1  C1       -19.5370    8.8540   29.7410 C.3   1001  TRE1001     0.2713
      2  C2       -19.2410    9.0790   28.2350 C.3   1001  TRE1001     0.2406
      3  C3       -20.5150    8.9500   27.3820 C.3   1001  TRE1001     0.2198
      4  C4       -21.1350    7.5590   27.5440 C.3   1001  TRE1001     0.2144
      5  C5       -20.7180    6.8870   28.8750 C.3   1001  TRE1001     0.1835
      6  C6       -19.4170    6.0300   28.7220 C.3   1001  TRE1001     0.2142
      7  O1       -19.9050   10.0720   30.4340 O.3   1001  TRE1001    -0.3016
      8  O2       -18.6150   10.3500   28.0170 O.3   1001  TRE1001    -0.2149
      9  O3       -20.2170    9.1670   26.0000 O.3   1001  TRE1001    -0.2174
     10  O4       -22.5590    7.6770   27.4730 O.3   1001  TRE1001    -0.2176
     11  O5       -20.6040    7.8790   29.9460 O.3   1001  TRE1001    -0.3256
     12  O6       -19.6600    4.6570   29.0530 O.3   1001  TRE1001    -0.2176
     13  C1P      -18.9310   10.4720   31.4350 C.3   1001  TRE1001     0.2713
     14  C2P      -19.0950   11.9860   31.6830 C.3   1001  TRE1001     0.2406
     15  C3P      -17.7660   12.7170   31.4770 C.3   1001  TRE1001     0.2198
     16  C4P      -16.7030   12.0680   32.3570 C.3   1001  TRE1001     0.2144
     17  C5P      -16.4800   10.6050   31.9270 C.3   1001  TRE1001     0.1835
     18  C6P      -16.3220    9.7030   33.1660 C.3   1001  TRE1001     0.2142
     19  O2P      -20.0970   12.5300   30.8190 O.3   1001  TRE1001    -0.2149
     20  O3P      -17.8980   14.0970   31.8150 O.3   1001  TRE1001    -0.2174
     21  O4P      -15.4850   12.8070   32.2680 O.3   1001  TRE1001    -0.2176
     22  O5P      -17.5550   10.1030   31.0550 O.3   1001  TRE1001    -0.3256
     23  O6P      -15.1230   10.0490   33.8680 O.3   1001  TRE1001    -0.2176
@<TRIPOS>BOND
     1     9     3    1
     2     3     4    1
     3     3     2    1
     4    10     4    1
     5     4     5    1
     6     8     2    1
     7     2     1    1
     8     6     5    1
     9     6    12    1
    10     5    11    1
    11     1    11    1
    12     1     7    1
    13     7    13    1
    14    19    14    1
    15    22    13    1
    16    22    17    1
    17    13    14    1
    18    15    14    1
    19    15    20    1
    20    15    16    1
    21    17    16    1
    22    17    18    1
    23    21    16    1
    24    18    23    1
