@<TRIPOS>MOLECULE
3pr0_JG2_A_1.pdb
 25 27 0 0 0
SMALL
GASTEIGER

@<TRIPOS>ATOM
      1  N1       -14.2230   35.8300   -6.1820 N.ar  600  JG2600     -0.2391
      2  C2       -14.4570   37.1550   -6.2180 C.ar  600  JG2600      0.1362
      3  C3       -15.2310   37.7190   -7.2290 C.ar  600  JG2600      0.0240
      4  C4       -15.7660   36.8870   -8.2030 C.ar  600  JG2600      0.0033
      5  C5       -15.5040   35.5200   -8.1330 C.ar  600  JG2600      0.0207
      6  C6       -14.7210   35.0190   -7.0990 C.ar  600  JG2600      0.0990
      7  C7       -13.8940   37.9570   -5.2330 C.ar  600  JG2600      0.2674
      8  N8       -13.1320   37.5540   -4.2300 N.ar  600  JG2600     -0.1055
      9  N9       -12.7950   38.5260   -3.5490 N.ar  600  JG2600     -0.1087
     10  C10      -13.3030   39.6280   -4.0720 C.ar  600  JG2600      0.2565
     11  O11      -14.0310   39.3150   -5.1670 O.2   600  JG2600     -0.4156
     12  C12      -13.0860   41.0180   -3.5040 C.3   600  JG2600      0.2290
     13  C13      -14.2720   41.9250   -3.8840 C.3   600  JG2600      0.0426
     14  O14      -11.8730   41.5100   -4.0950 O.3   600  JG2600     -0.2130
     15  C15      -14.1510   43.3330   -3.2620 C.3   600  JG2600      0.0031
     16  C16      -15.3370   44.2350   -3.6560 C.3   600  JG2600      0.0001
     17  C17      -15.3380   44.4960   -5.1560 C.3   600  JG2600      0.0003
     18  C18      -16.5270   45.3260   -5.6580 C.3   600  JG2600      0.0047
     19  C19      -16.3060   45.5090   -7.1600 C.3   600  JG2600      0.0264
     20  C20      -17.4280   46.1920   -7.9380 C.ar  600  JG2600     -0.0222
     21  C21      -17.1530   46.7070   -9.2080 C.ar  600  JG2600     -0.0043
     22  C22      -18.1650   47.2940   -9.9610 C.ar  600  JG2600     -0.0003
     23  C23      -19.4600   47.3390   -9.4480 C.ar  600  JG2600     -0.0000
     24  C24      -19.7390   46.8030   -8.1880 C.ar  600  JG2600     -0.0003
     25  C25      -18.7270   46.2160   -7.4340 C.ar  600  JG2600     -0.0043
@<TRIPOS>BOND
     1    22    23   ar
     2    22    21   ar
     3    23    24   ar
     4    21    20   ar
     5     4     5   ar
     6     4     3   ar
     7    24    25   ar
     8     5     6   ar
     9    20    25   ar
    10    20    19    1
    11     3     2   ar
    12    19    18    1
    13     6     1   ar
    14     2     1   ar
    15     2     7    1
    16    18    17    1
    17     7    11   ar
    18     7     8   ar
    19    11    10   ar
    20    17    16    1
    21     8     9   ar
    22    14    12    1
    23    10     9   ar
    24    10    12    1
    25    13    12    1
    26    13    15    1
    27    16    15    1
