@<TRIPOS>MOLECULE
3pr2_F9F_A_1.pdb
 22 22 0 0 0
SMALL
GASTEIGER

@<TRIPOS>ATOM
      1  C1        52.5680   24.2550   15.4300 C.ar    1  F9F1        0.1469
      2  C2        51.2100   24.1780   15.7660 C.ar    1  F9F1        0.0386
      3  C3        50.4920   25.3420   16.0330 C.ar    1  F9F1        0.0234
      4  C4        51.1020   26.5980   15.9780 C.ar    1  F9F1        0.1272
      5  C5        52.4620   26.6790   15.6450 C.ar    1  F9F1        0.0234
      6  C6        53.1820   25.5100   15.3710 C.ar    1  F9F1        0.0386
      7  O7        53.3830   23.0690   15.1380 O.3     1  F9F1       -0.4045
      8  C8        52.8850   21.7510   14.9230 C.3     1  F9F1        0.5753
      9  F9F       53.8880   20.9850   14.5070 F       1  F9F1       -0.1328
     10  F10       51.9300   21.7560   14.0010 F       1  F9F1       -0.1328
     11  F11       52.4210   21.2680   16.0690 F       1  F9F1       -0.1328
     12  S12       50.2420   27.8940   16.2810 S.O2    1  F9F1        0.0930
     13  N13       50.6120   29.0700   15.2560 N.pl3   1  F9F1       -0.0919
     14  C14       50.3070   28.9090   13.9700 C.2     1  F9F1        0.1481
     15  C15       50.2350   29.9460   13.1460 C.2     1  F9F1        0.2026
     16  O16       50.3030   29.7060   11.7150 O.2     1  F9F1       -0.3951
     17  P17       50.6180   30.9220   10.7120 P.3     1  F9F1        0.5888
     18  O18       49.3260   31.7060   10.6330 O.3     1  F9F1       -0.1039
     19  O19       51.7310   31.6750   11.3940 O.3     1  F9F1       -0.1039
     20  O20       51.0200   30.2180    9.4370 O.2     1  F9F1       -0.2114
     21  O21       50.4700   28.3530   17.6170 O.2     1  F9F1       -0.1483
     22  O22       48.8600   27.5150   16.1330 O.2     1  F9F1       -0.1483
@<TRIPOS>BOND
     1    20    17    2
     2    18    17    1
     3    17    19    1
     4    17    16    1
     5    16    15    1
     6    15    14    2
     7    14    13    1
     8    10     8    1
     9     9     8    1
    10     8     7    1
    11     8    11    1
    12     7     1    1
    13    13    12    1
    14     6     1   ar
    15     6     5   ar
    16     1     2   ar
    17     5     4   ar
    18     2     3   ar
    19     4     3   ar
    20     4    12    1
    21    22    12    2
    22    12    21    2
