@<TRIPOS>MOLECULE
3pr2_7MN_B_1.pdb
 30 32 0 0 0
SMALL
GASTEIGER

@<TRIPOS>ATOM
      1  C         80.1410   17.7630    8.5930 C.2     2  7MN2        0.3886
      2  N         81.2580   16.7610   10.4440 N.2     2  7MN2       -0.2613
      3  O         81.1290   17.3820    7.9500 O.co2   2  7MN2       -0.2434
      4  P         80.2740   12.5310   14.1660 P.3     2  7MN2        0.5329
      5  N1        85.1030   13.8170   11.9950 N.2     2  7MN2       -0.2458
      6  C2        84.9730   14.5240   10.8270 C.2     2  7MN2        0.0946
      7  C3        83.8040   15.2920   10.5830 C.2     2  7MN2        0.1955
      8  O3        83.6930   15.9560    9.5030 O.2     2  7MN2       -0.2894
      9  C4        82.7510   15.2710   11.6400 C.3     2  7MN2        0.1260
     10  C5        82.9780   14.5020   12.8310 C.2     2  7MN2        0.0174
     11  C6        84.1520   13.7930   12.9530 C.2     2  7MN2        0.0932
     12  CA        80.1810   17.4160   10.0880 C.3     2  7MN2        0.2277
     13  CB        79.0530   17.7660   11.0270 C.3     2  7MN2        0.1419
     14  CG        75.5760   16.8780   10.5700 C.ar    2  7MN2        0.0201
     15  O1P       80.2760   12.6430   15.6650 O.3     2  7MN2       -0.1145
     16  C2A       86.0960   14.4730    9.8320 C.3     2  7MN2        0.0552
     17  O2P       78.8920   12.3620   13.6040 O.2     2  7MN2       -0.2224
     18  O3P       81.2730   11.5460   13.6350 O.3     2  7MN2       -0.1145
     19  C4A       81.5590   15.9880   11.5290 C.2     2  7MN2        0.0790
     20  O4P       80.6720   13.7790   13.6450 O.3     2  7MN2       -0.2656
     21  C5A       81.9390   14.4270   13.9430 C.3     2  7MN2        0.1783
     22  CD1       76.9830   16.9120    9.9170 C.ar    2  7MN2        0.0760
     23  CD2       75.9480   16.7360   12.0190 C.ar    2  7MN2        0.0173
     24  NE1       78.0210   16.6760   10.9830 N.ar    2  7MN2       -0.3234
     25  CE2       77.3210   16.4940   12.1810 C.ar    2  7MN2        0.0600
     26  CE3       75.1160   16.9900   13.0940 C.ar    2  7MN2        0.0015
     27  CH2       77.0620   16.6950   14.5690 C.ar    2  7MN2        0.0015
     28  OXT       79.1380   18.3770    8.2210 O.co2   2  7MN2       -0.2434
     29  CZ2       77.9000   16.4600   13.4630 C.ar    2  7MN2        0.0172
     30  CZ3       75.6860   16.9610   14.3930 C.ar    2  7MN2        0.0001
@<TRIPOS>BOND
     1     3     1   ar
     2    28     1   ar
     3     1    12    1
     4     8     7    2
     5    16     6    1
     6    22    14   ar
     7    22    24   ar
     8    12     2    1
     9    12    13    1
    10     2    19    2
    11    14    23   ar
    12     7     6    1
    13     7     9    1
    14     6     5    2
    15    24    13    1
    16    24    25   ar
    17    19     9    1
    18     9    10    1
    19     5    11    1
    20    23    25   ar
    21    23    26   ar
    22    25    29   ar
    23    10    11    2
    24    10    21    1
    25    26    30   ar
    26    29    27   ar
    27    17     4    2
    28    18     4    1
    29    20    21    1
    30    20     4    1
    31     4    15    1
    32    30    27   ar
