@<TRIPOS>MOLECULE
3pr3_F6P_A_1.pdb
 27 27 0 0 0
SMALL
GASTEIGER

@<TRIPOS>ATOM
      1  O1        15.4170   15.2740   14.3720 O.3   580  F6P580     -0.3896
      2  C1        15.2510   14.7540   13.0310 C.3   580  F6P580      0.1006
      3  C2        13.7960   14.2650   12.9940 C.3   580  F6P580      0.2205
      4  O2        12.9010   15.4410   13.2350 O.3   580  F6P580     -0.3608
      5  C3        13.5120   13.5460   11.6460 C.3   580  F6P580      0.1392
      6  O3        14.2010   14.1110   10.5490 O.3   580  F6P580     -0.3837
      7  C4        14.1590   12.2150   11.9220 C.3   580  F6P580      0.1145
      8  O4        13.7220   11.1270   11.1960 O.3   580  F6P580     -0.3864
      9  C5        14.0180   11.9630   13.4360 C.3   580  F6P580      0.1143
     10  O5        13.6380   13.2280   14.0210 O.3   580  F6P580     -0.3364
     11  C6        15.4760   11.6290   13.7280 C.3   580  F6P580      0.0880
     12  O6        15.3150   10.6630   14.6180 O.3   580  F6P580     -0.2809
     13  P         16.6260    9.7940   14.6110 P.3   580  F6P580      0.5320
     14  O1P       16.5920    8.7320   13.5930 O.2   580  F6P580     -0.2224
     15  O2P       16.3200    9.1950   16.0730 O.3   580  F6P580     -0.1145
     16  O3P       18.0780   10.3820   14.7040 O.3   580  F6P580     -0.1145
     17  HO1       15.6150   14.5210   15.0000 H     580  F6P580      0.2096
     18  H11       15.9560   13.9340   12.8280 H     580  F6P580      0.0612
     19  H12       15.4330   15.5300   12.2730 H     580  F6P580      0.0612
     20  HO2       12.4580   15.7040   12.3780 H     580  F6P580      0.2129
     21  H3        12.4450   13.5670   11.3800 H     580  F6P580      0.0675
     22  HO3       13.5880   14.7240   10.0500 H     580  F6P580      0.2101
     23  H4        15.2020   12.3000   11.5830 H     580  F6P580      0.0648
     24  HO4       14.4860   10.5010   11.0410 H     580  F6P580      0.2100
     25  H5        13.2980   11.2110   13.7900 H     580  F6P580      0.0647
     26  H61       16.0310   12.4870   14.1340 H     580  F6P580      0.0592
     27  H62       16.0180   11.2900   12.8330 H     580  F6P580      0.0592
@<TRIPOS>BOND
     1    22     6    1
     2     6     5    1
     3    24     8    1
     4     8     7    1
     5    21     5    1
     6    23     7    1
     7     5     7    1
     8     5     3    1
     9     7     9    1
    10    19     2    1
    11    20     4    1
    12    18     2    1
    13    27    11    1
    14     3     2    1
    15     3     4    1
    16     3    10    1
    17     2     1    1
    18     9    11    1
    19     9    25    1
    20     9    10    1
    21    14    13    2
    22    11    26    1
    23    11    12    1
    24     1    17    1
    25    13    12    1
    26    13    16    1
    27    13    15    1
