@<TRIPOS>MOLECULE
3pr4_ATP_A_1.pdb
 26 28 0 0 0
SMALL
GASTEIGER

@<TRIPOS>ATOM
      1  PB        23.8100   12.1470   20.2510 P.3   342  ATP342      0.5373
      2  O1B       22.7210   11.7150   19.2720 O.2   342  ATP342     -0.2221
      3  O2B       24.0180   13.6330   20.6350 O.3   342  ATP342     -0.1143
      4  O3B       23.6460   11.3060   21.6350 O.3   342  ATP342     -0.1143
      5  PA        25.1280   10.1600   18.8230 P.3   342  ATP342      0.2231
      6  O1A       26.2900    9.5250   19.5660 O.3   342  ATP342     -0.4370
      7  O2A       23.8430    9.3670   18.9350 O.2   342  ATP342     -0.5169
      8  O3A       25.1420   11.6420   19.4790 O.3   342  ATP342     -0.2261
      9  O5'       25.5230   10.5610   17.3110 O.3   342  ATP342     -0.3111
     10  C5'       25.0330    9.8360   16.1870 C.3   342  ATP342      0.1813
     11  C4'       26.2660    9.4400   15.3700 C.3   342  ATP342      0.1795
     12  O4'       27.0010   10.5910   14.9340 O.3   342  ATP342     -0.3155
     13  C3'       27.2330    8.7020   16.2780 C.3   342  ATP342      0.1883
     14  O3'       27.0890    7.2970   16.1100 O.3   342  ATP342     -0.2202
     15  C2'       28.6340    9.1670   15.9140 C.3   342  ATP342      0.1151
     16  C1'       28.4140   10.3530   14.9780 C.3   342  ATP342      0.2873
     17  N9        29.1000   11.5920   15.4730 N.pl3 342  ATP342     -0.1460
     18  C8        28.5510   12.5370   16.2650 C.3   342  ATP342      0.3377
     19  N7        29.4350   13.5270   16.5060 N.2   342  ATP342     -0.2095
     20  C5        30.5970   13.2530   15.8780 C.2   342  ATP342      0.2526
     21  C6        31.9300   13.8940   15.7450 C.2   342  ATP342      0.4393
     22  N6        32.2220   15.0810   16.3400 N.pl3 342  ATP342      0.2180
     23  N1        32.8500   13.2380   14.9970 N.2   342  ATP342      0.0021
     24  C2        32.6010   12.0610   14.3760 C.3   342  ATP342      0.5254
     25  N3        31.4020   11.4360   14.4560 N.2   342  ATP342     -0.0055
     26  C4        30.3710   11.9700   15.1850 C.2   342  ATP342      0.3518
@<TRIPOS>BOND
     1    24    25    1
     2    24    23    1
     3    25    26    2
     4    12    16    1
     5    12    11    1
     6    16    17    1
     7    16    15    1
     8    23    21    2
     9    26    17    1
    10    26    20    1
    11    11    10    1
    12    11    13    1
    13    17    18    1
    14    21    20    1
    15    21    22    1
    16    20    19    2
    17    15    13    1
    18    14    13    1
    19    10     9    1
    20    18    19    1
    21     9     5    1
    22     5     7    2
    23     5     8    1
    24     5     6    1
    25     2     1    2
    26     8     1    1
    27     1     3    1
    28     1     4    1
