@<TRIPOS>MOLECULE
3pr5_ATP_B_1.pdb
 27 29 0 0 0
SMALL
GASTEIGER

@<TRIPOS>ATOM
      1  PB       -24.1560   12.2650   -5.6150 P.3   344  ATP344      0.5373
      2  O1B      -25.5570   12.4370   -6.1960 O.2   344  ATP344     -0.2221
      3  O2B      -23.9090   11.2390   -4.5150 O.3   344  ATP344     -0.1143
      4  O3B      -23.6100   13.7320   -5.1330 O.3   344  ATP344     -0.1143
      5  PA       -22.5990   10.4500   -7.1250 P.3   344  ATP344      0.2231
      6  O1A      -23.6790    9.3760   -7.2880 O.2   344  ATP344     -0.5169
      7  O2A      -21.4550   10.2190   -6.1420 O.3   344  ATP344     -0.4370
      8  O3A      -23.2040   11.9320   -6.8690 O.3   344  ATP344     -0.2261
      9  O5'      -21.9950   10.7070   -8.6150 O.3   344  ATP344     -0.3111
     10  C5'      -22.6450   10.1660   -9.7710 C.3   344  ATP344      0.1813
     11  C4'      -21.5500    9.8390  -10.7770 C.3   344  ATP344      0.1821
     12  O4'      -20.8840   11.0320  -11.2170 O.3   344  ATP344     -0.3135
     13  C3'      -20.4720    8.9950  -10.0990 C.3   344  ATP344      0.2184
     14  O3'      -20.8060    7.5980  -10.1880 O.3   344  ATP344     -0.2174
     15  C2'      -19.1330    9.4650  -10.7080 C.3   344  ATP344      0.2570
     16  O2'      -18.5380    8.5790  -11.6960 O.3   344  ATP344     -0.2130
     17  C1'      -19.4570   10.8160  -11.3510 C.3   344  ATP344      0.3186
     18  N9       -18.6970   11.9340  -10.7060 N.pl3 344  ATP344     -0.1439
     19  C8       -19.2050   12.8050   -9.7920 C.3   344  ATP344      0.3377
     20  N7       -18.2680   13.7070   -9.4070 N.2   344  ATP344     -0.2095
     21  C5       -17.1290   13.4250  -10.0850 C.2   344  ATP344      0.2526
     22  C6       -15.7660   14.0010  -10.1350 C.2   344  ATP344      0.4393
     23  N6       -15.4450   15.0850   -9.3660 N.pl3 344  ATP344      0.2180
     24  N1       -14.8780   13.4030  -10.9630 N.2   344  ATP344      0.0021
     25  C2       -15.2060   12.3360  -11.7250 C.3   344  ATP344      0.5254
     26  N3       -16.4250   11.7620  -11.7360 N.2   344  ATP344     -0.0055
     27  C4       -17.4140   12.2590  -10.9480 C.2   344  ATP344      0.3518
@<TRIPOS>BOND
     1    26    25    1
     2    26    27    2
     3    25    24    1
     4    16    15    1
     5    17    12    1
     6    17    15    1
     7    17    18    1
     8    12    11    1
     9    24    22    2
    10    27    18    1
    11    27    21    1
    12    11    13    1
    13    11    10    1
    14    15    13    1
    15    18    19    1
    16    14    13    1
    17    22    21    1
    18    22    23    1
    19    21    20    2
    20    19    20    1
    21    10     9    1
    22     9     5    1
    23     6     5    2
    24     5     8    1
    25     5     7    1
    26     8     1    1
    27     2     1    2
    28     1     4    1
    29     1     3    1
