@<TRIPOS>MOLECULE
3pr8_GSH_A_1.pdb
 20 19 0 0 0
SMALL
GASTEIGER

@<TRIPOS>ATOM
      1  N1        49.6840   -5.5340   73.4930 N.3   300  GSH300     -0.1208
      2  CA1       49.7580   -6.2460   72.2240 C.3   300  GSH300      0.1948
      3  C1        50.9570   -5.7380   71.4790 C.2   300  GSH300      0.3819
      4  O11       51.5160   -6.3900   70.5220 O.co2 300  GSH300     -0.2441
      5  O12       51.3690   -4.6260   71.8310 O.co2 300  GSH300     -0.2441
      6  CB1       48.4610   -5.9460   71.4570 C.3   300  GSH300      0.0402
      7  CG1       48.5100   -6.3780   70.0000 C.3   300  GSH300      0.0889
      8  CD1       47.1170   -6.6500   69.4900 C.2   300  GSH300      0.2418
      9  OE1       45.9790   -6.1980   70.1890 O.2   300  GSH300     -0.2733
     10  N2        47.0220   -7.3640   68.3690 N.am  300  GSH300     -0.1968
     11  CA2       45.7020   -7.6810   67.8320 C.3   300  GSH300      0.1843
     12  C2        45.2590   -9.0460   68.2620 C.2   300  GSH300      0.2627
     13  O2        46.2300   -9.9240   68.7240 O.2   300  GSH300     -0.2714
     14  CB2       45.7320   -7.6570   66.3150 C.3   300  GSH300      0.0997
     15  SG2       46.1680   -6.0130   65.7160 S.3   300  GSH300     -0.0797
     16  N3        43.9630   -9.3590   68.1790 N.am  300  GSH300     -0.1917
     17  CA3       43.5030  -10.7280   68.3790 C.3   300  GSH300      0.2285
     18  C3        42.9890  -11.0030   69.7750 C.2   300  GSH300      0.3865
     19  O31       42.4900  -12.1210   70.0350 O.co2 300  GSH300     -0.2437
     20  O32       43.0530  -10.1360   70.6820 O.co2 300  GSH300     -0.2437
@<TRIPOS>BOND
     1    15    14    1
     2    14    11    1
     3    11    12    1
     4    11    10    1
     5    16    12   am
     6    16    17    1
     7    12    13    2
     8    10     8   am
     9    17    18    1
    10     8     7    1
    11     8     9    2
    12    18    19   ar
    13    18    20   ar
    14     7     6    1
    15     4     3   ar
    16     6     2    1
    17     3     5   ar
    18     3     2    1
    19     2     1    1
