@<TRIPOS>MOLECULE
3prc_NS5_M_1.pdb
 40 39 0 0 0
SMALL
GASTEIGER

@<TRIPOS>ATOM
      1  C1       127.0350   52.9000   -5.1450 C.3   600  NS5600      0.0000
      2  CM1      127.5700   52.4420   -6.4950 C.3   600  NS5600      0.0000
      3  CM2      126.4670   54.3080   -5.2380 C.3   600  NS5600      0.0000
      4  C2       125.9870   51.9240   -4.6020 C.3   600  NS5600      0.0000
      5  C3       126.5410   50.5570   -4.2230 C.3   600  NS5600      0.0000
      6  C4       125.4790   49.6840   -3.5590 C.3   600  NS5600      0.0000
      7  C5       126.0070   48.3670   -3.0760 C.3   600  NS5600      0.0000
      8  C6       127.3900   48.4100   -2.5190 C.3   600  NS5600      0.0000
      9  C7       125.1640   47.3550   -2.7920 C.3   600  NS5600      0.0000
     10  C8       125.5980   45.9460   -2.5400 C.3   600  NS5600      0.0000
     11  C9       124.7700   45.2480   -1.4420 C.3   600  NS5600      0.0003
     12  C10      125.0280   45.8070   -0.0480 C.3   600  NS5600      0.0043
     13  C11      126.4530   45.8610    0.3710 C.3   600  NS5600      0.0003
     14  C12      124.0080   45.9380    0.8270 C.3   600  NS5600      0.0260
     15  C13      123.9110   46.8440    1.9680 C.2   600  NS5600     -0.0265
     16  C14      124.5660   46.7410    3.1380 C.2   600  NS5600     -0.0088
     17  C15      124.4140   47.6600    4.2580 C.2   600  NS5600     -0.0222
     18  C16      123.3800   48.7080    4.0550 C.3   600  NS5600      0.0310
     19  C17      125.1400   47.5300    5.3880 C.2   600  NS5600     -0.0046
     20  C18      125.1520   48.4360    6.4860 C.2   600  NS5600     -0.0049
     21  C19      125.8380   48.4030    7.6490 C.2   600  NS5600     -0.0258
     22  C20      126.8170   47.4480    8.1000 C.3   600  NS5600      0.0304
     23  C21      127.6410   47.6610    9.1590 C.3   600  NS5600      0.0264
     24  C22      127.9090   49.0040    9.7080 C.3   600  NS5600      0.0050
     25  C23      128.5190   46.6000    9.6730 C.2   600  NS5600     -0.0261
     26  C24      129.7750   46.7990   10.0990 C.2   600  NS5600     -0.0049
     27  C25      130.6750   45.7830   10.5450 C.2   600  NS5600     -0.0046
     28  C26      132.0030   45.9050   10.7800 C.2   600  NS5600     -0.0222
     29  C27      132.8000   47.1370   10.4160 C.3   600  NS5600      0.0310
     30  C28      132.7540   44.8110   11.4630 C.2   600  NS5600     -0.0088
     31  C29      134.0820   44.8450   11.6930 C.2   600  NS5600     -0.0265
     32  C30      134.8630   43.8600   12.3980 C.3   600  NS5600      0.0260
     33  C31      136.1750   43.9110   12.7080 C.3   600  NS5600      0.0047
     34  C32      137.1280   44.8720   12.1120 C.3   600  NS5600      0.0004
     35  C33      136.7210   43.0540   13.8080 C.3   600  NS5600      0.0050
     36  C34      137.6350   41.9390   13.2720 C.3   600  NS5600      0.0254
     37  C35      138.1700   40.9910   14.3700 C.2   600  NS5600     -0.0346
     38  C36      138.6320   39.7160   14.1730 C.2   600  NS5600     -0.0478
     39  CM3      138.6240   39.0320   12.8250 C.3   600  NS5600      0.0260
     40  CM4      139.0190   38.7960   15.3160 C.3   600  NS5600      0.0260
@<TRIPOS>BOND
     1     2     1    1
     2     3     1    1
     3     1     4    1
     4     4     5    1
     5     5     6    1
     6     6     7    1
     7     7     9    1
     8     7     8    1
     9     9    10    1
    10    10    11    1
    11    11    12    1
    12    12    13    1
    13    12    14    1
    14    14    15    1
    15    15    16    2
    16    16    17    1
    17    18    17    1
    18    17    19    2
    19    19    20    1
    20    20    21    2
    21    21    22    1
    22    22    23    1
    23    23    25    1
    24    23    24    1
    25    25    26    2
    26    26    27    1
    27    29    28    1
    28    27    28    2
    29    28    30    1
    30    30    31    2
    31    31    32    1
    32    34    33    1
    33    32    33    1
    34    33    35    1
    35    39    38    1
    36    36    35    1
    37    36    37    1
    38    38    37    2
    39    38    40    1
