@<TRIPOS>MOLECULE
3prc_HEM_C_1.pdb
 43 50 0 0 0
SMALL
GASTEIGER

@<TRIPOS>ATOM
      1  CHA       79.3480    9.4930   17.9940 C.2   337  HEM337      0.0000
      2  CHB       75.7940   10.3420   14.7640 C.2   337  HEM337      0.0000
      3  CHC       78.5790   13.4940   12.4030 C.2   337  HEM337      0.0000
      4  CHD       82.2870   12.2600   15.3150 C.2   337  HEM337      0.0000
      5  C1A       78.1320    9.4310   17.2980 C.ar  337  HEM337      0.0000
      6  C2A       77.0070    8.5910   17.6560 C.ar  337  HEM337      0.0000
      7  C3A       75.9990    8.8800   16.8030 C.ar  337  HEM337      0.0000
      8  C4A       76.5230    9.8140   15.8260 C.ar  337  HEM337      0.0000
      9  CMA       74.6020    8.2450   16.9260 C.3   337  HEM337      0.0000
     10  CAA       76.8910    7.4950   18.7050 C.3   337  HEM337      0.0000
     11  CBA       77.1570    6.1480   18.0460 C.3   337  HEM337      0.0000
     12  CGA       77.8040    5.1740   18.9840 C.2   337  HEM337      0.0000
     13  O1A       79.0370    5.2810   19.1680 O.co2 337  HEM337      0.0000
     14  O2A       77.0800    4.3280   19.5560 O.co2 337  HEM337      0.0000
     15  C1B       76.2550   11.2640   13.8360 C.2   337  HEM337      0.0000
     16  C2B       75.4550   11.8480   12.7880 C.2   337  HEM337      0.0000
     17  C3B       76.1590   12.8670   12.2800 C.2   337  HEM337      0.0000
     18  C4B       77.4910   12.7580   12.8090 C.2   337  HEM337      0.0000
     19  CMB       74.0740   11.4310   12.3540 C.3   337  HEM337      0.0000
     20  CAB       75.8120   13.9780   11.3520 C.3   337  HEM337      0.0000
     21  CBB       74.4900   14.6550   11.7020 C.3   337  HEM337      0.0000
     22  C1C       79.8460   13.3980   12.9660 C.ar  337  HEM337      0.0000
     23  C2C       81.0250   14.0120   12.4200 C.ar  337  HEM337      0.0000
     24  C3C       82.0760   13.5850   13.1640 C.ar  337  HEM337      0.0000
     25  C4C       81.5400   12.7830   14.2500 C.ar  337  HEM337      0.0000
     26  CMC       80.9870   14.8870   11.1840 C.3   337  HEM337      0.0000
     27  CAC       83.5970   13.7580   13.0540 C.3   337  HEM337      0.0000
     28  CBC       84.1000   15.2080   13.0190 C.3   337  HEM337      0.0000
     29  C1D       81.8200   11.4310   16.3440 C.2   337  HEM337      0.0000
     30  C2D       82.5830   10.9880   17.5120 C.2   337  HEM337      0.0000
     31  C3D       81.7240   10.3140   18.3150 C.2   337  HEM337      0.0000
     32  C4D       80.4670   10.2230   17.5990 C.2   337  HEM337      0.0000
     33  CMD       84.0620   11.1790   17.8750 C.3   337  HEM337      0.0000
     34  CAD       82.0960    9.7990   19.6900 C.3   337  HEM337      0.0000
     35  CBD       81.6750   10.8500   20.6820 C.3   337  HEM337      0.0000
     36  CGD       82.1120   10.5450   22.0930 C.2   337  HEM337      0.0000
     37  O1D       81.4980   11.0960   23.0250 O.co2 337  HEM337      0.0000
     38  O2D       83.0880    9.7930   22.2890 O.co2 337  HEM337      0.0000
     39  NA        77.8400   10.1150   16.1320 N.ar  337  HEM337      0.0000
     40  NB        77.5220   11.8130   13.8100 N.2   337  HEM337      0.0000
     41  NC        80.1940   12.5940   14.0350 N.ar  337  HEM337      0.0000
     42  ND        80.5250   10.9680   16.4370 N.2   337  HEM337      0.0000
     43 FE         79.0850   11.3800   15.1160 Fe    337  HEM337      0.0000
@<TRIPOS>BOND
     1    26    23    1
     2    20    21    1
     3    20    17    1
     4    17    16    2
     5    17    18    1
     6    19    16    1
     7     3    18    2
     8     3    22    1
     9    23    22   ar
    10    23    24   ar
    11    16    15    1
    12    18    40    1
    13    22    41   ar
    14    28    27    1
    15    27    24    1
    16    24    25   ar
    17    40    15    2
    18    40    43    1
    19    15     2    1
    20    41    25   ar
    21    41    43    1
    22    25     4    1
    23     2     8    2
    24    43    39    1
    25    43    42    1
    26     4    29    2
    27     8    39   ar
    28     8     7   ar
    29    39     5   ar
    30    29    42    1
    31    29    30    1
    32    42    32    2
    33     7     9    1
    34     7     6   ar
    35     5     6   ar
    36     5     1    2
    37    30    33    1
    38    30    31    2
    39    32     1    1
    40    32    31    1
    41     6    10    1
    42    11    10    1
    43    11    12    1
    44    31    34    1
    45    12    13   ar
    46    12    14   ar
    47    34    35    1
    48    35    36    1
    49    36    38   ar
    50    36    37   ar
