@<TRIPOS>MOLECULE
3prc_MQ7_M_1.pdb
 48 49 0 0 0
SMALL
GASTEIGER

@<TRIPOS>ATOM
      1  C1       125.4700   82.3380    7.8810 C.2   501  MQ7501      0.1915
      2  O1       125.4510   81.6160    6.8970 O.2   501  MQ7501     -0.2869
      3  C2       124.6890   82.0050    9.0620 C.2   501  MQ7501      0.0165
      4  C2M      123.7570   80.8010    8.9700 C.3   501  MQ7501      0.0342
      5  C3       124.7720   82.7750   10.1940 C.2   501  MQ7501      0.0202
      6  C4       125.6200   83.9350   10.1990 C.2   501  MQ7501      0.1918
      7  O4       125.6350   84.6270   11.1850 O.2   501  MQ7501     -0.2869
      8  C5       126.3990   84.2800    9.0240 C.ar  501  MQ7501      0.0417
      9  C6       127.2690   85.3840    9.0540 C.ar  501  MQ7501      0.0033
     10  C7       128.0540   85.6720    7.9600 C.ar  501  MQ7501      0.0001
     11  C8       127.9810   84.8710    6.8290 C.ar  501  MQ7501      0.0001
     12  C9       127.1170   83.7900    6.8040 C.ar  501  MQ7501      0.0033
     13  C10      126.3290   83.5010    7.9050 C.ar  501  MQ7501      0.0417
     14  C11      124.0190   82.3920   11.4660 C.3   501  MQ7501      0.0547
     15  C12      124.7140   81.4020   12.2310 C.2   501  MQ7501     -0.0298
     16  C13      125.2160   81.5150   13.5030 C.2   501  MQ7501     -0.0475
     17  C14      125.1180   82.7970   14.3090 C.3   501  MQ7501      0.0260
     18  C15      125.8680   80.3370   14.1400 C.3   501  MQ7501      0.0264
     19  C16      125.0940   79.9820   15.3980 C.3   501  MQ7501      0.0297
     20  C17      123.7630   79.5260   15.0110 C.2   501  MQ7501     -0.0342
     21  C18      123.1300   78.3120   15.2660 C.2   501  MQ7501     -0.0478
     22  C19      123.7140   77.1790   16.1280 C.3   501  MQ7501      0.0260
     23  C20      121.7340   78.0350   14.7520 C.3   501  MQ7501      0.0263
     24  C21      120.7600   78.0820   15.9340 C.3   501  MQ7501      0.0297
     25  C22      120.4700   79.4090   16.5110 C.2   501  MQ7501     -0.0342
     26  C23      120.0960   79.6250   17.8170 C.2   501  MQ7501     -0.0478
     27  C24      119.9340   78.4910   18.7540 C.3   501  MQ7501      0.0260
     28  C25      119.8190   80.9380   18.4630 C.3   501  MQ7501      0.0263
     29  C26      118.3340   81.0820   18.3860 C.3   501  MQ7501      0.0297
     30  C27      117.9420   82.3500   18.8410 C.2   501  MQ7501     -0.0342
     31  C28      116.7620   83.0430   18.6450 C.2   501  MQ7501     -0.0478
     32  C29      115.5860   82.5230   17.8240 C.3   501  MQ7501      0.0260
     33  C30      116.6230   84.4280   19.2600 C.3   501  MQ7501      0.0263
     34  C31      115.5590   84.5790   20.3240 C.3   501  MQ7501      0.0297
     35  C32      115.4380   86.0630   20.6950 C.2   501  MQ7501     -0.0342
     36  C33      114.3180   86.8670   20.9340 C.2   501  MQ7501     -0.0478
     37  C34      112.8910   86.3130   20.8600 C.3   501  MQ7501      0.0260
     38  C35      114.2950   88.3620   21.2690 C.3   501  MQ7501      0.0263
     39  C36      113.7040   89.0420   20.0260 C.3   501  MQ7501      0.0297
     40  C37      113.5760   90.5170   20.0490 C.2   501  MQ7501     -0.0342
     41  C38      112.6850   91.3320   19.3570 C.2   501  MQ7501     -0.0478
     42  C39      111.5870   90.8480   18.4020 C.3   501  MQ7501      0.0260
     43  C40      112.6600   92.8280   19.4790 C.3   501  MQ7501      0.0263
     44  C41      111.8480   93.2540   20.7070 C.3   501  MQ7501      0.0297
     45  C42      112.8060   93.2160   21.7840 C.2   501  MQ7501     -0.0342
     46  C43      113.1010   92.4020   22.8750 C.2   501  MQ7501     -0.0478
     47  C44      112.3390   91.1490   23.3810 C.3   501  MQ7501      0.0260
     48  C45      114.3090   92.7200   23.7640 C.3   501  MQ7501      0.0260
@<TRIPOS>BOND
     1    12    11   ar
     2    12    13   ar
     3    11    10   ar
     4     2     1    2
     5     1    13    1
     6     1     3    1
     7    13     8   ar
     8    10     9   ar
     9     4     3    1
    10     8     9   ar
    11     8     6    1
    12     3     5    2
    13     5     6    1
    14     5    14    1
    15     6     7    2
    16    14    15    1
    17    15    16    2
    18    16    18    1
    19    16    17    1
    20    18    19    1
    21    23    21    1
    22    23    24    1
    23    20    21    2
    24    20    19    1
    25    21    22    1
    26    24    25    1
    27    25    26    2
    28    26    28    1
    29    26    27    1
    30    32    31    1
    31    29    28    1
    32    29    30    1
    33    42    41    1
    34    31    30    2
    35    31    33    1
    36    33    34    1
    37    41    43    1
    38    41    40    2
    39    43    44    1
    40    39    40    1
    41    39    38    1
    42    34    35    1
    43    35    36    2
    44    44    45    1
    45    37    36    1
    46    36    38    1
    47    45    46    2
    48    46    47    1
    49    46    48    1
