@<TRIPOS>MOLECULE
3pre_3RE_A_1.pdb
 26 29 0 0 0
SMALL
GASTEIGER

@<TRIPOS>ATOM
      1  N1        47.5390   12.6090   28.3460 N.2   101  3RE101     -0.3339
      2  C2        48.1500   13.6290   28.9580 C.1   101  3RE101      0.2418
      3  N3        47.5840   14.4950   29.8110 N.2   101  3RE101     -0.3139
      4  C4        46.2870   14.3070   30.0580 C.2   101  3RE101      0.1898
      5  C5        45.5610   13.2980   29.4890 C.3   101  3RE101      0.1392
      6  C6        46.2460   12.4700   28.6420 C.2   101  3RE101      0.1125
      7  N7        45.5990   15.1410   30.9310 N.am  101  3RE101     -0.2343
      8  C8        44.2490   14.9880   31.2400 C.2   101  3RE101      0.2552
      9  C9        43.4820   13.8810   30.6220 C.2   101  3RE101      0.0662
     10  C10       44.1630   13.0940   29.7870 C.2   101  3RE101     -0.0055
     11  N11       49.5010   13.7910   28.6550 N.pl3 101  3RE101     -0.0232
     12  C12       45.5380   11.3600   27.9910 C.3   101  3RE101      0.0634
     13  O13       43.6750   15.7400   32.0090 O.2   101  3RE101     -0.2695
     14  C14       46.3640   16.2180   31.5130 C.3   101  3RE101      0.0823
     15  C15       46.4880   16.0840   33.0110 C.3   101  3RE101      0.0228
     16  C16       47.1680   17.2850   33.6250 C.3   101  3RE101      0.0313
     17  C17       46.4990   18.5840   33.2260 C.3   101  3RE101      0.1154
     18  C18       46.5200   18.6890   31.7170 C.3   101  3RE101      0.0313
     19  C19       45.7010   17.5440   31.1620 C.3   101  3RE101      0.0228
     20  O20       47.2590   19.6590   33.7680 O.3   101  3RE101     -0.3536
     21  C21       42.1110   13.6420   30.9790 C.2   101  3RE101      0.0906
     22  C22       41.2890   12.6330   30.4110 C.3   101  3RE101      0.0966
     23  C23       40.0700   12.6890   31.0470 C.2   101  3RE101      0.1021
     24  N24       40.1880   13.6990   31.9510 N.2   101  3RE101     -0.1510
     25  N25       41.4050   14.2750   31.9340 N.2   101  3RE101     -0.1521
     26  C26       46.4240   20.2900   34.7340 C.3   101  3RE101      0.1740
@<TRIPOS>BOND
     1    12     6    1
     2     1     6    2
     3     1     2    2
     4     6     5    1
     5    11     2    1
     6     2     3    2
     7     5    10    1
     8     5     4    1
     9    10     9    2
    10     3     4    2
    11     4     7    1
    12    22    21    1
    13    22    23    1
    14     9    21    1
    15     9     8    1
    16     7     8   am
    17     7    14    1
    18    21    25    2
    19    23    24    2
    20    19    14    1
    21    19    18    1
    22     8    13    2
    23    14    15    1
    24    18    17    1
    25    25    24    1
    26    15    16    1
    27    17    16    1
    28    17    20    1
    29    20    26    1
