@<TRIPOS>MOLECULE
3prf_FP3_A_1.pdb
 24 27 0 0 0
SMALL
GASTEIGER

@<TRIPOS>ATOM
      1  C1        78.8250    4.9950   -7.2210 C.ar  727  FP3727      0.0966
      2  C2        79.1310    5.9280   -8.2260 C.ar  727  FP3727      0.0160
      3  C3        80.3980    6.5330   -8.2170 C.ar  727  FP3727      0.0176
      4  C4        81.3510    6.2280   -7.2210 C.ar  727  FP3727      0.0739
      5  C5        81.0400    5.2980   -6.2140 C.ar  727  FP3727      0.0594
      6  C6        79.7720    4.6810   -6.2230 C.ar  727  FP3727      0.2074
      7  N7        82.5490    6.8380   -7.2290 N.pl3 727  FP3727     -0.2085
      8  C8        80.3340   10.6880   -8.4660 C.ar  727  FP3727      0.0991
      9  N9        81.1470   11.5950   -9.0550 N.ar  727  FP3727     -0.2391
     10  C10       82.4590   11.3100   -9.2150 C.ar  727  FP3727      0.1363
     11  C11       82.9700   10.0750   -8.7700 C.ar  727  FP3727      0.1667
     12  C12       82.1430    9.1350   -8.1630 C.ar  727  FP3727      0.0566
     13  C13       80.7780    9.4310   -7.9960 C.ar  727  FP3727      0.0251
     14  O14       84.2630    9.6190   -8.8480 O.2   727  FP3727     -0.4407
     15  C15       84.2040    8.3340   -8.2550 C.ar  727  FP3727      0.2214
     16  C16       82.9340    7.9860   -7.8220 C.ar  727  FP3727      0.1176
     17  C17       85.3820    7.5210   -8.1500 C.1   727  FP3727      0.0684
     18  N18       86.5780    8.1370   -8.3140 N.2   727  FP3727     -0.1902
     19  C19       87.7090    7.3990   -8.2290 C.2   727  FP3727      0.1071
     20  C20       87.6300    6.0150   -7.9750 C.2   727  FP3727      0.0222
     21  C21       86.3430    5.4510   -7.8180 C.3   727  FP3727      0.1642
     22  N22       85.2200    6.2010   -7.9090 N.2   727  FP3727     -0.2126
     23  O23       79.4590    3.7640   -5.2480 O.3   727  FP3727     -0.2856
     24 CL1        77.2740    4.2340   -7.2140 Cl    727  FP3727     -0.0789
@<TRIPOS>BOND
     1    10     9   ar
     2    10    11   ar
     3     9     8   ar
     4    14    11   ar
     5    14    15   ar
     6    11    12   ar
     7     8    13   ar
     8    18    19    1
     9    18    17    2
    10    15    17    1
    11    15    16   ar
    12    19    20    2
    13     2     3   ar
    14     2     1   ar
    15     3     4   ar
    16    12    13   ar
    17    12    16   ar
    18    17    22    2
    19    20    21    1
    20    22    21    1
    21    16     7    1
    22     7     4    1
    23     1    24    1
    24     1     6   ar
    25     4     5   ar
    26     6     5   ar
    27     6    23    1
