@<TRIPOS>MOLECULE
3pri_FP4_A_1.pdb
 29 33 0 0 0
SMALL
GASTEIGER

@<TRIPOS>ATOM
      1  C1        79.4720   10.8070   -8.4200 C.ar  727  FP4727      0.0991
      2  N2        80.3310   11.8370   -8.5900 N.ar  727  FP4727     -0.2391
      3  C3        81.6650   11.6430   -8.6200 C.ar  727  FP4727      0.1363
      4  C4        82.1660   10.3590   -8.4760 C.ar  727  FP4727      0.1667
      5  C5        81.3270    9.2950   -8.3060 C.ar  727  FP4727      0.0566
      6  C6        79.9610    9.4970   -8.2730 C.ar  727  FP4727      0.0251
      7  O7        83.5220   10.0720   -8.4970 O.2   727  FP4727     -0.4407
      8  C8        83.4800    8.7330   -8.3270 C.ar  727  FP4727      0.2214
      9  C9        82.2750    8.1370   -8.2000 C.ar  727  FP4727      0.1172
     10  C10       84.7540    7.9480   -8.2960 C.1   727  FP4727      0.0684
     11  N11       84.7570    6.6820   -7.8260 N.2   727  FP4727     -0.2126
     12  C12       85.8900    5.9490   -7.7910 C.3   727  FP4727      0.1642
     13  C13       87.0750    6.5140   -8.2520 C.2   727  FP4727      0.0222
     14  C14       87.0520    7.8300   -8.7410 C.2   727  FP4727      0.1071
     15  N15       85.8890    8.5140   -8.7500 N.2   727  FP4727     -0.1902
     16  N16       82.0440    6.8590   -8.0300 N.pl3 727  FP4727     -0.2125
     17  C17       80.8280    6.2750   -7.9130 C.2   727  FP4727      0.0553
     18  C18       79.7880    6.4700   -8.8210 C.3   727  FP4727      0.0692
     19  C19       78.5580    5.8000   -8.6280 C.2   727  FP4727     -0.0184
     20  C20       78.3830    4.9400   -7.5380 C.2   727  FP4727      0.0168
     21  C21       79.4390    4.7710   -6.6630 C.2   727  FP4727      0.1047
     22  C22       80.6090    5.4160   -6.8510 C.2   727  FP4727      0.0462
     23  N23       79.4720    3.9950   -5.5650 N.2   727  FP4727     -0.1482
     24  N24       80.7120    4.1380   -5.0180 N.2   727  FP4727     -0.1523
     25  C25       81.4300    4.9450   -5.7020 C.2   727  FP4727      0.0830
     26  C26       82.8470    5.3330   -5.3810 C.3   727  FP4727      0.0504
     27  C27       83.4750    4.4080   -4.3080 C.3   727  FP4727      0.0419
     28  C28       84.8920    4.8920   -3.8950 C.3   727  FP4727      0.1825
     29  O29       85.8350    3.8190   -4.0530 O.3   727  FP4727     -0.2204
@<TRIPOS>BOND
     1    18    19    1
     2    18    17    1
     3    15    14    1
     4    15    10    2
     5    14    13    2
     6    19    20    2
     7     3     2   ar
     8     3     4   ar
     9     2     1   ar
    10     7     4   ar
    11     7     8   ar
    12     4     5   ar
    13     1     6   ar
    14     8    10    1
    15     8     9   ar
    16     5     6   ar
    17     5     9   ar
    18    10    11    2
    19    13    12    1
    20     9    16    1
    21    16    17    1
    22    17    22    2
    23    11    12    1
    24    20    21    1
    25    22    21    1
    26    22    25    1
    27    21    23    2
    28    25    26    1
    29    25    24    2
    30    23    24    1
    31    26    27    1
    32    27    28    1
    33    29    28    1
