@<TRIPOS>MOLECULE
3prj_NAI_A_1.pdb
 44 48 0 0 0
SMALL
GASTEIGER

@<TRIPOS>ATOM
      1  PA        -7.8160    3.9610   47.3800 P.3   500  NAI500      0.2189
      2  O1A       -6.5500    3.2330   47.1940 O.2   500  NAI500     -0.5170
      3  O2A       -8.4240    3.7750   48.8820 O.3   500  NAI500     -0.4371
      4  O5B       -8.8540    3.6050   46.2550 O.3   500  NAI500     -0.3112
      5  C5B       -8.4440    3.4090   44.9280 C.3   500  NAI500      0.1813
      6  C4B       -8.7610    2.0050   44.4800 C.3   500  NAI500      0.1821
      7  O4B       -8.4810    2.1460   43.0930 O.3   500  NAI500     -0.3135
      8  C3B       -7.7720    0.9540   45.0440 C.3   500  NAI500      0.2184
      9  O3B       -8.4630   -0.1430   45.6640 O.3   500  NAI500     -0.2174
     10  C2B       -6.9740    0.4740   43.8220 C.3   500  NAI500      0.2570
     11  O2B       -6.8100   -0.9290   43.7810 O.3   500  NAI500     -0.2130
     12  C1B       -7.8790    0.8570   42.6730 C.3   500  NAI500      0.3186
     13  N9A       -7.0800    0.9710   41.4130 N.pl3 500  NAI500     -0.1439
     14  C8A       -5.9180    1.6030   41.2770 C.3   500  NAI500      0.3377
     15  N7A       -5.4990    1.5040   40.0070 N.2   500  NAI500     -0.2095
     16  C5A       -6.3880    0.8170   39.3190 C.2   500  NAI500      0.2526
     17  C6A       -6.4780    0.4190   37.9840 C.2   500  NAI500      0.4393
     18  N6A       -5.5500    0.7230   37.1040 N.pl3 500  NAI500      0.2180
     19  N1A       -7.5440   -0.2940   37.5910 N.2   500  NAI500      0.0021
     20  C2A       -8.4880   -0.6140   38.4830 C.3   500  NAI500      0.5254
     21  N3A       -8.4380   -0.2490   39.7680 N.2   500  NAI500     -0.0055
     22  C4A       -7.3990    0.4730   40.2180 C.2   500  NAI500      0.3518
     23  O3        -7.6890    5.5560   47.2460 O.3   500  NAI500     -0.2703
     24  PN        -8.9730    6.5480   47.3630 P.3   500  NAI500      0.2189
     25  O1N       -8.7960    7.3140   48.8010 O.3   500  NAI500     -0.4371
     26  O2N      -10.2620    5.8570   47.1070 O.2   500  NAI500     -0.5170
     27  O5D       -8.6760    7.7250   46.2370 O.3   500  NAI500     -0.3112
     28  C5D       -9.0020    9.1150   46.4030 C.3   500  NAI500      0.1813
     29  C4D       -7.7760   10.0600   46.4360 C.3   500  NAI500      0.1799
     30  O4D       -6.6030    9.6420   47.2250 O.3   500  NAI500     -0.3327
     31  C3D       -7.2500   10.2620   45.0320 C.3   500  NAI500      0.2158
     32  O3D       -7.5000   11.6250   44.7600 O.3   500  NAI500     -0.2175
     33  C2D       -5.7330    9.9580   45.1270 C.3   500  NAI500      0.2309
     34  O2D       -4.9720   10.7910   44.2670 O.3   500  NAI500     -0.2158
     35  C1D       -5.3800   10.2550   46.5920 C.3   500  NAI500      0.2263
     36  N1N       -3.9690    9.8240   47.1330 N.pl3 500  NAI500     -0.2787
     37  C2N       -3.6100    8.4650   47.3780 C.3   500  NAI500      0.1244
     38  C3N       -2.3530    8.1030   47.8930 C.2   500  NAI500      0.0544
     39  C7N       -2.0700    6.6230   48.1340 C.2   500  NAI500      0.2818
     40  O7N       -0.9800    6.2580   48.5820 O.2   500  NAI500     -0.2670
     41  N7N       -3.0780    5.8000   47.8130 N.am  500  NAI500     -0.0839
     42  C4N       -1.2510    9.1360   48.2200 C.2   500  NAI500      0.0033
     43  C5N       -1.6770   10.4390   47.9730 C.2   500  NAI500      0.0157
     44  C6N       -2.9600   10.7720   47.4790 C.2   500  NAI500      0.0633
@<TRIPOS>BOND
     1    18    17    1
     2    19    17    2
     3    19    20    1
     4    17    16    1
     5    20    21    1
     6    16    15    2
     7    16    22    1
     8    21    22    2
     9    15    14    1
    10    22    13    1
    11    14    13    1
    12    13    12    1
    13    12     7    1
    14    12    10    1
    15     7     6    1
    16    11    10    1
    17    10     8    1
    18    34    33    1
    19     6     5    1
    20     6     8    1
    21    32    31    1
    22     5     4    1
    23    31    33    1
    24    31    29    1
    25     8     9    1
    26    33    35    1
    27    27    28    1
    28    27    24    1
    29     4     1    1
    30    28    29    1
    31    29    30    1
    32    35    36    1
    33    35    30    1
    34    26    24    2
    35    36    37    1
    36    36    44    1
    37     2     1    2
    38    23    24    1
    39    23     1    1
    40    24    25    1
    41    37    38    1
    42     1     3    1
    43    44    43    2
    44    41    39   am
    45    38    39    1
    46    38    42    2
    47    43    42    1
    48    39    40    2
