@<TRIPOS>MOLECULE
3prj_UDX_A_1.pdb
 34 36 0 0 0
SMALL
GASTEIGER

@<TRIPOS>ATOM
      1  C1'      -11.0600   16.3050   53.8530 C.3   501  UDX501      0.2742
      2  C2'      -12.0450   17.3730   53.3470 C.3   501  UDX501      0.2409
      3  O2'      -13.0120   17.7040   54.3590 O.3   501  UDX501     -0.2149
      4  C3'      -12.7400   16.8820   52.1010 C.3   501  UDX501      0.2198
      5  O3'      -13.4670   17.9440   51.5200 O.3   501  UDX501     -0.2174
      6  C4'      -11.6690   16.4010   51.1570 C.3   501  UDX501      0.2143
      7  O4'      -12.2690   16.0480   49.9330 O.3   501  UDX501     -0.2176
      8  C5'      -11.0250   15.1650   51.7820 C.3   501  UDX501      0.1803
      9  O5'      -10.2490   15.6880   52.8560 O.3   501  UDX501     -0.3255
     10  PB       -10.8070   14.2070   55.1090 P.3   501  UDX501      0.2208
     11  O1B       -9.3350   14.3330   54.9130 O.3   501  UDX501     -0.4371
     12  O2B      -11.1940   12.7790   54.5520 O.2   501  UDX501     -0.5170
     13  O3B      -11.7210   15.2310   54.3880 O.3   501  UDX501     -0.2857
     14  O3A      -11.2290   14.3390   56.6480 O.3   501  UDX501     -0.2703
     15  PA       -11.2250   15.8250   57.3840 P.3   501  UDX501      0.2189
     16  O1A      -12.4420   16.1450   58.1580 O.3   501  UDX501     -0.4371
     17  O2A      -10.9740   17.0260   56.4010 O.2   501  UDX501     -0.5170
     18  O5D       -9.9330   15.7690   58.3190 O.3   501  UDX501     -0.3112
     19  C5D       -8.6180   15.6380   57.7230 C.3   501  UDX501      0.1813
     20  C4D       -7.5460   15.8650   58.7820 C.3   501  UDX501      0.1799
     21  O4D       -7.6350   17.2170   59.3390 O.3   501  UDX501     -0.3320
     22  C3D       -7.8650   14.9130   59.9260 C.3   501  UDX501      0.2158
     23  O3D       -6.6350   14.4430   60.4540 O.3   501  UDX501     -0.2175
     24  C2D       -8.5850   15.8200   60.9250 C.3   501  UDX501      0.2319
     25  O2D       -8.4660   15.3180   62.2580 O.3   501  UDX501     -0.2157
     26  C1D       -7.8040   17.1120   60.7580 C.3   501  UDX501      0.2401
     27  N1        -8.5810   18.2530   61.3020 N.am  501  UDX501     -0.1766
     28  C6        -9.7650   18.7350   60.6800 C.2   501  UDX501      0.0929
     29  C2        -8.1140   18.8780   62.4720 C.1   501  UDX501      0.2845
     30  O2        -7.0990   18.5070   63.0360 O.2   501  UDX501     -0.1918
     31  N3        -8.7920   19.9440   63.0430 N.2   501  UDX501     -0.2452
     32  C4        -9.9600   20.4220   62.4270 C.1   501  UDX501      0.2182
     33  O4       -10.5130   21.3800   62.9730 O.2   501  UDX501     -0.2085
     34  C5       -10.4520   19.8230   61.2370 C.2   501  UDX501      0.1242
@<TRIPOS>BOND
     1     7     6    1
     2     6     8    1
     3     6     4    1
     4     5     4    1
     5     8     9    1
     6     4     2    1
     7     9     1    1
     8     2     1    1
     9     2     3    1
    10     1    13    1
    11    13    10    1
    12    12    10    2
    13    11    10    1
    14    10    14    1
    15    17    15    2
    16    14    15    1
    17    15    16    1
    18    15    18    1
    19    19    18    1
    20    19    20    1
    21    20    21    1
    22    20    22    1
    23    21    26    1
    24    22    23    1
    25    22    24    1
    26    28    34    2
    27    28    27    1
    28    26    24    1
    29    26    27    1
    30    24    25    1
    31    34    32    1
    32    27    29   am
    33    32    33    2
    34    32    31    2
    35    29    30    2
    36    29    31    2
