@<TRIPOS>MOLECULE
3prk_III_I_1.pdb
 31 31 0 0 0
SMALL
GASTEIGER

@<TRIPOS>ATOM
      1  C1       -28.2740   24.2910   16.7590 C.2   280  MSU280      0.2423
      2  O1       -28.3620   23.2420   17.3940 O.2   280  MSU280     -0.2733
      3  C2       -29.1320   25.4760   17.1530 C.3   280  MSU280      0.0985
      4  C3       -30.0920   25.0670   18.2630 C.3   280  MSU280      0.1192
      5  C4       -31.1590   26.1540   18.4200 C.2   280  MSU280      0.3176
      6  OT1      -32.3660   25.8610   18.4400 O.2   280  MSU280     -0.2501
      7  OT2      -30.7870   27.4690   18.4860 O.3   280  MSU280     -0.4444
      8  CT       -30.4190   27.8210   19.8690 C.3   280  MSU280      0.2556
      9  N        -27.4410   24.4050   15.7300 N.am  281  ALA281     -0.1978
     10  CA       -26.6930   23.3210   15.1200 C.3   281  ALA281      0.1728
     11  C        -25.2300   23.2050   15.5370 C.2   281  ALA281      0.2616
     12  O        -24.6800   23.9880   16.3190 O.2   281  ALA281     -0.2715
     13  CB       -26.7700   23.5040   13.6170 C.3   281  ALA281      0.0334
     14  N        -24.6150   22.1660   14.9780 N.am  282  ALA282     -0.1964
     15  CA       -23.2020   21.8800   15.1050 C.3   282  ALA282      0.1713
     16  C        -22.6910   21.2590   13.8060 C.2   282  ALA282      0.2458
     17  O        -23.4730   20.7740   12.9900 O.2   282  ALA282     -0.2730
     18  CB       -22.9440   20.9900   16.3090 C.3   282  ALA282      0.0333
     19  N        -21.3750   21.2540   13.5970 N.am  283  PRO283     -0.2716
     20  CA       -20.8750   20.6720   12.3680 C.3   283  PRO283      0.1535
     21  C        -20.8140   19.1530   12.4280 C.2   283  PRO283      0.2595
     22  O        -20.6770   18.5450   13.4930 O.2   283  PRO283     -0.2716
     23  CB       -19.4790   21.2500   12.1190 C.3   283  PRO283      0.0310
     24  CG       -19.0810   21.9330   13.4170 C.3   283  PRO283      0.0237
     25  CD       -20.2330   21.7680   14.3940 C.3   283  PRO283      0.0939
     26  C        -19.8540   16.7670   10.0160 C.3   284  ALV284      0.1718
     27  N        -20.9600   18.5670   11.2490 N.am  284  ALV284     -0.2032
     28  O        -19.7710   15.4120    9.9220 O.3   284  ALV284     -0.2213
     29  CA       -20.8920   17.1310   11.0640 C.3   284  ALV284      0.1256
     30  CB       -22.2470   16.5640   10.6640 C.3   284  ALV284      0.0261
     31  C1       -18.4770   17.3670   10.3930 C.3   285  0QE285      0.0373
@<TRIPOS>BOND
     1    28    26    1
     2    26    31    1
     3    26    29    1
     4    30    29    1
     5    29    27    1
     6    27    21   am
     7    23    20    1
     8    23    24    1
     9    20    21    1
    10    20    19    1
    11    21    22    2
    12    17    16    2
    13    24    25    1
    14    19    16   am
    15    19    25    1
    16    13    10    1
    17    16    15    1
    18    14    15    1
    19    14    11   am
    20    15    18    1
    21    10    11    1
    22    10     9    1
    23    11    12    2
    24     9     1   am
    25     1     3    1
    26     1     2    2
    27     3     4    1
    28     4     5    1
    29     5     6    2
    30     5     7    1
    31     7     8    1
