@<TRIPOS>MOLECULE
3prn_C8E_A_1.pdb
 21 20 0 0 0
SMALL
GASTEIGER

@<TRIPOS>ATOM
      1  C1         4.1130   59.8300   44.4090 C.3   291  C8E291      0.0000
      2  C2         3.0610   58.9810   43.8670 C.3   291  C8E291      0.0000
      3  C3         1.8620   58.9870   44.7070 C.3   291  C8E291      0.0000
      4  C4         1.9700   57.7980   45.5520 C.3   291  C8E291      0.0000
      5  C5         1.9220   58.3400   46.9400 C.3   291  C8E291      0.0001
      6  C6         0.7550   57.8710   47.6110 C.3   291  C8E291      0.0026
      7  C7         1.1970   57.9690   48.9730 C.3   291  C8E291      0.0321
      8  C8         0.0800   57.6990   49.8950 C.3   291  C8E291      0.1423
      9  O9         0.3750   57.1470   51.1900 O.3   291  C8E291     -0.3511
     10  C10        0.7960   58.0830   52.1670 C.3   291  C8E291      0.1741
     11  C11        1.0090   57.3170   53.4500 C.3   291  C8E291      0.1743
     12  O12       -0.1790   56.5750   53.8690 O.3   291  C8E291     -0.3471
     13  C13       -0.3170   55.1550   53.4980 C.3   291  C8E291      0.1894
     14  C14       -1.3650   54.6540   52.4570 C.3   291  C8E291      0.2376
     15  O15       -2.1300   53.4000   52.4090 O.2   291  C8E291     -0.4666
     16  C16       -1.6520   52.4920   51.3950 C.2   291  C8E291      0.2124
     17  C17       -1.8340   52.8560   49.9150 C.2   291  C8E291      0.2124
     18  O18       -1.5960   52.0710   48.7660 O.2   291  C8E291     -0.4665
     19  C19       -2.1660   50.7500   48.5990 C.3   291  C8E291      0.2411
     20  C20       -3.0370   50.5130   47.2420 C.3   291  C8E291      0.2292
     21  O21       -4.3860   50.1800   47.6040 O.3   291  C8E291     -0.2162
@<TRIPOS>BOND
     1     2     1    1
     2     2     3    1
     3     3     4    1
     4     4     5    1
     5     5     6    1
     6    20    21    1
     7    20    19    1
     8     6     7    1
     9    19    18    1
    10    18    17    1
    11     7     8    1
    12     8     9    1
    13    17    16    2
    14     9    10    1
    15    16    15    1
    16    10    11    1
    17    15    14    1
    18    14    13    1
    19    11    12    1
    20    13    12    1
