@<TRIPOS>MOLECULE
3pro_AES_A_1.pdb
 12 12 0 0 0
SMALL
GASTEIGER

@<TRIPOS>ATOM
      1  C3        18.2370   20.2630   37.1620 C.ar  199  AES199     -0.0029
      2  C2        17.3440   19.5260   37.9500 C.ar  199  AES199      0.0178
      3  C1        16.0720   20.0450   38.2280 C.ar  199  AES199      0.1034
      4  S         14.7890   18.9590   38.6750 S.3   199  AES199      0.0045
      5  O1S       14.0020   19.5910   39.7250 O.3   199  AES199     -0.0734
      6  O2S       15.4540   17.8030   39.2390 O.3   199  AES199     -0.0734
      7  C6        15.6930   21.3000   37.7290 C.ar  199  AES199      0.0178
      8  C5        16.5840   22.0360   36.9400 C.ar  199  AES199     -0.0029
      9  C4        17.8530   21.5120   36.6580 C.ar  199  AES199     -0.0206
     10  C7        18.8540   22.3790   35.9500 C.3   199  AES199      0.0468
     11  C8        19.4130   23.4180   36.9300 C.3   199  AES199      0.1140
     12  N8        20.4030   24.3070   36.2370 N.3   199  AES199     -0.1310
@<TRIPOS>BOND
     1    10     9    1
     2    10    11    1
     3    12    11    1
     4     9     8   ar
     5     9     1   ar
     6     8     7   ar
     7     1     2   ar
     8     7     3   ar
     9     2     3   ar
    10     3     4    1
    11     4     6    1
    12     4     5    1
