@<TRIPOS>MOLECULE
3prq_HEM_F_1.pdb
 43 50 0 0 0
SMALL
GASTEIGER

@<TRIPOS>ATOM
      1  CHA        8.2140   88.2330   46.4970 C.2    85  HEM85       0.0000
      2  CHB        4.4210   89.1690   49.3120 C.2    85  HEM85       0.0000
      3  CHC        5.9240   85.8560   52.5910 C.2    85  HEM85       0.0000
      4  CHD        9.8690   85.0060   49.7000 C.2    85  HEM85       0.0000
      5  C1A        7.0330   88.8240   46.9710 C.ar   85  HEM85       0.0000
      6  C2A        6.3280   89.8590   46.2900 C.ar   85  HEM85       0.0000
      7  C3A        5.1790   90.1970   47.0710 C.ar   85  HEM85       0.0000
      8  C4A        5.3420   89.2640   48.2930 C.ar   85  HEM85       0.0000
      9  CMA        4.7690   91.6470   46.7040 C.3    85  HEM85       0.0000
     10  CAA        6.8280   90.5540   44.9820 C.3    85  HEM85       0.0000
     11  CBA        7.9980   91.5330   45.2340 C.3    85  HEM85       0.0000
     12  CGA        8.6040   92.3030   44.0270 C.2    85  HEM85       0.0000
     13  O1A        8.9710   93.5060   44.1780 O.co2  85  HEM85       0.0000
     14  O2A        8.7230   91.7290   42.9700 O.co2  85  HEM85       0.0000
     15  C1B        4.4330   88.3670   50.4180 C.2    85  HEM85       0.0000
     16  C2B        3.4340   88.3650   51.3850 C.2    85  HEM85       0.0000
     17  C3B        3.8510   87.3590   52.4200 C.2    85  HEM85       0.0000
     18  C4B        5.1250   86.8340   51.9450 C.2    85  HEM85       0.0000
     19  CMB        2.1880   89.2280   51.3620 C.3    85  HEM85       0.0000
     20  CAB        2.9910   87.1440   53.5630 C.3    85  HEM85       0.0000
     21  CBB        1.7460   86.2600   53.4520 C.3    85  HEM85       0.0000
     22  C1C        7.1540   85.3260   52.1370 C.ar   85  HEM85       0.0000
     23  C2C        7.9930   84.2740   52.8670 C.ar   85  HEM85       0.0000
     24  C3C        9.1890   84.0270   51.9980 C.ar   85  HEM85       0.0000
     25  C4C        8.9930   84.9370   50.7910 C.ar   85  HEM85       0.0000
     26  CMC        7.6570   83.6060   54.2390 C.3    85  HEM85       0.0000
     27  CAC       10.4090   83.0690   52.2190 C.3    85  HEM85       0.0000
     28  CBC       10.0180   81.6010   52.0920 C.3    85  HEM85       0.0000
     29  C1D        9.7300   85.8050   48.5750 C.2    85  HEM85       0.0000
     30  C2D       10.6540   85.8160   47.4440 C.2    85  HEM85       0.0000
     31  C3D       10.1790   86.7140   46.5210 C.2    85  HEM85       0.0000
     32  C4D        8.9150   87.2700   47.1850 C.2    85  HEM85       0.0000
     33  CMD       11.9310   84.9520   47.3010 C.3    85  HEM85       0.0000
     34  CAD       10.5700   87.1780   45.1930 C.3    85  HEM85       0.0000
     35  CBD        9.8760   86.1610   44.2260 C.3    85  HEM85       0.0000
     36  CGD       10.0450   86.3220   42.7220 C.2    85  HEM85       0.0000
     37  O1D       11.3320   85.8410   42.2420 O.co2  85  HEM85       0.0000
     38  O2D        8.9780   86.8150   41.9000 O.co2  85  HEM85       0.0000
     39  NA         6.4590   88.5040   48.1950 N.ar   85  HEM85       0.0000
     40  NB         5.4310   87.4540   50.7380 N.2    85  HEM85       0.0000
     41  NC         7.8020   85.6760   50.9430 N.ar   85  HEM85       0.0000
     42  ND         8.6990   86.6950   48.3570 N.2    85  HEM85       0.0000
     43 FE          7.1000   87.0900   49.5820 Fe     85  HEM85       0.0000
@<TRIPOS>BOND
     1    38    36   ar
     2    37    36   ar
     3    36    35    1
     4    14    12   ar
     5    12    13   ar
     6    12    11    1
     7    35    34    1
     8    10    11    1
     9    10     6    1
    10    34    31    1
    11     6     5   ar
    12     6     7   ar
    13     1     5    2
    14     1    32    1
    15    31    32    1
    16    31    30    2
    17     9     7    1
    18     5    39   ar
    19     7     8   ar
    20    32    42    2
    21    33    30    1
    22    30    29    1
    23    39     8   ar
    24    39    43    1
    25     8     2    2
    26    42    29    1
    27    42    43    1
    28    29     4    2
    29     2    15    1
    30    43    40    1
    31    43    41    1
    32     4    25    1
    33    15    40    2
    34    15    16    1
    35    40    18    1
    36    25    41   ar
    37    25    24   ar
    38    41    22   ar
    39    19    16    1
    40    16    17    2
    41    18    17    1
    42    18     3    2
    43    24    27    1
    44    24    23   ar
    45    28    27    1
    46    22     3    1
    47    22    23   ar
    48    17    20    1
    49    23    26    1
    50    21    20    1
