@<TRIPOS>MOLECULE
3prq_MST_A_1.pdb
 16 16 0 0 0
SMALL
GASTEIGER

@<TRIPOS>ATOM
      1  N1        21.8480   66.8820   33.1750 N.2   367  MST367     -0.2528
      2  C2        21.9350   66.1080   34.2560 C.1   367  MST367      0.1916
      3  S7        22.2930   64.4040   34.0990 S.3   367  MST367     -0.0157
      4  C8        23.7980   64.1280   35.0060 C.3   367  MST367      0.0872
      5  N3        21.7310   66.6300   35.4790 N.2   367  MST367     -0.2528
      6  C4        21.4370   67.9250   35.6060 C.1   367  MST367      0.2412
      7  N9        21.2400   68.4560   36.8100 N.pl3 367  MST367     -0.1541
      8  C10       21.3470   67.6360   38.0230 C.3   367  MST367      0.0884
      9  C11       21.0820   68.5250   39.2390 C.3   367  MST367      0.0225
     10  C12       20.3210   66.5030   37.9550 C.3   367  MST367      0.0225
     11  C13       22.7630   67.0660   38.1050 C.3   367  MST367      0.0225
     12  N5        21.3480   68.7040   34.5160 N.2   367  MST367     -0.2439
     13  C6        21.5510   68.1900   33.3020 C.1   367  MST367      0.2413
     14  N14       21.4530   68.9620   32.2240 N.pl3 367  MST367     -0.1506
     15  C15       21.6660   68.4040   30.8810 C.3   367  MST367      0.1263
     16  C16       23.0570   68.7760   30.3630 C.3   367  MST367      0.0261
@<TRIPOS>BOND
     1    16    15    1
     2    15    14    1
     3    14    13    1
     4     1    13    2
     5     1     2    2
     6    13    12    2
     7     3     2    1
     8     3     4    1
     9     2     5    2
    10    12     6    2
    11     5     6    2
    12     6     7    1
    13     7     8    1
    14    10     8    1
    15     8    11    1
    16     8     9    1
