@<TRIPOS>MOLECULE
3prr_MST_A_1.pdb
 16 16 0 0 0
SMALL
GASTEIGER

@<TRIPOS>ATOM
      1  N1        27.0800   -1.5540  -13.8000 N.2   5367  MST5367    -0.2528
      2  C2        26.2570   -2.1620  -12.9380 C.1   5367  MST5367     0.1916
      3  S7        25.4460   -1.2180  -11.7080 S.3   5367  MST5367    -0.0157
      4  C8        23.7030   -1.4890  -11.9440 C.3   5367  MST5367     0.0872
      5  N3        26.0520   -3.4880  -13.0160 N.2   5367  MST5367    -0.2528
      6  C4        26.6800   -4.2000  -13.9630 C.1   5367  MST5367     0.2412
      7  N9        26.4720   -5.5150  -14.0640 N.pl3 5367  MST5367    -0.1541
      8  C10       25.5560   -6.2150  -13.1550 C.3   5367  MST5367     0.0884
      9  C11       25.5210   -7.6980  -13.5310 C.3   5367  MST5367     0.0225
     10  C12       26.0580   -6.0610  -11.7170 C.3   5367  MST5367     0.0225
     11  C13       24.1600   -5.6040  -13.3030 C.3   5367  MST5367     0.0225
     12  N5        27.5020   -3.5950  -14.8230 N.2   5367  MST5367    -0.2439
     13  C6        27.7040   -2.2660  -14.7480 C.1   5367  MST5367     0.2413
     14  N14       28.4940   -1.6570  -15.6260 N.pl3 5367  MST5367    -0.1506
     15  C15       28.7160   -0.2050  -15.5340 C.3   5367  MST5367     0.1263
     16  C16       27.9250    0.5260  -16.6210 C.3   5367  MST5367     0.0261
@<TRIPOS>BOND
     1    16    15    1
     2    14    15    1
     3    14    13    1
     4    12    13    2
     5    12     6    2
     6    13     1    2
     7     7     6    1
     8     7     8    1
     9     6     5    2
    10     1     2    2
    11     9     8    1
    12    11     8    1
    13     8    10    1
    14     5     2    2
    15     2     3    1
    16     4     3    1
