@<TRIPOS>MOLECULE
3prr_HEM_F_1.pdb
 43 50 0 0 0
SMALL
GASTEIGER

@<TRIPOS>ATOM
      1  CHA       39.3920  -25.6520  -23.1150 C.2   5085  HEM5085     0.0000
      2  CHB       41.5930  -29.6700  -21.5820 C.2   5085  HEM5085     0.0000
      3  CHC       37.7730  -30.7640  -18.7080 C.2   5085  HEM5085     0.0000
      4  CHD       35.5230  -26.6710  -20.4160 C.2   5085  HEM5085     0.0000
      5  C1A       40.3600  -26.6660  -22.9860 C.ar  5085  HEM5085     0.0000
      6  C2A       41.6020  -26.6970  -23.7020 C.ar  5085  HEM5085     0.0000
      7  C3A       42.3160  -27.8670  -23.3010 C.ar  5085  HEM5085     0.0000
      8  C4A       41.3190  -28.5260  -22.3070 C.ar  5085  HEM5085     0.0000
      9  CMA       43.2960  -28.2230  -24.4430 C.3   5085  HEM5085     0.0000
     10  CAA       42.0080  -25.6730  -24.8060 C.3   5085  HEM5085     0.0000
     11  CBA       41.2380  -25.8780  -26.1280 C.3   5085  HEM5085     0.0000
     12  CGA       41.5390  -24.9200  -27.3260 C.2   5085  HEM5085     0.0000
     13  O1A       41.5680  -25.3840  -28.5050 O.co2 5085  HEM5085     0.0000
     14  O2A       41.7260  -23.7450  -27.1060 O.co2 5085  HEM5085     0.0000
     15  C1B       40.8150  -30.3140  -20.6580 C.2   5085  HEM5085     0.0000
     16  C2B       41.2080  -31.4700  -19.9920 C.2   5085  HEM5085     0.0000
     17  C3B       40.0620  -31.8460  -19.0870 C.2   5085  HEM5085     0.0000
     18  C4B       39.0450  -30.8290  -19.3200 C.2   5085  HEM5085     0.0000
     19  CMB       42.5380  -32.1780  -20.1770 C.3   5085  HEM5085     0.0000
     20  CAB       40.1920  -33.0260  -18.2590 C.3   5085  HEM5085     0.0000
     21  CBB       40.9670  -32.9780  -16.9350 C.3   5085  HEM5085     0.0000
     22  C1C       36.7810  -29.7730  -18.9190 C.ar  5085  HEM5085     0.0000
     23  C2C       35.4080  -29.7370  -18.2440 C.ar  5085  HEM5085     0.0000
     24  C3C       34.7230  -28.4960  -18.7730 C.ar  5085  HEM5085     0.0000
     25  C4C       35.7300  -27.8620  -19.7230 C.ar  5085  HEM5085     0.0000
     26  CMC       34.8550  -30.7870  -17.2170 C.3   5085  HEM5085     0.0000
     27  CAC       33.3010  -27.9230  -18.4630 C.3   5085  HEM5085     0.0000
     28  CBC       33.2070  -27.3650  -17.0380 C.3   5085  HEM5085     0.0000
     29  C1D       36.4080  -26.0470  -21.2790 C.2   5085  HEM5085     0.0000
     30  C2D       36.1570  -24.7770  -21.9530 C.2   5085  HEM5085     0.0000
     31  C3D       37.2490  -24.4710  -22.6980 C.2   5085  HEM5085     0.0000
     32  C4D       38.1810  -25.6610  -22.4580 C.2   5085  HEM5085     0.0000
     33  CMD       34.8830  -23.9120  -21.8280 C.3   5085  HEM5085     0.0000
     34  CAD       37.6680  -23.3730  -23.5530 C.3   5085  HEM5085     0.0000
     35  CBD       38.3490  -22.3650  -22.5590 C.3   5085  HEM5085     0.0000
     36  CGD       38.9360  -21.0640  -23.1000 C.2   5085  HEM5085     0.0000
     37  O1D       37.9140  -20.0700  -23.3840 O.co2 5085  HEM5085     0.0000
     38  O2D       40.3600  -20.8670  -23.2210 O.co2 5085  HEM5085     0.0000
     39  NA        40.1760  -27.7890  -22.1840 N.ar  5085  HEM5085     0.0000
     40  NB        39.5370  -29.9190  -20.2570 N.2   5085  HEM5085     0.0000
     41  NC        36.8910  -28.6560  -19.7780 N.ar  5085  HEM5085     0.0000
     42  ND        37.6430  -26.5210  -21.6160 N.2   5085  HEM5085     0.0000
     43 FE         38.5430  -28.2350  -20.9610 Fe    5085  HEM5085     0.0000
@<TRIPOS>BOND
     1    13    12   ar
     2    12    14   ar
     3    12    11    1
     4    11    10    1
     5    10     6    1
     6     9     7    1
     7     6     7   ar
     8     6     5   ar
     9    34    31    1
    10    34    35    1
    11    37    36   ar
    12     7     8   ar
    13    38    36   ar
    14     1     5    2
    15     1    32    1
    16    36    35    1
    17     5    39   ar
    18    31    32    1
    19    31    30    2
    20    32    42    2
    21     8    39   ar
    22     8     2    2
    23    39    43    1
    24    30    33    1
    25    30    29    1
    26    42    29    1
    27    42    43    1
    28     2    15    1
    29    29     4    2
    30    43    40    1
    31    43    41    1
    32    15    40    2
    33    15    16    1
    34     4    25    1
    35    40    18    1
    36    19    16    1
    37    16    17    2
    38    41    25   ar
    39    41    22   ar
    40    25    24   ar
    41    18    17    1
    42    18     3    2
    43    17    20    1
    44    22     3    1
    45    22    23   ar
    46    24    27    1
    47    24    23   ar
    48    27    28    1
    49    20    21    1
    50    23    26    1
