@<TRIPOS>MOLECULE
3prs_RIT_A_1.pdb
 50 53 0 0 0
SMALL
GASTEIGER

@<TRIPOS>ATOM
      1  C1         2.7890    8.6360   16.1290 C.ar  1001  RIT1001     0.1053
      2  C2         3.1400    8.1810   14.8630 C.ar  1001  RIT1001     0.0714
      3  S3         4.7180    7.5550   14.9430 S.2   1001  RIT1001    -0.0652
      4  C4         4.8470    7.9150   16.6130 C.ar  1001  RIT1001     0.1343
      5  N5         3.7590    8.4800   17.1150 N.ar  1001  RIT1001    -0.2350
      6  C6         2.3350    8.2090   13.6320 C.3   1001  RIT1001     0.2448
      7  O7         2.6200    7.0870   12.7570 O.3   1001  RIT1001    -0.4279
      8  C10        1.6770    6.9560   11.7860 C.2   1001  RIT1001     0.4215
      9  O24        0.5950    7.5100   11.8610 O.2   1001  RIT1001    -0.2246
     10  N11        2.1650    6.1530   10.7920 N.am  1001  RIT1001    -0.1675
     11  C12        1.3860    6.0740    9.5130 C.3   1001  RIT1001     0.1333
     12  C13        1.3350    4.6090    9.0200 C.3   1001  RIT1001     0.1739
     13  C14        0.4810    3.6890    9.8940 C.3   1001  RIT1001     0.0567
     14  C15       -0.9780    4.1640   10.0740 C.3   1001  RIT1001     0.1023
     15  C26        2.0260    7.0260    8.4580 C.3   1001  RIT1001     0.0507
     16  C28        1.9450    8.4830    8.8420 C.ar  1001  RIT1001    -0.0204
     17  C31        0.7520    9.1890    8.6020 C.ar  1001  RIT1001    -0.0042
     18  C32        0.6660   10.5530    8.9710 C.ar  1001  RIT1001    -0.0003
     19  C33        1.7580   11.1910    9.5700 C.ar  1001  RIT1001    -0.0000
     20  C34        2.9310   10.4830    9.8120 C.ar  1001  RIT1001    -0.0003
     21  C35        3.0360    9.1290    9.4400 C.ar  1001  RIT1001    -0.0042
     22  O41        2.6620    4.0940    8.8740 O.3   1001  RIT1001    -0.2212
     23  C44       -1.8040    3.2440   10.9990 C.3   1001  RIT1001     0.0481
     24  C45       -2.1920    1.8750   10.4720 C.ar  1001  RIT1001    -0.0205
     25  C48       -3.2680    1.6770    9.6160 C.ar  1001  RIT1001    -0.0042
     26  C49       -3.6210    0.4050    9.1620 C.ar  1001  RIT1001    -0.0003
     27  C50       -2.8690   -0.6980    9.6000 C.ar  1001  RIT1001    -0.0000
     28  C51       -1.7920   -0.5330   10.4420 C.ar  1001  RIT1001    -0.0003
     29  C52       -1.4570    0.7500   10.8730 C.ar  1001  RIT1001    -0.0042
     30  N58       -1.5440    4.2650    8.7180 N.am  1001  RIT1001    -0.2053
     31  N20       -4.2440    4.3260    7.0750 N.am  1001  RIT1001    -0.1808
     32  C19       -3.0430    5.1970    7.0360 C.3   1001  RIT1001     0.1742
     33  C18       -2.5100    5.2120    8.4880 C.2   1001  RIT1001     0.2612
     34  O61       -2.9160    5.9490    9.3760 O.2   1001  RIT1001    -0.2715
     35  C62       -3.3980    6.6570    6.6560 C.3   1001  RIT1001     0.0290
     36  C64       -2.1350    7.5120    6.6510 C.3   1001  RIT1001     0.0023
     37  C68       -4.0490    6.6610    5.2570 C.3   1001  RIT1001     0.0023
     38  C21       -4.4000    3.3980    6.0590 C.2   1001  RIT1001     0.3240
     39  N74       -5.5730    2.6430    6.1260 N.am  1001  RIT1001    -0.2546
     40  C75       -5.8520    1.7200    5.0290 C.3   1001  RIT1001     0.1504
     41  O76       -3.6110    3.3330    5.1190 O.2   1001  RIT1001    -0.2507
     42  C77       -6.1120    0.3210    5.4880 C.2   1001  RIT1001     0.1182
     43  C80       -5.1260   -0.5680    5.8420 C.3   1001  RIT1001     0.1202
     44  S81       -5.8390   -2.0450    6.3170 S.3   1001  RIT1001    -0.0795
     45  C82       -7.3990   -1.4070    6.0240 C.2   1001  RIT1001     0.1335
     46  N83       -7.3940   -0.1880    5.5840 N.2   1001  RIT1001    -0.4061
     47  C85       -8.5870   -2.3040    6.2900 C.3   1001  RIT1001     0.0585
     48  C86       -9.0810   -2.9710    5.0230 C.3   1001  RIT1001     0.0080
     49  C90       -8.2790   -3.3080    7.4070 C.3   1001  RIT1001     0.0080
     50  C95       -6.5900    2.8060    7.1590 C.3   1001  RIT1001     0.1169
@<TRIPOS>BOND
     1    48    47    1
     2    40    42    1
     3    40    39    1
     4    41    38    2
     5    37    35    1
     6    42    46    2
     7    42    43    1
     8    46    45    2
     9    43    44    1
    10    45    47    1
    11    45    44    1
    12    38    39   am
    13    38    31   am
    14    39    50    1
    15    47    49    1
    16    36    35    1
    17    35    32    1
    18    32    31    1
    19    32    33    1
    20    15    16    1
    21    15    11    1
    22    33    30   am
    23    33    34    2
    24    17    16   ar
    25    17    18   ar
    26    30    14    1
    27    16    21   ar
    28    22    12    1
    29    18    19   ar
    30    12    11    1
    31    12    13    1
    32    26    27   ar
    33    26    25   ar
    34    21    20   ar
    35    11    10    1
    36    19    20   ar
    37    27    28   ar
    38    25    24   ar
    39    13    14    1
    40    14    23    1
    41    28    29   ar
    42    24    29   ar
    43    24    23    1
    44    10     8   am
    45     8     9    2
    46     8     7    1
    47     7     6    1
    48     6     2    1
    49     2     3   ar
    50     2     1   ar
    51     3     4   ar
    52     1     5   ar
    53     4     5   ar
