@<TRIPOS>MOLECULE
3prz_3RZ_A_1.pdb
 20 22 0 0 0
SMALL
GASTEIGER

@<TRIPOS>ATOM
      1  C1        45.0840   11.6540   28.1400 C.3     1  3RZ1        0.1429
      2  N2        47.0800   12.8710   28.6430 N.2     1  3RZ1       -0.3255
      3  C3        47.6880   13.8510   29.3170 C.2     1  3RZ1        0.2333
      4  N4        49.0510   14.0620   29.0950 N.pl3   1  3RZ1       -0.0921
      5  C5        47.0000   14.6500   30.2100 C.2     1  3RZ1        0.0751
      6  C6        45.6410   14.4230   30.3900 C.2     1  3RZ1        0.1398
      7  C7        44.9730   15.2460   31.2890 C.3     1  3RZ1        0.1805
      8  N8        45.0210   13.4490   29.7120 N.2     1  3RZ1       -0.3469
      9  C9        45.7740   12.7280   28.8800 C.1     1  3RZ1        0.1157
     10  C10       46.9750   16.4670   31.7720 C.2     1  3RZ1       -0.0034
     11  C11       45.6300   16.2520   31.9720 C.2     1  3RZ1       -0.0077
     12  C12       47.6550   15.6570   30.8910 C.2     1  3RZ1        0.0060
     13  C13       43.5350   15.0910   31.5970 C.2     1  3RZ1        0.3623
     14  O14       43.0290   15.8360   32.4270 O.2     1  3RZ1       -0.2421
     15  N15       42.8810   14.0770   30.9200 N.am    1  3RZ1        0.0310
     16  C16       41.5970   13.6710   31.2610 C.2     1  3RZ1        0.3778
     17  C17       40.8200   12.7810   30.4790 C.3     1  3RZ1        0.1749
     18  C18       39.6420   12.6310   31.1640 C.2     1  3RZ1        0.1355
     19  N19       39.7550   13.4130   32.2740 N.2     1  3RZ1       -0.0369
     20  N20       40.9330   14.0460   32.3640 N.2     1  3RZ1        0.0797
@<TRIPOS>BOND
     1     1     9    1
     2     2     9    2
     3     2     3    2
     4     9     8    2
     5     4     3    1
     6     3     5    1
     7     8     6    2
     8     5     6    1
     9     5    12    2
    10     6     7    1
    11    17    18    1
    12    17    16    1
    13    12    10    1
    14    15    16    1
    15    15    13   am
    16    18    19    2
    17    16    20    2
    18     7    13    1
    19     7    11    1
    20    13    14    2
    21    10    11    2
    22    19    20    1
