@<TRIPOS>MOLECULE
3ps1_ZH2_A_1.pdb
 28 29 0 0 0
SMALL
GASTEIGER

@<TRIPOS>ATOM
      1  C10       31.1800   -9.5670  -10.7370 C.ar  401  ZH2401      0.0052
      2  C13       31.2290   -7.3220  -13.8030 C.1   401  ZH2401     -0.0512
      3  C15       30.5710   -6.1010  -16.1550 C.1   401  ZH2401     -0.0092
      4  C17       29.8660   -4.8160  -18.4500 C.ar  401  ZH2401      0.0427
      5  C20       29.1240   -3.4550  -20.7630 C.ar  401  ZH2401      0.0891
      6  C22       30.4690   -3.4720  -20.3650 C.ar  401  ZH2401      0.0187
      7  C24       32.6250   -7.3850  -11.7380 C.ar  401  ZH2401      0.0084
      8  C26       30.7580  -10.1020   -5.7090 C.3   401  ZH2401      0.1779
      9  C28       29.3580  -10.0740   -6.2250 C.3   401  ZH2401      0.0378
     10  O01       30.3710  -12.7360   -7.2580 O.2   401  ZH2401     -0.5379
     11  C02       31.3690  -12.3010   -6.7130 C.2   401  ZH2401      0.1093
     12  N03       32.2980  -13.2280   -6.1670 N.am  401  ZH2401     -0.2011
     13  O04       31.9980  -14.4920   -6.2370 O.3   401  ZH2401     -0.4026
     14  C05       31.6510  -10.8280   -6.6770 C.3   401  ZH2401      0.1704
     15  N06       31.4730  -10.3240   -8.0220 N.am  401  ZH2401     -0.1943
     16  C07       32.5160   -9.5750   -8.6470 C.2   401  ZH2401      0.2652
     17  O08       33.4560   -9.1640   -7.9950 O.2   401  ZH2401     -0.2684
     18  C09       32.2340   -9.0240  -10.0010 C.ar  401  ZH2401      0.0551
     19  C11       30.8450   -9.0290  -11.9840 C.ar  401  ZH2401      0.0084
     20  C12       31.5880   -7.9460  -12.4850 C.ar  401  ZH2401      0.0426
     21  C14       30.9410   -6.7910  -14.8690 C.1   401  ZH2401     -0.0092
     22  C16       30.2500   -5.5240  -17.1860 C.1   401  ZH2401     -0.0512
     23  C18       28.5190   -4.7910  -18.8360 C.ar  401  ZH2401      0.0096
     24  C19       28.1510   -4.1140  -19.9990 C.ar  401  ZH2401      0.0187
     25  N21       28.7430   -2.7540  -21.9460 N.pl3 401  ZH2401     -0.1281
     26  C23       30.8400   -4.1480  -19.2030 C.ar  401  ZH2401      0.0096
     27  C25       32.9650   -7.9290  -10.4910 C.ar  401  ZH2401      0.0052
     28  O27       30.7620  -10.7310   -4.4920 O.3   401  ZH2401     -0.2209
@<TRIPOS>BOND
     1    25     5    1
     2     5     6   ar
     3     5    24   ar
     4     6    26   ar
     5    24    23   ar
     6    26     4   ar
     7    23     4   ar
     8     4    22    1
     9    22     3    3
    10     3    21    1
    11    21     2    3
    12     2    20    1
    13    20    19   ar
    14    20     7   ar
    15    19     1   ar
    16     7    27   ar
    17     1    18   ar
    18    27    18   ar
    19    18    16    1
    20    16    15   am
    21    16    17    2
    22    15    14    1
    23    10    11    2
    24    11    14    1
    25    11    12   am
    26    14     8    1
    27    13    12    1
    28     9     8    1
    29     8    28    1
