@<TRIPOS>MOLECULE
3ps1_UKW_A_1.pdb
 18 18 0 0 0
SMALL
GASTEIGER

@<TRIPOS>ATOM
      1  O01       29.6970    3.0920   -4.2360 O.2   501  UKW501     -0.5379
      2  C02       30.5880    2.6060   -4.9060 C.2   501  UKW501      0.1093
      3  N03       30.3950    1.3250   -5.5070 N.am  501  UKW501     -0.2011
      4  O04       29.2330    0.7360   -5.4500 O.3   501  UKW501     -0.4026
      5  C05       31.9600    3.2180   -4.8970 C.3   501  UKW501      0.1704
      6  N06       32.8560    2.3120   -5.5680 N.am  501  UKW501     -0.1943
      7  C07       33.9280    1.6710   -4.8800 C.2   501  UKW501      0.2652
      8  O08       33.8270    1.3680   -3.7070 O.2   501  UKW501     -0.2684
      9  C09       35.1020    1.2570   -5.7030 C.ar  501  UKW501      0.0550
     10  C10       35.5900    2.1730   -6.6370 C.ar  501  UKW501      0.0042
     11  C11       36.6950    1.8530   -7.4330 C.ar  501  UKW501     -0.0041
     12  C12       37.3160    0.5970   -7.2860 C.ar  501  UKW501     -0.0218
     13  C13       36.8290   -0.3220   -6.3510 C.ar  501  UKW501     -0.0041
     14  C14       35.7180    0.0010   -5.5510 C.ar  501  UKW501      0.0042
     15  C15       38.5150    0.2580   -8.1420 C.3   501  UKW501      0.0310
     16  C25       32.0590    4.5310   -5.6240 C.3   501  UKW501      0.1779
     17  C26       30.8330    4.7830   -6.4270 C.3   501  UKW501      0.0378
     18  O27       32.2870    5.5630   -4.7540 O.3   501  UKW501     -0.2209
@<TRIPOS>BOND
     1    15    12    1
     2    11    12   ar
     3    11    10   ar
     4    12    13   ar
     5    10     9   ar
     6    17    16    1
     7    13    14   ar
     8     9    14   ar
     9     9     7    1
    10    16     5    1
    11    16    18    1
    12     6     5    1
    13     6     7   am
    14     3     4    1
    15     3     2   am
    16     2     5    1
    17     2     1    2
    18     7     8    2
