@<TRIPOS>MOLECULE
3ps2_UKW_A_1.pdb
 19 19 0 0 0
SMALL
GASTEIGER

@<TRIPOS>ATOM
      1  O01       29.6970    2.9050   -2.4690 O.2   501  UKW501     -0.5379
      2  C02       30.5210    2.6580   -3.3410 C.2   501  UKW501      0.1093
      3  N03       30.3750    1.4790   -4.1300 N.am  501  UKW501     -0.2011
      4  O04       29.2840    0.7670   -4.0370 O.3   501  UKW501     -0.4026
      5  C05       31.8400    3.3240   -3.3040 C.3   501  UKW501      0.1704
      6  N06       32.8550    2.6520   -4.1090 N.am  501  UKW501     -0.1943
      7  C07       33.8550    1.8040   -3.4670 C.2   501  UKW501      0.2652
      8  O08       33.7840    1.5700   -2.2680 O.2   501  UKW501     -0.2684
      9  C09       35.0630    1.3420   -4.2690 C.ar  501  UKW501      0.0551
     10  C10       35.6990    0.1390   -3.9650 C.ar  501  UKW501      0.0052
     11  C11       36.8370   -0.2420   -4.6910 C.ar  501  UKW501      0.0084
     12  C12       37.3280    0.5760   -5.7040 C.ar  501  UKW501      0.0426
     13  C13       36.6950    1.7780   -6.0010 C.ar  501  UKW501      0.0084
     14  C14       35.5580    2.1610   -5.2760 C.ar  501  UKW501      0.0052
     15  C15       38.5470    0.1810   -6.4760 C.1   501  UKW501     -0.0512
     16  C16       39.5400   -0.1410   -7.1050 C.1   501  UKW501     -0.0092
     17  C25       31.6420    4.7570   -3.7700 C.3   501  UKW501      0.1779
     18  C26       32.9590    5.5060   -3.8790 C.3   501  UKW501      0.0378
     19  O27       31.0180    4.7560   -5.0040 O.3   501  UKW501     -0.2209
@<TRIPOS>BOND
     1    16    15    3
     2    15    12    1
     3    13    12   ar
     4    13    14   ar
     5    12    11   ar
     6    14     9   ar
     7    19    17    1
     8    11    10   ar
     9     9    10   ar
    10     9     7    1
    11     3     4    1
    12     3     2   am
    13     6     7   am
    14     6     5    1
    15    18    17    1
    16    17     5    1
    17     7     8    2
    18     2     5    1
    19     2     1    2
