@<TRIPOS>MOLECULE
3ps2_ZH4_A_1.pdb
 28 29 0 0 0
SMALL
GASTEIGER

@<TRIPOS>ATOM
      1  C10       32.6020   -7.9210   -8.7740 C.ar  401  ZH4401      0.0052
      2  C13       31.1550   -7.4530  -12.2210 C.1   401  ZH4401     -0.0512
      3  C15       30.4610   -6.1290  -14.4810 C.1   401  ZH4401     -0.0092
      4  C17       29.7470   -4.7340  -16.6870 C.ar  401  ZH4401      0.0439
      5  C20       29.0820   -3.2160  -18.9310 C.ar  401  ZH4401      0.0181
      6  C21       30.4180   -3.3080  -18.5260 C.ar  401  ZH4401      0.0897
      7  C22       30.7470   -4.0660  -17.3970 C.ar  401  ZH4401      0.0263
      8  C24       31.1440   -9.4550  -10.6580 C.ar  401  ZH4401      0.0084
      9  C26       30.9550  -10.3230   -4.1830 C.3   401  ZH4401      0.1779
     10  C28       29.6370   -9.8200   -4.5550 C.3   401  ZH4401      0.0378
     11  O01       30.4830  -13.0110   -5.8550 O.2   401  ZH4401     -0.5379
     12  C02       31.3660  -12.5160   -5.1740 C.2   401  ZH4401      0.1093
     13  N03       32.2410  -13.3920   -4.4680 N.am  401  ZH4401     -0.2011
     14  O04       31.9830  -14.6660   -4.5060 O.3   401  ZH4401     -0.4026
     15  C05       31.6190  -11.0740   -5.2120 C.3   401  ZH4401      0.1704
     16  N06       31.4730  -10.4960   -6.4820 N.am  401  ZH4401     -0.1943
     17  C07       32.5480   -9.8260   -7.1490 C.2   401  ZH4401      0.2652
     18  O08       33.6000   -9.5800   -6.5820 O.2   401  ZH4401     -0.2684
     19  C09       32.2410   -9.2390   -8.4870 C.ar  401  ZH4401      0.0551
     20  C11       32.2330   -7.3800  -10.0090 C.ar  401  ZH4401      0.0084
     21  C12       31.5150   -8.1360  -10.9420 C.ar  401  ZH4401      0.0426
     22  C14       30.8480   -6.8650  -13.2410 C.1   401  ZH4401     -0.0092
     23  C16       30.1410   -5.5150  -15.4790 C.1   401  ZH4401     -0.0512
     24  C18       28.4060   -4.6390  -17.0800 C.ar  401  ZH4401      0.0084
     25  C19       28.0800   -3.8800  -18.2100 C.ar  401  ZH4401      0.0020
     26  N23       31.4340   -2.5970  -19.2350 N.pl3 401  ZH4401     -0.1280
     27  C25       31.5160   -9.9990   -9.4170 C.ar  401  ZH4401      0.0052
     28  O27       31.0050  -10.8700   -2.9560 O.3   401  ZH4401     -0.2209
@<TRIPOS>BOND
     1    26     6    1
     2     5     6   ar
     3     5    25   ar
     4     6     7   ar
     5    25    24   ar
     6     7     4   ar
     7    24     4   ar
     8     4    23    1
     9    23     3    3
    10     3    22    1
    11    22     2    3
    12     2    21    1
    13    21     8   ar
    14    21    20   ar
    15     8    27   ar
    16    20     1   ar
    17    27    19   ar
    18     1    19   ar
    19    19    17    1
    20    17    18    2
    21    17    16   am
    22    16    15    1
    23    11    12    2
    24    15    12    1
    25    15     9    1
    26    12    13   am
    27    10     9    1
    28    14    13    1
    29     9    28    1
