@<TRIPOS>MOLECULE
3ps3_L53_A_1.pdb
 28 29 0 0 0
SMALL
GASTEIGER

@<TRIPOS>ATOM
      1  O01       26.4540  -19.9170    3.0460 O.2   401  L53401     -0.5379
      2  C02       26.5150  -21.0580    2.6210 C.2   401  L53401      0.1093
      3  N03       27.7410  -21.4760    2.0390 N.am  401  L53401     -0.2011
      4  O04       28.7530  -20.6540    2.1060 O.3   401  L53401     -0.4026
      5  C05       25.2970  -21.8390    2.4290 C.3   401  L53401      0.1704
      6  N06       24.6890  -22.0640    3.6560 N.am  401  L53401     -0.1943
      7  C07       24.7210  -23.3390    4.3320 C.2   401  L53401      0.2652
      8  O08       25.0890  -24.3520    3.7630 O.2   401  L53401     -0.2684
      9  C09       24.0410  -23.4000    5.6580 C.ar  401  L53401      0.0551
     10  C10       24.1910  -24.4990    6.5270 C.ar  401  L53401      0.0052
     11  C11       23.5230  -24.4880    7.7610 C.ar  401  L53401      0.0084
     12  C12       22.7310  -23.4040    8.1230 C.ar  401  L53401      0.0426
     13  C13       22.0160  -23.3870    9.4370 C.1   401  L53401     -0.0512
     14  C14       21.3860  -23.3870   10.4900 C.1   401  L53401     -0.0092
     15  C15       20.5720  -23.4120   11.7390 C.1   401  L53401     -0.0092
     16  C16       19.8860  -23.4430   12.7540 C.1   401  L53401     -0.0512
     17  C17       19.0300  -23.4900   13.9730 C.ar  401  L53401      0.0427
     18  C18       18.2140  -22.4170   14.3270 C.ar  401  L53401      0.0096
     19  C19       17.3980  -22.5110   15.4690 C.ar  401  L53401      0.0187
     20  C20       17.3920  -23.6910   16.2350 C.ar  401  L53401      0.0891
     21  N21       16.5520  -23.7980   17.3920 N.pl3 401  L53401     -0.1281
     22  C22       18.1980  -24.7710   15.8650 C.ar  401  L53401      0.0187
     23  C23       19.0110  -24.6800   14.7290 C.ar  401  L53401      0.0096
     24  C24       22.5790  -22.3150    7.2510 C.ar  401  L53401      0.0084
     25  C25       23.2450  -22.3210    6.0180 C.ar  401  L53401      0.0052
     26  C26       24.4400  -21.3470    1.3980 C.3   401  L53401      0.1779
     27  O27       23.7160  -22.2940    0.7750 O.3   401  L53401     -0.2209
     28  C28       23.6850  -20.1320    1.7600 C.3   401  L53401      0.0378
@<TRIPOS>BOND
     1    27    26    1
     2    26    28    1
     3    26     5    1
     4     3     4    1
     5     3     2   am
     6     5     2    1
     7     5     6    1
     8     2     1    2
     9     6     7   am
    10     8     7    2
    11     7     9    1
    12     9    25   ar
    13     9    10   ar
    14    25    24   ar
    15    10    11   ar
    16    24    12   ar
    17    11    12   ar
    18    12    13    1
    19    13    14    3
    20    14    15    1
    21    15    16    3
    22    16    17    1
    23    17    18   ar
    24    17    23   ar
    25    18    19   ar
    26    23    22   ar
    27    19    20   ar
    28    22    20   ar
    29    20    21    1
