@<TRIPOS>MOLECULE
3ps3_UKW_A_1.pdb
 19 19 0 0 0
SMALL
GASTEIGER

@<TRIPOS>ATOM
      1  O01       12.1550  -27.3140   -0.3210 O.2   501  UKW501     -0.5379
      2  C02       12.8870  -27.8220    0.5190 C.2   501  UKW501      0.1093
      3  N03       13.8080  -27.0040    1.2380 N.am  501  UKW501     -0.2011
      4  O04       13.7750  -25.7090    1.0840 O.3   501  UKW501     -0.4026
      5  C05       13.0830  -29.2870    0.4980 C.3   501  UKW501      0.1704
      6  N06       14.1970  -29.7660    1.3110 N.am  501  UKW501     -0.1943
      7  C07       15.4130  -30.2650    0.6710 C.2   501  UKW501      0.2652
      8  O08       15.5840  -30.1160   -0.5270 O.2   501  UKW501     -0.2684
      9  C09       16.4210  -31.0410    1.5080 C.ar  501  UKW501      0.0551
     10  C10       17.7970  -30.9500    1.2910 C.ar  501  UKW501      0.0052
     11  C11       18.6760  -31.7190    2.0740 C.ar  501  UKW501      0.0084
     12  C12       18.1740  -32.5630    3.0590 C.ar  501  UKW501      0.0426
     13  C13       16.8030  -32.6510    3.2690 C.ar  501  UKW501      0.0084
     14  C14       15.9280  -31.8880    2.4880 C.ar  501  UKW501      0.0052
     15  C15       19.0770  -33.3990    3.9110 C.1   501  UKW501     -0.0512
     16  C16       19.8090  -34.0810    4.6060 C.1   501  UKW501     -0.0092
     17  C25       11.7680  -29.9150    0.9340 C.3   501  UKW501      0.1779
     18  C26       11.8520  -31.4310    0.9990 C.3   501  UKW501      0.0378
     19  O27       11.3740  -29.4100    2.1640 O.3   501  UKW501     -0.2209
@<TRIPOS>BOND
     1     8     7    2
     2     1     2    2
     3     5     2    1
     4     5    17    1
     5     5     6    1
     6     2     3   am
     7     7     6   am
     8     7     9    1
     9    17    18    1
    10    17    19    1
    11     4     3    1
    12    10     9   ar
    13    10    11   ar
    14     9    14   ar
    15    11    12   ar
    16    14    13   ar
    17    12    13   ar
    18    12    15    1
    19    15    16    3
