@<TRIPOS>MOLECULE
3ps6_3PS_A_1.pdb
 23 25 0 0 0
SMALL
GASTEIGER

@<TRIPOS>ATOM
      1  C1        44.5940   11.6750   28.3280 C.3     1  3PS1        0.1429
      2  N2        46.6740   12.7840   28.5730 N.2     1  3PS1       -0.3255
      3  C3        47.3750   13.7530   29.1620 C.2     1  3PS1        0.2333
      4  N4        48.7240   13.8890   28.8100 N.pl3   1  3PS1       -0.0921
      5  C5        46.7930   14.5890   30.0950 C.2     1  3PS1        0.0750
      6  C6        45.4490   14.4200   30.4010 C.2     1  3PS1        0.1373
      7  C7        44.8570   15.2550   31.3300 C.3     1  3PS1        0.1535
      8  N8        44.7340   13.4660   29.8170 N.2     1  3PS1       -0.3470
      9  C9        45.3990   12.7130   28.9500 C.1     1  3PS1        0.1157
     10  C10       46.9260   16.4180   31.6220 C.2     1  3PS1       -0.0035
     11  C11       45.5950   16.2490   31.9420 C.2     1  3PS1       -0.0102
     12  C12       47.5260   15.5840   30.7030 C.2     1  3PS1        0.0060
     13  C13       43.4340   15.1010   31.7190 C.2     1  3PS1        0.2560
     14  O14       42.9980   15.8250   32.6080 O.2     1  3PS1       -0.2722
     15  N15       42.7110   14.1150   31.0460 N.am    1  3PS1       -0.1770
     16  C16       41.4540   13.6410   31.3690 C.ar    1  3PS1        0.0927
     17  C17       40.6710   12.8660   30.3880 C.ar    1  3PS1        0.1186
     18  N18       39.4030   12.4140   30.7320 N.ar    1  3PS1       -0.2088
     19  C19       38.8960   12.6760   31.9020 C.ar    1  3PS1        0.2251
     20  C20       39.5340   13.3320   32.8750 C.ar    1  3PS1        0.0591
     21  C21       40.8420   13.8070   32.5480 C.ar    1  3PS1        0.0230
     22  O22       37.6700   12.2280   32.3080 O.3     1  3PS1       -0.4561
     23  C23       36.6170   13.1830   32.2240 C.3     1  3PS1        0.2542
@<TRIPOS>BOND
     1     1     9    1
     2     2     9    2
     3     2     3    2
     4     4     3    1
     5     9     8    2
     6     3     5    1
     7     8     6    2
     8     5     6    1
     9     5    12    2
    10    17    18   ar
    11    17    16   ar
    12     6     7    1
    13    12    10    1
    14    18    19   ar
    15    15    16    1
    16    15    13   am
    17     7    13    1
    18     7    11    1
    19    16    21   ar
    20    10    11    2
    21    13    14    2
    22    19    22    1
    23    19    20   ar
    24    23    22    1
    25    21    20   ar
