@<TRIPOS>MOLECULE
3ps9_SAM_A_1.pdb
 27 29 0 0 0
SMALL
GASTEIGER

@<TRIPOS>ATOM
      1  N         14.3530   51.1730   -4.0110 N.3   670  SAM670     -0.1208
      2  CA        15.3510   51.1260   -2.8950 C.3   670  SAM670      0.1952
      3  C         15.4040   52.4790   -2.2010 C.2   670  SAM670      0.3819
      4  O         15.6050   52.6030   -0.9990 O.co2 670  SAM670     -0.2441
      5  OXT       15.2840   53.4900   -2.8780 O.co2 670  SAM670     -0.2441
      6  CB        16.7510   50.7310   -3.3690 C.3   670  SAM670      0.0414
      7  CG        17.3130   49.4150   -2.8410 C.3   670  SAM670      0.0503
      8  SD        18.6410   49.5800   -1.6320 S.3   670  SAM670     -0.1761
      9  CE        19.8590   50.5540   -2.5560 C.3   670  SAM670      0.0590
     10  C5'       19.4260   47.9740   -1.7200 C.3   670  SAM670      0.0806
     11  C4'       18.4940   46.8600   -1.2810 C.3   670  SAM670      0.1622
     12  O4'       19.0460   45.6400   -1.7360 O.3   670  SAM670     -0.3153
     13  C3'       18.3560   46.7560    0.2380 C.3   670  SAM670      0.2168
     14  O3'       16.9970   46.8110    0.6180 O.3   670  SAM670     -0.2175
     15  C2'       18.8970   45.3910    0.5610 C.3   670  SAM670      0.2569
     16  O2'       18.0840   44.8010    1.5410 O.3   670  SAM670     -0.2130
     17  C1'       18.7230   44.6940   -0.7730 C.3   670  SAM670      0.3185
     18  N9        19.5490   43.5110   -0.9490 N.pl3 670  SAM670     -0.1439
     19  C8        20.8930   43.3460   -0.7870 C.3   670  SAM670      0.3377
     20  N7        21.1910   42.0500   -1.0350 N.2   670  SAM670     -0.2095
     21  C5        20.0520   41.4040   -1.3650 C.2   670  SAM670      0.2526
     22  C6        19.7520   40.0920   -1.7190 C.2   670  SAM670      0.4393
     23  N6        20.6940   39.1580   -1.7930 N.pl3 670  SAM670      0.2180
     24  N1        18.4370   39.7590   -1.9880 N.2   670  SAM670      0.0021
     25  C2        17.4400   40.6930   -1.9510 C.3   670  SAM670      0.5254
     26  N3        17.7300   41.9810   -1.5870 N.2   670  SAM670     -0.0055
     27  C4        19.0120   42.3220   -1.3120 C.2   670  SAM670      0.3518
@<TRIPOS>BOND
     1     1     2    1
     2     6     2    1
     3     6     7    1
     4     2     3    1
     5     5     3   ar
     6     7     8    1
     7     9     8    1
     8     3     4   ar
     9    24    25    1
    10    24    22    2
    11    25    26    1
    12    23    22    1
    13    12    11    1
    14    12    17    1
    15    10     8    1
    16    10    11    1
    17    22    21    1
    18    26    27    2
    19    21    27    1
    20    21    20    2
    21    27    18    1
    22    11    13    1
    23    20    19    1
    24    18    19    1
    25    18    17    1
    26    17    15    1
    27    13    15    1
    28    13    14    1
    29    15    16    1
