@<TRIPOS>MOLECULE
3psb_SM6_A_1.pdb
 26 29 0 0 0
SMALL
GASTEIGER

@<TRIPOS>ATOM
      1  C1        80.7320    4.8770   -6.5040 C.2     1  SM61        0.0194
      2  C2        80.8620    5.7000   -7.6250 C.2     1  SM61       -0.0007
      3  C3        82.0300    6.4480   -7.8600 C.2     1  SM61       -0.0005
      4  C4        83.0710    6.3440   -6.9110 C.3     1  SM61        0.1364
      5  C5        82.9410    5.5140   -5.7750 C.2     1  SM61       -0.0005
      6  C6        81.7650    4.7660   -5.5570 C.2     1  SM61       -0.0010
      7  C7        79.4590    4.1990   -6.4530 C.2     1  SM61        0.1106
      8  C8        78.7110    4.7350   -7.6930 C.2     1  SM61        0.0214
      9  C9        79.6510    5.6760   -8.5020 C.2     1  SM61        0.0014
     10  N10       84.2180    7.0180   -7.0500 N.pl3   1  SM61       -0.2297
     11  C11       84.6640    8.1500   -7.7510 C.ar    1  SM61        0.0788
     12  N12       79.0590    3.3820   -5.5660 N.4     1  SM61       -0.0964
     13  C13       83.8450    9.3130   -8.0880 C.ar    1  SM61        0.0246
     14  C14       84.5500   10.2990   -8.7890 C.ar    1  SM61        0.0501
     15  S15       86.2270    9.8790   -9.0770 S.2     1  SM61       -0.0777
     16  C16       85.9920    8.3510   -8.2410 C.ar    1  SM61        0.1200
     17  C17       87.1230    7.4720   -8.1360 C.2     1  SM61        0.3486
     18  O18       86.9680    6.3270   -7.6970 O.2     1  SM61       -0.2443
     19  C19       82.4820    9.5450   -7.7980 C.ar    1  SM61        0.0225
     20  C20       81.9100   10.7640   -8.2350 C.ar    1  SM61        0.0990
     21  N21       82.6000   11.7080   -8.9130 N.ar    1  SM61       -0.2418
     22  C22       83.9050   11.4900   -9.1920 C.ar    1  SM61        0.1053
     23  O23       78.1990    4.0410   -4.6250 O.3     1  SM61       -0.0605
     24  O24       88.3200    8.1120   -8.0830 O.3     1  SM61       -0.4451
     25  C25       90.4880    8.4600   -9.1210 C.3     1  SM61        0.0513
     26  C26       89.5410    7.4600   -8.4300 C.3     1  SM61        0.2089
@<TRIPOS>BOND
     1    22    21   ar
     2    22    14   ar
     3    25    26    1
     4    15    14   ar
     5    15    16   ar
     6    21    20   ar
     7    14    13   ar
     8     9     8    2
     9     9     2    1
    10    26    24    1
    11    16    17    1
    12    16    11   ar
    13    20    19   ar
    14    17    24    1
    15    17    18    2
    16    13    19   ar
    17    13    11   ar
    18     3     2    2
    19     3     4    1
    20    11    10    1
    21     8     7    1
    22     2     1    1
    23    10     4    1
    24     4     5    1
    25     1     7    2
    26     1     6    1
    27     7    12    1
    28     5     6    2
    29    12    23    1
