@<TRIPOS>MOLECULE
3psd_SM7_A_1.pdb
 29 34 0 0 0
SMALL
GASTEIGER

@<TRIPOS>ATOM
      1  C1        41.8150   29.0500   33.2430 C.ar    1  SM71        0.0381
      2  C2        40.4790   29.2450   32.8820 C.ar    1  SM71        0.1024
      3  N3        40.1900   30.5280   32.7430 N.ar    1  SM71       -0.1693
      4  N4        41.3410   31.1900   33.0130 N.ar    1  SM71       -0.2513
      5  C5        42.3690   30.3190   33.3300 C.ar    1  SM71        0.0965
      6  C6        42.5570   27.8130   33.5080 C.ar    1  SM71        0.0027
      7  C7        39.4660   28.2150   32.6700 C.ar    1  SM71        0.0225
      8  C8        39.1970   27.2300   33.6450 C.ar    1  SM71        0.0222
      9  C9        38.1900   26.2770   33.3750 C.ar    1  SM71        0.0989
     10  N10       37.4720   26.2850   32.2280 N.ar    1  SM71       -0.2423
     11  C11       37.7170   27.2350   31.2980 C.ar    1  SM71        0.0989
     12  C12       38.7060   28.2250   31.4790 C.ar    1  SM71        0.0222
     13  C13       41.3490   32.6510   32.9490 C.3     1  SM71        0.1081
     14  C14       42.7060   33.2740   33.3630 C.3     1  SM71        0.0432
     15  C15       42.6530   34.8160   33.4580 C.3     1  SM71        0.0907
     16  N16       41.5030   35.2810   34.2760 N.3     1  SM71       -0.2179
     17  C17       40.1810   34.7840   33.8210 C.3     1  SM71        0.0907
     18  C18       40.1490   33.2420   33.7330 C.3     1  SM71        0.0432
     19  C19       43.3600   27.7610   34.6770 C.ar    1  SM71        0.0001
     20  C20       44.1120   26.6110   35.0110 C.ar    1  SM71        0.0012
     21  C21       44.0230   25.5220   34.1230 C.ar    1  SM71        0.0155
     22  C22       43.2370   25.5430   32.9550 C.ar    1  SM71       -0.0162
     23  C23       42.4900   26.6990   32.6340 C.ar    1  SM71       -0.0038
     24  C24       44.6550   24.2330   34.1800 C.ar    1  SM71        0.1004
     25  C25       44.2410   23.5460   33.0800 C.ar    1  SM71        0.0225
     26  C26       43.2880   24.2290   32.1200 C.3     1  SM71        0.0559
     27  N27       45.4850   23.5970   34.9870 N.ar    1  SM71       -0.1482
     28  N28       45.6070   22.3980   34.3410 N.ar    1  SM71       -0.1467
     29  C29       44.8650   22.3120   33.1630 C.ar    1  SM71        0.1197
@<TRIPOS>BOND
     1    11    12   ar
     2    11    10   ar
     3    12     7   ar
     4    26    22    1
     5    26    25    1
     6    10     9   ar
     7    23    22   ar
     8    23     6   ar
     9     7     2    1
    10     7     8   ar
    11     3     2   ar
    12     3     4   ar
    13     2     1   ar
    14    13     4    1
    15    13    14    1
    16    13    18    1
    17    22    21   ar
    18     4     5   ar
    19    25    29   ar
    20    25    24   ar
    21    29    28   ar
    22     1     5   ar
    23     1     6    1
    24    14    15    1
    25     9     8   ar
    26    15    16    1
    27     6    19   ar
    28    18    17    1
    29    17    16    1
    30    21    24    1
    31    21    20   ar
    32    24    27   ar
    33    28    27   ar
    34    19    20   ar
