@<TRIPOS>MOLECULE
3psl_III_C_1.pdb
 32 31 0 0 0
SMALL
GASTEIGER

@<TRIPOS>ATOM
      1  C        -18.9150   12.5540   21.5670 C.2     0  ACE0        0.2423
      2  O        -19.4090   13.7270   21.6660 O.2     0  ACE0       -0.2733
      3  CH3      -19.4250   11.5570   20.5420 C.3     0  ACE0        0.0964
      4  N        -17.6510   12.2730   22.2910 N.am    1  ALA1       -0.1978
      5  CA       -17.1460   13.2260   23.2980 C.3     1  ALA1        0.1728
      6  C        -16.9540   14.6400   22.8080 C.2     1  ALA1        0.2616
      7  O        -17.0660   15.6080   23.5980 O.2     1  ALA1       -0.2715
      8  CB       -15.8940   12.7080   23.8920 C.3     1  ALA1        0.0334
      9  N        -16.5610   14.8260   21.5070 N.am    2  ARG2       -0.1963
     10  CA       -16.3920   16.1800   21.0120 C.3     2  ARG2        0.1729
     11  C        -17.6560   17.0710   21.1450 C.2     2  ARG2        0.2617
     12  O        -17.5610   18.2760   21.2510 O.2     2  ARG2       -0.2715
     13  CB       -15.8350   16.1420   19.5270 C.3     2  ARG2        0.0348
     14  CG       -15.5080   17.5470   19.0120 C.3     2  ARG2        0.0492
     15  CD       -15.1330   17.4540   17.4910 C.3     2  ARG2        0.2205
     16  NE       -14.0560   16.5030   17.2060 N.pl3   2  ARG2       -0.0865
     17  CZ       -12.7480   16.8530   17.2140 C.cat   2  ARG2        0.5346
     18  NH1      -12.3900   18.1330   17.3640 N.pl3   2  ARG2        0.1354
     19  NH2      -11.8290   15.9870   16.8910 N.pl3   2  ARG2        0.1354
     20  N        -18.8380   16.4860   21.1670 N.am    3  THR3       -0.1937
     21  CA       -20.0340   17.2500   21.1900 C.3     3  THR3        0.2028
     22  C        -20.5070   17.6140   22.6190 C.2     3  THR3        0.2642
     23  O        -21.5170   18.3150   22.7740 O.2     3  THR3       -0.2714
     24  CB       -21.1700   16.4690   20.5130 C.3     3  THR3        0.1808
     25  OG1      -21.5780   15.3290   21.3490 O.3     3  THR3       -0.2208
     26  CG2      -20.7150   16.0200   19.0650 C.3     3  THR3        0.0379
     27  N        -19.7550   17.2080   23.6080 N.am    4  LYS4       -0.1977
     28  CA       -20.1450   17.4610   25.0160 C.3     4  LYS4        0.1596
     29  C        -19.2250   18.4630   25.7370 C.2     4  LYS4        0.2287
     30  O        -18.0050   18.5310   25.3720 O.2     4  LYS4       -0.2864
     31  CB       -20.1390   16.1280   25.7340 C.3     4  LYS4        0.0297
     32  CG       -21.0000   15.0330   25.0600 C.3     4  LYS4        0.0023
@<TRIPOS>BOND
     1    19    17    1
     2    16    17    2
     3    16    15    1
     4    17    18    1
     5    15    14    1
     6    14    13    1
     7    26    24    1
     8    13    10    1
     9    24    21    1
    10    24    25    1
    11     3     1    1
    12    10    11    1
    13    10     9    1
    14    11    20   am
    15    11    12    2
    16    20    21    1
    17    21    22    1
    18     9     6   am
    19     1     2    2
    20     1     4   am
    21     4     5    1
    22    22    23    2
    23    22    27   am
    24     6     5    1
    25     6     7    2
    26     5     8    1
    27    27    28    1
    28    28    31    1
    29    28    29    1
    30    32    31    1
    31    30    29    2
