@<TRIPOS>MOLECULE
3psx_HEM_A_1.pdb
 43 50 0 0 0
SMALL
GASTEIGER

@<TRIPOS>ATOM
      1  CHA       23.5790    2.2170   12.2510 C.2   482  HEM482      0.0000
      2  CHB       23.6920   -2.2770   10.5190 C.2   482  HEM482      0.0000
      3  CHC       18.9520   -2.1720    9.6380 C.2   482  HEM482      0.0000
      4  CHD       18.6480    2.0950   11.9510 C.2   482  HEM482      0.0000
      5  C1A       24.0500    0.9830   11.9300 C.ar  482  HEM482      0.0000
      6  C2A       25.4360    0.5470   11.9580 C.ar  482  HEM482      0.0000
      7  C3A       25.4680   -0.7280   11.4980 C.ar  482  HEM482      0.0000
      8  C4A       24.0990   -1.0880   11.1240 C.ar  482  HEM482      0.0000
      9  CMA       26.7450   -1.6570   11.4260 C.3   482  HEM482      0.0000
     10  CAA       26.5590    1.4310   12.5080 C.3   482  HEM482      0.0000
     11  CBA       27.1200    2.0830   11.2100 C.3   482  HEM482      0.0000
     12  CGA       28.3420    2.9550   11.4600 C.2   482  HEM482      0.0000
     13  O1A       29.3950    2.7980   10.7420 O.co2 482  HEM482      0.0000
     14  O2A       28.2390    3.8380   12.3390 O.co2 482  HEM482      0.0000
     15  C1B       22.4510   -2.5990   10.0600 C.2   482  HEM482      0.0000
     16  C2B       22.1010   -3.7900    9.3200 C.2   482  HEM482      0.0000
     17  C3B       20.7650   -3.7280    9.1090 C.2   482  HEM482      0.0000
     18  C4B       20.2580   -2.5560    9.6780 C.2   482  HEM482      0.0000
     19  CMB       23.0680   -4.9280    8.8520 C.3   482  HEM482      0.0000
     20  CAB       19.8590   -4.7430    8.4050 C.2   482  HEM482      0.0000
     21  CBB       20.3320   -5.3360    7.3240 C.2   482  HEM482      0.0000
     22  C1C       18.4670   -1.0490   10.2550 C.ar  482  HEM482      0.0000
     23  C2C       17.0440   -0.6720   10.3220 C.ar  482  HEM482      0.0000
     24  C3C       17.0090    0.5090   10.9470 C.ar  482  HEM482      0.0000
     25  C4C       18.3250    0.9120   11.2940 C.ar  482  HEM482      0.0000
     26  CMC       15.8500   -1.5100    9.7510 C.3   482  HEM482      0.0000
     27  CAC       15.8670    1.4110   11.3710 C.2   482  HEM482      0.0000
     28  CBC       14.6190    1.1870   10.9900 C.2   482  HEM482      0.0000
     29  C1D       19.9410    2.4720   12.2150 C.2   482  HEM482      0.0000
     30  C2D       20.2540    3.7350   12.8310 C.2   482  HEM482      0.0000
     31  C3D       21.7570    3.7850   12.9370 C.2   482  HEM482      0.0000
     32  C4D       22.2460    2.5680   12.3410 C.2   482  HEM482      0.0000
     33  CMD       19.2140    4.7590   13.3190 C.3   482  HEM482      0.0000
     34  CAD       22.5610    4.9810   13.5290 C.3   482  HEM482      0.0000
     35  CBD       22.6500    4.6980   15.0250 C.3   482  HEM482      0.0000
     36  CGD       23.4130    5.8140   15.7540 C.2   482  HEM482      0.0000
     37  O1D       23.8280    5.5550   16.9510 O.co2 482  HEM482      0.0000
     38  O2D       23.6080    6.9290   15.1800 O.co2 482  HEM482      0.0000
     39  NA        23.2760   -0.0400   11.4060 N.ar  482  HEM482      0.0000
     40  NB        21.2850   -1.8650   10.2420 N.2   482  HEM482      0.0000
     41  NC        19.2270   -0.0600   10.8620 N.ar  482  HEM482      0.0000
     42  ND        21.1410    1.8310   11.9310 N.2   482  HEM482      0.0000
     43 FE         21.2150    0.0060   11.0290 Fe    482  HEM482      0.0000
@<TRIPOS>BOND
     1    21    20    2
     2    20    17    1
     3    19    16    1
     4    17    16    2
     5    17    18    1
     6    16    15    1
     7     3    18    2
     8     3    22    1
     9    18    40    1
    10    26    23    1
    11    15    40    2
    12    15     2    1
    13    40    43    1
    14    22    23   ar
    15    22    41   ar
    16    23    24   ar
    17     2     8    2
    18    13    12   ar
    19    41    43    1
    20    41    25   ar
    21    24    25   ar
    22    24    27    1
    23    28    27    2
    24    43    39    1
    25    43    42    1
    26     8    39   ar
    27     8     7   ar
    28    11    12    1
    29    11    10    1
    30    25     4    1
    31    39     5   ar
    32     9     7    1
    33    12    14   ar
    34     7     6   ar
    35     5     6   ar
    36     5     1    2
    37    42    29    1
    38    42    32    2
    39     4    29    2
    40     6    10    1
    41    29    30    1
    42     1    32    1
    43    32    31    1
    44    30    31    2
    45    30    33    1
    46    31    34    1
    47    34    35    1
    48    35    36    1
    49    38    36   ar
    50    36    37   ar
