@<TRIPOS>MOLECULE
3psy_RB9_A_1.pdb
 37 41 0 0 0
SMALL
GASTEIGER

@<TRIPOS>ATOM
      1  C1         0.1720    8.3240    8.7240 C.ar  1001  RB91001     0.0770
      2  N1        -1.0850    6.5270    7.7290 N.am  1001  RB91001    -0.1967
      3  O1        -1.8340    7.6290    9.6300 O.2   1001  RB91001    -0.2683
      4  S1         2.6170    9.0980    8.7720 S.2   1001  RB91001    -0.0698
      5  C2        -1.0110    7.4540    8.7110 C.2   1001  RB91001     0.2669
      6  N2         1.8630    6.5030    8.7680 N.am  1001  RB91001    -0.1712
      7  O2         0.8010    5.9970   10.7270 O.2   1001  RB91001    -0.2714
      8  C3        -2.3110    5.7190    7.6360 C.3   1001  RB91001     0.1418
      9  N3         1.0920    3.4350   10.6040 N.3   1001  RB91001    -0.2082
     10  C4        -3.4080    6.5950    7.0430 C.ar  1001  RB91001    -0.0006
     11  N4        -4.7690    2.5020   10.7710 N.2   1001  RB91001    -0.2482
     12  C5         0.1100    9.7630    8.7130 C.ar  1001  RB91001     0.0127
     13  C6        -1.0860   10.6050    8.6820 C.ar  1001  RB91001     0.0007
     14  C7         1.3870   10.3040    8.7350 C.ar  1001  RB91001     0.0369
     15  C8         1.4590    7.8400    8.7500 C.ar  1001  RB91001     0.1072
     16  C9         1.4590    5.6080    9.7410 C.2   1001  RB91001     0.2638
     17  C10        1.8150    4.1580    9.5280 C.3   1001  RB91001     0.1757
     18  C11       -0.2820    3.1130   10.1570 C.3   1001  RB91001     0.0937
     19  C12       -1.0940    2.3900   11.1770 C.3   1001  RB91001     0.0431
     20  C13       -2.5540    2.1850   10.9330 C.2   1001  RB91001    -0.0144
     21  C14       -2.1600   10.3610    7.7980 C.ar  1001  RB91001     0.0000
     22  C15       -3.3250   11.1590    7.6960 C.ar  1001  RB91001     0.0000
     23  C16       -3.3720   12.2860    8.5210 C.ar  1001  RB91001     0.0000
     24  C17       -2.3210   12.5940    9.3820 C.ar  1001  RB91001     0.0000
     25  C18       -1.1870   11.7860    9.4580 C.ar  1001  RB91001     0.0000
     26  C19       -3.2520    7.1980    5.7890 C.ar  1001  RB91001    -0.0026
     27  C20       -4.2510    7.9790    5.2080 C.ar  1001  RB91001    -0.0003
     28  C21       -5.4200    8.1850    5.9200 C.ar  1001  RB91001    -0.0000
     29  C22       -5.5720    7.6100    7.1920 C.ar  1001  RB91001    -0.0003
     30  C23       -4.5960    6.8190    7.7610 C.ar  1001  RB91001    -0.0026
     31  C24       -3.5750    3.1060   11.0640 C.2   1001  RB91001     0.0907
     32  C25       -4.5270    1.1940   10.4180 C.2   1001  RB91001     0.0665
     33  C26       -3.1460    0.9690   10.5040 C.3   1001  RB91001     0.0819
     34  C27       -2.6610   -0.3140   10.1920 C.2   1001  RB91001    -0.0164
     35  C28       -3.5560   -1.3100    9.8010 C.2   1001  RB91001    -0.0038
     36  C29       -4.9370   -1.0780    9.7120 C.2   1001  RB91001     0.0009
     37  C30       -5.4400    0.1900   10.0250 C.2   1001  RB91001     0.0153
@<TRIPOS>BOND
     1    27    26   ar
     2    27    28   ar
     3    26    10   ar
     4    28    29   ar
     5    10     8    1
     6    10    30   ar
     7    29    30   ar
     8     8     2    1
     9    22    21   ar
    10    22    23   ar
    11     2     5   am
    12    21    13   ar
    13    23    24   ar
    14    13    12    1
    15    13    25   ar
    16     5     1    1
    17     5     3    2
    18    12     1   ar
    19    12    14   ar
    20     1    15   ar
    21    14     4   ar
    22    15     6    1
    23    15     4   ar
    24     6    16   am
    25    24    25   ar
    26    17    16    1
    27    17     9    1
    28    36    35    1
    29    36    37    2
    30    16     7    2
    31    35    34    2
    32    37    32    1
    33    18     9    1
    34    18    19    1
    35    34    33    1
    36    32    33    1
    37    32    11    2
    38    33    20    1
    39    11    31    1
    40    20    31    2
    41    20    19    1
