@<TRIPOS>MOLECULE
3pt1_F6P_A_1.pdb
 16 16 0 0 0
SMALL
GASTEIGER

@<TRIPOS>ATOM
      1  O1        -0.1600  -10.0220  -21.8070 O.3   1001  F6P1001    -0.2148
      2  C1         0.3020   -9.0440  -22.7110 C.3   1001  F6P1001     0.2434
      3  C2        -0.6840   -7.8870  -22.7210 C.3   1001  F6P1001     0.2807
      4  O2        -1.9620   -8.3440  -23.2230 O.3   1001  F6P1001    -0.1896
      5  C3        -0.1790   -6.7450  -23.5890 C.3   1001  F6P1001     0.2409
      6  O3        -1.2530   -6.1820  -24.3150 O.3   1001  F6P1001    -0.2149
      7  C4         0.3200   -5.7660  -22.5530 C.3   1001  F6P1001     0.2167
      8  O4         1.6280   -6.1480  -22.1800 O.3   1001  F6P1001    -0.2175
      9  C5        -0.5950   -6.0100  -21.3710 C.3   1001  F6P1001     0.1808
     10  O5        -0.8520   -7.3970  -21.4000 O.3   1001  F6P1001    -0.3254
     11  C6        -1.9310   -5.2890  -21.5190 C.3   1001  F6P1001     0.1859
     12  O6        -1.7550   -3.8980  -21.4300 O.3   1001  F6P1001    -0.2675
     13  P         -3.0140   -2.8900  -21.3170 P.3   1001  F6P1001     0.5327
     14  O1P       -3.5470   -3.0870  -19.9170 O.3   1001  F6P1001    -0.1145
     15  O2P       -4.0650   -3.1810  -22.3550 O.2   1001  F6P1001    -0.2224
     16  O3P       -2.4820   -1.4770  -21.4420 O.3   1001  F6P1001    -0.1145
@<TRIPOS>BOND
     1     6     5    1
     2     5     3    1
     3     5     7    1
     4     4     3    1
     5     3     2    1
     6     3    10    1
     7     2     1    1
     8     7     8    1
     9     7     9    1
    10    15    13    2
    11    11    12    1
    12    11     9    1
    13    16    13    1
    14    12    13    1
    15    10     9    1
    16    13    14    1
