@<TRIPOS>MOLECULE
3pt6_SAH_A_1.pdb
 26 28 0 0 0
SMALL
GASTEIGER

@<TRIPOS>ATOM
      1  N        -32.8850   12.5200  -19.3630 N.3   1603  SAH1603    -0.1208
      2  CA       -32.0230   11.3420  -19.5340 C.3   1603  SAH1603     0.1952
      3  CB       -30.8640   11.5500  -20.5240 C.3   1603  SAH1603     0.0422
      4  CG       -31.0400   12.6750  -21.5470 C.3   1603  SAH1603     0.0597
      5  SD       -29.5850   12.8820  -22.6150 S.3   1603  SAH1603    -0.1375
      6  C        -31.5250   10.7920  -18.1960 C.2   1603  SAH1603     0.3819
      7  O        -31.8600   11.3290  -17.1360 O.co2 1603  SAH1603    -0.2441
      8  OXT      -30.7930    9.7950  -18.1550 O.co2 1603  SAH1603    -0.2441
      9  C5'      -30.5490   12.6290  -24.1290 C.3   1603  SAH1603     0.0899
     10  C4'      -30.5440   11.1770  -24.6020 C.3   1603  SAH1603     0.1630
     11  O4'      -31.2870   11.0550  -25.8050 O.3   1603  SAH1603    -0.3153
     12  C3'      -29.1400   10.6560  -24.8860 C.3   1603  SAH1603     0.2168
     13  O3'      -28.8560    9.5710  -24.0220 O.3   1603  SAH1603    -0.2175
     14  C2'      -29.1810   10.2110  -26.3430 C.3   1603  SAH1603     0.2569
     15  O2'      -28.5520    8.9630  -26.5180 O.3   1603  SAH1603    -0.2130
     16  C1'      -30.6640   10.1140  -26.6520 C.3   1603  SAH1603     0.3185
     17  N9       -30.9670   10.4610  -28.0430 N.pl3 1603  SAH1603    -0.1439
     18  C8       -30.2600   11.2940  -28.8690 C.3   1603  SAH1603     0.3377
     19  N7       -30.8970   11.3440  -30.0620 N.2   1603  SAH1603    -0.2095
     20  C5       -32.0010   10.5560  -30.0090 C.2   1603  SAH1603     0.2526
     21  C6       -32.9980   10.2450  -30.9370 C.2   1603  SAH1603     0.4393
     22  N6       -32.9670   10.7670  -32.1610 N.pl3 1603  SAH1603     0.2180
     23  N1       -34.0230    9.3840  -30.5820 N.2   1603  SAH1603     0.0021
     24  C2       -34.0560    8.8420  -29.3100 C.3   1603  SAH1603     0.5254
     25  N3       -33.0640    9.1540  -28.3940 N.2   1603  SAH1603    -0.0055
     26  C4       -32.0530    9.9950  -28.7370 C.2   1603  SAH1603     0.3518
@<TRIPOS>BOND
     1    22    21    1
     2    21    23    2
     3    21    20    1
     4    23    24    1
     5    19    20    2
     6    19    18    1
     7    20    26    1
     8    24    25    1
     9    18    17    1
    10    26    25    2
    11    26    17    1
    12    17    16    1
    13    16    14    1
    14    16    11    1
    15    15    14    1
    16    14    12    1
    17    11    10    1
    18    12    10    1
    19    12    13    1
    20    10     9    1
    21     9     5    1
    22     5     4    1
    23     4     3    1
    24     3     2    1
    25     2     1    1
    26     2     6    1
    27     6     8   ar
    28     6     7   ar
