@<TRIPOS>MOLECULE
3pt9_SAH_A_1.pdb
 26 28 0 0 0
SMALL
GASTEIGER

@<TRIPOS>ATOM
      1  N        -14.7340   -2.5760    7.9870 N.3   1603  SAH1603    -0.1208
      2  CA       -14.4170   -2.9710    6.6140 C.3   1603  SAH1603     0.1952
      3  CB       -13.7720   -1.8550    5.7860 C.3   1603  SAH1603     0.0422
      4  CG       -13.8940   -0.4200    6.2940 C.3   1603  SAH1603     0.0597
      5  SD       -12.9450    0.7400    5.2670 S.3   1603  SAH1603    -0.1375
      6  C        -13.5410   -4.2250    6.5730 C.2   1603  SAH1603     0.3819
      7  O        -13.2850   -4.8610    7.6010 O.co2 1603  SAH1603    -0.2441
      8  OXT      -13.0800   -4.6290    5.5010 O.co2 1603  SAH1603    -0.2441
      9  C5'      -14.2720    1.9430    5.0690 C.3   1603  SAH1603     0.0899
     10  C4'      -14.8960    1.8050    3.6920 C.3   1603  SAH1603     0.1630
     11  O4'      -15.9570    2.7210    3.5550 O.3   1603  SAH1603    -0.3153
     12  C3'      -13.9240    2.0990    2.5600 C.3   1603  SAH1603     0.2168
     13  O3'      -13.7750    0.9340    1.7880 O.3   1603  SAH1603    -0.2175
     14  C2'      -14.5890    3.1910    1.7400 C.3   1603  SAH1603     0.2569
     15  O2'      -14.5220    2.9560    0.3520 O.3   1603  SAH1603    -0.2130
     16  C1'      -16.0270    3.1300    2.2110 C.3   1603  SAH1603     0.3185
     17  N9       -16.7160    4.4200    2.1210 N.pl3 1603  SAH1603    -0.1439
     18  C8       -16.1720    5.6690    2.1870 C.3   1603  SAH1603     0.3377
     19  N7       -17.1790    6.5660    2.0620 N.2   1603  SAH1603    -0.2095
     20  C5       -18.3530    5.9040    1.9210 C.2   1603  SAH1603     0.2526
     21  C6       -19.6660    6.3300    1.7600 C.2   1603  SAH1603     0.4393
     22  N6       -19.9720    7.6240    1.7210 N.pl3 1603  SAH1603     0.2180
     23  N1       -20.6600    5.3880    1.6420 N.2   1603  SAH1603     0.0021
     24  C2       -20.3480    4.0420    1.6800 C.3   1603  SAH1603     0.5254
     25  N3       -19.0470    3.6280    1.8370 N.2   1603  SAH1603    -0.0055
     26  C4       -18.0690    4.5500    1.9540 C.2   1603  SAH1603     0.3518
@<TRIPOS>BOND
     1    15    14    1
     2    23    24    1
     3    23    21    2
     4    24    25    1
     5    22    21    1
     6    14    16    1
     7    14    12    1
     8    21    20    1
     9    13    12    1
    10    25    26    2
    11    20    26    1
    12    20    19    2
    13    26    17    1
    14    19    18    1
    15    17    18    1
    16    17    16    1
    17    16    11    1
    18    12    10    1
    19    11    10    1
    20    10     9    1
    21     9     5    1
    22     5     4    1
    23     8     6   ar
    24     3     4    1
    25     3     2    1
    26     6     2    1
    27     6     7   ar
    28     2     1    1
