@<TRIPOS>MOLECULE
3pta_SAH_A_1.pdb
 26 28 0 0 0
SMALL
GASTEIGER

@<TRIPOS>ATOM
      1  N         29.1960  -20.5360   32.9750 N.3   1601  SAH1601    -0.1208
      2  CA        29.2420  -20.3020   31.5290 C.3   1601  SAH1601     0.1952
      3  CB        28.0680  -19.4250   31.0800 C.3   1601  SAH1601     0.0422
      4  CG        26.6960  -20.0120   31.4450 C.3   1601  SAH1601     0.0597
      5  SD        25.4810  -18.8150   30.8310 S.3   1601  SAH1601    -0.1375
      6  C         30.5520  -19.6270   31.1580 C.2   1601  SAH1601     0.3819
      7  O         31.4730  -20.2960   30.7520 O.co2 1601  SAH1601    -0.2441
      8  OXT       30.7090  -18.2920   31.2970 O.co2 1601  SAH1601    -0.2441
      9  C5'       23.8880  -19.4920   31.3650 C.3   1601  SAH1601     0.0899
     10  C4'       22.8470  -18.4730   30.9020 C.3   1601  SAH1601     0.1630
     11  O4'       22.8370  -18.3270   29.4510 O.3   1601  SAH1601    -0.3153
     12  C3'       21.4380  -18.8290   31.3650 C.3   1601  SAH1601     0.2168
     13  O3'       20.9930  -17.9410   32.3920 O.3   1601  SAH1601    -0.2175
     14  C2'       20.5440  -18.7900   30.1140 C.3   1601  SAH1601     0.2569
     15  O2'       19.4530  -17.8710   30.2780 O.3   1601  SAH1601    -0.2130
     16  C1'       21.4730  -18.3780   28.9350 C.3   1601  SAH1601     0.3185
     17  N9        21.2890  -19.3660   27.8360 N.pl3 1601  SAH1601    -0.1439
     18  C8        21.0610  -20.7130   27.9840 C.3   1601  SAH1601     0.3377
     19  N7        20.9270  -21.2880   26.8280 N.2   1601  SAH1601    -0.2095
     20  C5        21.0520  -20.3620   25.8500 C.2   1601  SAH1601     0.2526
     21  C6        21.0000  -20.3920   24.4240 C.2   1601  SAH1601     0.4393
     22  N6        20.7640  -21.5730   23.7460 N.pl3 1601  SAH1601     0.2180
     23  N1        21.1780  -19.2440   23.7420 N.2   1601  SAH1601     0.0021
     24  C2        21.4070  -18.0910   24.3680 C.3   1601  SAH1601     0.5254
     25  N3        21.4630  -18.0130   25.7080 N.2   1601  SAH1601    -0.0055
     26  C4        21.2960  -19.1100   26.4790 C.2   1601  SAH1601     0.3518
@<TRIPOS>BOND
     1    23    24    1
     2    23    21    2
     3    22    21    1
     4    24    25    1
     5    21    20    1
     6    25    26    2
     7    20    26    1
     8    20    19    2
     9    26    17    1
    10    19    18    1
    11    17    18    1
    12    17    16    1
    13    16    11    1
    14    16    14    1
    15    11    10    1
    16    14    15    1
    17    14    12    1
    18     7     6   ar
    19     5     9    1
    20     5     4    1
    21    10    12    1
    22    10     9    1
    23     3     4    1
    24     3     2    1
    25     6     8   ar
    26     6     2    1
    27    12    13    1
    28     2     1    1
