@<TRIPOS>MOLECULE
3ptg_932_A_1.pdb
 26 29 0 0 0
SMALL
GASTEIGER

@<TRIPOS>ATOM
      1  C1         2.3070    1.1730   33.0450 C.ar    1  9321        0.0503
      2  N2         2.8700    0.2650   32.1030 N.am    1  9321       -0.2500
      3  C3         3.4810    0.7850   30.9930 C.2     1  9321        0.2301
      4  C4         3.5110    2.2740   30.7700 C.3     1  9321        0.0903
      5  C5         3.8000    3.0090   32.0710 C.3     1  9321        0.0372
      6  C6         2.7580    2.5720   33.0720 C.ar    1  9321       -0.0080
      7  C7         1.3490    0.8050   33.9890 C.ar    1  9321        0.0146
      8  C8         0.8370    1.7420   34.8920 C.ar    1  9321        0.0013
      9  C9         1.2360    3.0720   34.8960 C.ar    1  9321       -0.0002
     10  C10        2.1940    3.4870   33.9750 C.ar    1  9321       -0.0030
     11  C11        2.8040   -1.1910   32.4160 C.3     1  9321        0.1853
     12  C12        1.5220   -1.8600   31.9750 C.2     1  9321        0.2667
     13  O13        1.1220   -2.9430   32.4060 O.2     1  9321       -0.2711
     14  N14        0.8330   -1.2180   31.0560 N.am    1  9321       -0.1705
     15  C15       -0.2430   -1.7560   30.4080 C.ar    1  9321        0.1119
     16  S16       -1.1640   -3.1460   30.8090 S.2     1  9321       -0.0696
     17  C17       -2.3320   -3.0520   29.4800 C.ar    1  9321        0.0332
     18  C18       -2.0110   -1.9420   28.6650 C.ar    1  9321       -0.0041
     19  C19       -0.8220   -1.1820   29.1790 C.ar    1  9321        0.0821
     20  C20       -0.1960    0.0220   28.5500 C.1     1  9321        0.0596
     21  N21       -0.5110    0.4850   27.3710 N.2     1  9321       -0.0919
     22  N22        0.3510    1.5690   27.1580 N.2     1  9321       -0.1156
     23  C23        1.1330    1.6580   28.2410 C.2     1  9321        0.2317
     24  N24        0.8020    0.6840   29.1250 N.2     1  9321       -0.1678
     25  C25       -2.8910   -1.6990   27.4470 C.3     1  9321        0.0323
     26  O26        4.0290    0.0970   30.1240 O.2     1  9321       -0.2745
@<TRIPOS>BOND
     1    22    21    1
     2    22    23    2
     3    21    20    2
     4    25    18    1
     5    23    24    1
     6    20    24    2
     7    20    19    1
     8    18    19   ar
     9    18    17   ar
    10    19    15   ar
    11    17    16   ar
    12    26     3    2
    13    15    16   ar
    14    15    14    1
    15     4     3    1
    16     4     5    1
    17     3     2   am
    18    14    12   am
    19    12    13    2
    20    12    11    1
    21     5     6    1
    22     2    11    1
    23     2     1    1
    24     1     6   ar
    25     1     7   ar
    26     6    10   ar
    27    10     9   ar
    28     7     8   ar
    29     8     9   ar
