@<TRIPOS>MOLECULE
3ptm_G2F_A_1.pdb
 11 11 0 0 0
SMALL
GASTEIGER

@<TRIPOS>ATOM
      1  C1       -32.9570   -6.1540  -23.9560 C.3   1000  G2F1000     0.1801
      2  C2       -33.5760   -6.7240  -22.6820 C.3   1000  G2F1000     0.2230
      3  C3       -33.0830   -5.9100  -21.4870 C.3   1000  G2F1000     0.2194
      4  C4       -31.5550   -5.9840  -21.4330 C.3   1000  G2F1000     0.2144
      5  C5       -31.0040   -5.4180  -22.7460 C.3   1000  G2F1000     0.1810
      6  C6       -29.4770   -5.3760  -22.8330 C.3   1000  G2F1000     0.2141
      7  O3       -33.7030   -6.3610  -20.2790 O.3   1000  G2F1000    -0.2173
      8  O4       -31.0420   -5.2560  -20.3140 O.3   1000  G2F1000    -0.2176
      9  O5       -31.5260   -6.1740  -23.8490 O.3   1000  G2F1000    -0.3479
     10  O6       -28.9180   -6.6740  -22.6230 O.3   1000  G2F1000    -0.2176
     11  F2       -34.9380   -6.6560  -22.7680 F     1000  G2F1000    -0.2317
@<TRIPOS>BOND
     1     1     9    1
     2     1     2    1
     3     9     5    1
     4     6     5    1
     5     6    10    1
     6    11     2    1
     7     5     4    1
     8     2     3    1
     9     3     4    1
    10     3     7    1
    11     4     8    1
