@<TRIPOS>MOLECULE
3ptq_NFG_A_1.pdb
 24 25 0 0 0
SMALL
GASTEIGER

@<TRIPOS>ATOM
      1  C1       -31.7720   -7.6040  -23.8470 C.3   1001  NFG1001     0.3242
      2  O1       -30.8060   -8.5180  -23.3050 O.3   1001  NFG1001    -0.4486
      3  C2       -32.9870   -7.5070  -22.8950 C.3   1001  NFG1001     0.2631
      4  F        -34.1610   -7.3780  -23.5910 F     1001  NFG1001    -0.2276
      5  C3       -32.8710   -6.3370  -21.9180 C.3   1001  NFG1001     0.2233
      6  O3       -33.6680   -6.5360  -20.7390 O.3   1001  NFG1001    -0.2171
      7  C4       -31.3920   -6.1670  -21.6090 C.3   1001  NFG1001     0.2147
      8  O4       -31.1500   -5.3790  -20.4460 O.3   1001  NFG1001    -0.2176
      9  C5       -30.7870   -5.5530  -22.8650 C.3   1001  NFG1001     0.1846
     10  C6       -29.2720   -5.4250  -22.7930 C.3   1001  NFG1001     0.2142
     11  O6       -28.6800   -6.7250  -22.8460 O.3   1001  NFG1001    -0.2176
     12  O5       -31.1540   -6.3190  -24.0310 O.3   1001  NFG1001    -0.3155
     13  C11      -30.0850   -9.5650  -23.8720 C.ar  1001  NFG1001     0.1638
     14  C12      -29.1210  -10.1650  -23.0410 C.ar  1001  NFG1001     0.1783
     15  N1       -28.8970   -9.7360  -21.7590 N.pl3 1001  NFG1001     0.0607
     16  O11      -29.5460   -8.8090  -21.2970 O.2   1001  NFG1001    -0.1260
     17  O12      -28.0450  -10.2700  -21.0480 O.2   1001  NFG1001    -0.1260
     18  C13      -28.3500  -11.2260  -23.5070 C.ar  1001  NFG1001     0.0513
     19  C14      -28.5000  -11.7250  -24.7920 C.ar  1001  NFG1001     0.1447
     20  N2       -27.6830  -12.7710  -25.1400 N.pl3 1001  NFG1001     0.0577
     21  O21      -26.8730  -13.2170  -24.3310 O.2   1001  NFG1001    -0.1261
     22  O22      -27.7340  -13.2830  -26.2480 O.2   1001  NFG1001    -0.1261
     23  C15      -29.4660  -11.1370  -25.6370 C.ar  1001  NFG1001     0.0273
     24  C16      -30.2570  -10.0630  -25.1820 C.ar  1001  NFG1001     0.0404
@<TRIPOS>BOND
     1    22    20    2
     2    23    24   ar
     3    23    19   ar
     4    24    13   ar
     5    20    19    1
     6    20    21    2
     7    19    18   ar
     8    12     1    1
     9    12     9    1
    10    13     2    1
    11    13    14   ar
    12     1     2    1
    13     1     3    1
    14     4     3    1
    15    18    14   ar
    16    14    15    1
    17     3     5    1
    18     9    10    1
    19     9     7    1
    20    11    10    1
    21     5     7    1
    22     5     6    1
    23    15    16    2
    24    15    17    2
    25     7     8    1
