@<TRIPOS>MOLECULE
3pty_AFO_A_1.pdb
 18 18 0 0 0
SMALL
GASTEIGER

@<TRIPOS>ATOM
      1  C1        92.5420   10.1150    1.8160 C.3     1  AFO1        0.2695
      2  O1        93.2260   10.4020    3.0380 O.3     1  AFO1       -0.3286
      3  C2        92.8830    8.6750    1.4490 C.3     1  AFO1        0.2404
      4  O2        91.7220    7.9260    1.0650 O.3     1  AFO1       -0.2149
      5  C3        93.8870    8.7590    0.3170 C.3     1  AFO1        0.2168
      6  O3        95.0920    8.1310    0.7410 O.3     1  AFO1       -0.2175
      7  C4        94.1410   10.2460    0.1140 C.3     1  AFO1        0.1836
      8  O4        93.0690   10.9380    0.7700 O.3     1  AFO1       -0.3256
      9  C5        94.2470   10.6450   -1.3560 C.3     1  AFO1        0.2142
     10  O5        94.9400   11.8980   -1.4620 O.3     1  AFO1       -0.2176
     11  C1'       93.0860   11.7500    3.4780 C.3     1  AFO1        0.1449
     12  C2'       94.0880   11.9660    4.6060 C.3     1  AFO1        0.0322
     13  C3'       93.7100   13.1400    5.5060 C.3     1  AFO1        0.0026
     14  C4'       94.8720   13.4480    6.4430 C.3     1  AFO1        0.0001
     15  C5'       95.7790   12.2340    6.6210 C.3     1  AFO1        0.0000
     16  C6'       95.1820   11.1780    7.5480 C.3     1  AFO1        0.0000
     17  C7'       96.0110    9.8970    7.5150 C.3     1  AFO1        0.0000
     18  C8'       95.4860    8.8760    8.5000 C.3     1  AFO1        0.0000
@<TRIPOS>BOND
     1    10     9    1
     2     9     7    1
     3     7     5    1
     4     7     8    1
     5     5     6    1
     6     5     3    1
     7     8     1    1
     8     4     3    1
     9     3     1    1
    10     1     2    1
    11     2    11    1
    12    11    12    1
    13    12    13    1
    14    13    14    1
    15    14    15    1
    16    15    16    1
    17    17    16    1
    18    17    18    1
