@<TRIPOS>MOLECULE
3ptz_NAD_A_1.pdb
 44 48 0 0 0
SMALL
GASTEIGER

@<TRIPOS>ATOM
      1  PA        13.9780   15.3750   18.2300 P.3   500  NAD500      0.2189
      2  O1A       14.6990   14.1060   18.2230 O.3   500  NAD500     -0.4371
      3  O2A       13.5850   15.7160   16.7600 O.2   500  NAD500     -0.5170
      4  O5B       14.7930   16.5370   18.8460 O.3   500  NAD500     -0.3112
      5  C5B       15.4220   16.2940   20.1030 C.3   500  NAD500      0.1813
      6  C4B       16.9000   16.7580   20.0830 C.3   500  NAD500      0.1821
      7  O4B       17.5000   16.3970   21.3570 O.3   500  NAD500     -0.3135
      8  C3B       17.7320   16.0460   19.0260 C.3   500  NAD500      0.2184
      9  O3B       18.1790   17.0110   18.0500 O.3   500  NAD500     -0.2174
     10  C2B       18.8900   15.3890   19.8660 C.3   500  NAD500      0.2570
     11  O2B       20.1720   15.4590   19.2500 O.3   500  NAD500     -0.2130
     12  C1B       18.9150   16.2500   21.0930 C.3   500  NAD500      0.3186
     13  N9A       19.5430   15.6110   22.3020 N.pl3 500  NAD500     -0.1439
     14  C8A       19.2310   14.4350   22.8250 C.3   500  NAD500      0.3377
     15  N7A       19.9810   14.2090   23.8910 N.2   500  NAD500     -0.2095
     16  C5A       20.7640   15.2600   24.0620 C.2   500  NAD500      0.2526
     17  C6A       21.7450   15.5710   25.0040 C.2   500  NAD500      0.4393
     18  N6A       22.0030   14.6990   25.9790 N.pl3 500  NAD500      0.2180
     19  N1A       22.3900   16.7410   24.9230 N.2   500  NAD500      0.0021
     20  C2A       22.0900   17.5880   23.9350 C.3   500  NAD500      0.5254
     21  N3A       21.1650   17.3260   23.0090 N.2   500  NAD500     -0.0055
     22  C4A       20.4850   16.1630   23.0570 C.2   500  NAD500      0.3518
     23  O3        12.6620   15.1240   19.0430 O.3   500  NAD500     -0.2703
     24  PN        11.6190   16.2820   19.3230 P.3   500  NAD500      0.2189
     25  O1N       10.5940   16.0470   18.1500 O.2   500  NAD500     -0.5170
     26  O2N       12.0300   17.6810   19.3590 O.3   500  NAD500     -0.4371
     27  O5D       10.7360   15.8960   20.6020 O.3   500  NAD500     -0.3112
     28  C5D        9.9290   14.7650   20.2780 C.3   500  NAD500      0.1813
     29  C4D        8.9850   14.4920   21.3990 C.3   500  NAD500      0.1799
     30  O4D        8.3890   13.1380   21.4350 O.3   500  NAD500     -0.3327
     31  C3D       10.0270   14.5560   22.4480 C.3   500  NAD500      0.2158
     32  O3D        9.7000   15.8190   22.9850 O.3   500  NAD500     -0.2175
     33  C2D        9.6610   13.3790   23.3390 C.3   500  NAD500      0.2309
     34  O2D        8.5520   13.8560   24.1250 O.3   500  NAD500     -0.2158
     35  C1D        9.0620   12.2990   22.4580 C.3   500  NAD500      0.2263
     36  N1N        9.6560   11.2070   21.5030 N.pl3 500  NAD500     -0.2787
     37  C2N       10.9810   10.9870   20.9670 C.3   500  NAD500      0.1244
     38  C3N       11.2010    9.8890   20.0640 C.2   500  NAD500      0.0544
     39  C7N       12.5790    9.5590   19.4240 C.2   500  NAD500      0.2818
     40  O7N       12.7190    8.5950   18.6560 O.2   500  NAD500     -0.2670
     41  N7N       13.5760   10.3650   19.7500 N.am  500  NAD500     -0.0839
     42  C4N       10.0850    8.9060   19.6170 C.2   500  NAD500      0.0033
     43  C5N        8.8520    9.1780   20.1820 C.2   500  NAD500      0.0157
     44  C6N        8.6550   10.2730   21.0480 C.2   500  NAD500      0.0633
@<TRIPOS>BOND
     1     3     1    2
     2     9     8    1
     3    25    24    2
     4     2     1    1
     5     1     4    1
     6     1    23    1
     7    40    39    2
     8     4     5    1
     9     8    10    1
    10     8     6    1
    11    23    24    1
    12    11    10    1
    13    24    26    1
    14    24    27    1
    15    39    41   am
    16    39    38    1
    17    42    38    2
    18    42    43    1
    19    10    12    1
    20    38    37    1
    21     6     5    1
    22     6     7    1
    23    43    44    2
    24    28    27    1
    25    28    29    1
    26    37    36    1
    27    44    36    1
    28    12     7    1
    29    12    13    1
    30    29    30    1
    31    29    31    1
    32    30    35    1
    33    36    35    1
    34    13    14    1
    35    13    22    1
    36    31    32    1
    37    31    33    1
    38    35    33    1
    39    14    15    1
    40    21    22    2
    41    21    20    1
    42    22    16    1
    43    33    34    1
    44    15    16    2
    45    20    19    1
    46    16    17    1
    47    19    17    2
    48    17    18    1
