@<TRIPOS>MOLECULE
3ptz_UDX_A_1.pdb
 34 36 0 0 0
SMALL
GASTEIGER

@<TRIPOS>ATOM
      1  C1'        0.1020   16.0100   18.4530 C.3   501  UDX501      0.2742
      2  C2'       -0.9190   16.8490   19.1800 C.3   501  UDX501      0.2409
      3  O2'       -1.8960   17.3150   18.2230 O.3   501  UDX501     -0.2149
      4  C3'       -0.1630   17.9870   19.9080 C.3   501  UDX501      0.2198
      5  O3'       -1.0860   18.7630   20.6290 O.3   501  UDX501     -0.2174
      6  C4'        0.9550   17.3930   20.8190 C.3   501  UDX501      0.2143
      7  O4'        1.7080   18.4030   21.4640 O.3   501  UDX501     -0.2176
      8  C5'        1.9970   16.6840   20.0030 C.3   501  UDX501      0.1803
      9  O5'        1.2940   15.6770   19.2380 O.3   501  UDX501     -0.3255
     10  PB         1.1580   15.9780   16.1750 P.3   501  UDX501      0.2208
     11  O1B        1.4170   14.5380   16.4650 O.3   501  UDX501     -0.4371
     12  O2B        2.3750   16.8580   15.6640 O.2   501  UDX501     -0.5170
     13  O3B        0.4980   16.7950   17.3220 O.3   501  UDX501     -0.2857
     14  O3A        0.2240   16.1430   14.8270 O.3   501  UDX501     -0.2703
     15  PA        -1.3610   16.0110   14.8420 P.3   501  UDX501      0.2189
     16  O1A       -2.0620   17.1040   14.0930 O.2   501  UDX501     -0.5170
     17  O2A       -1.9010   15.7510   16.2850 O.3   501  UDX501     -0.4371
     18  O5D       -1.6950   14.6190   14.0880 O.3   501  UDX501     -0.3112
     19  C5D       -1.1450   13.4080   14.5920 C.3   501  UDX501      0.1813
     20  C4D       -1.4850   12.2030   13.7260 C.3   501  UDX501      0.1799
     21  O4D       -2.9690   11.9700   13.7420 O.3   501  UDX501     -0.3320
     22  C3D       -1.1180   12.5450   12.3070 C.3   501  UDX501      0.2158
     23  O3D       -0.7680   11.3270   11.6370 O.3   501  UDX501     -0.2175
     24  C2D       -2.4740   13.0890   11.7830 C.3   501  UDX501      0.2319
     25  O2D       -2.5700   13.0470   10.3740 O.3   501  UDX501     -0.2157
     26  C1D       -3.4400   12.0790   12.3700 C.3   501  UDX501      0.2401
     27  N1        -4.8060   12.6530   12.3890 N.am  501  UDX501     -0.1766
     28  C6        -4.9790   13.9000   13.0470 C.2   501  UDX501      0.0929
     29  C2        -5.8930   11.9590   11.7900 C.1   501  UDX501      0.2845
     30  O2        -5.7580   10.8590   11.2250 O.2   501  UDX501     -0.1918
     31  N3        -7.1710   12.5200   11.8540 N.2   501  UDX501     -0.2452
     32  C4        -7.3170   13.7470   12.4850 C.1   501  UDX501      0.2182
     33  O4        -8.4460   14.2350   12.5410 O.2   501  UDX501     -0.2085
     34  C5        -6.2280   14.4280   13.0820 C.2   501  UDX501      0.1242
@<TRIPOS>BOND
     1    25    24    1
     2    30    29    2
     3    23    22    1
     4    24    22    1
     5    24    26    1
     6    29    31    2
     7    29    27   am
     8    31    32    2
     9    22    20    1
    10    26    27    1
    11    26    21    1
    12    27    28    1
    13    32    33    2
    14    32    34    1
    15    28    34    2
    16    20    21    1
    17    20    19    1
    18    18    19    1
    19    18    15    1
    20    16    15    2
    21    14    15    1
    22    14    10    1
    23    15    17    1
    24    12    10    2
    25    10    11    1
    26    10    13    1
    27    13     1    1
    28     3     2    1
    29     1     2    1
    30     1     9    1
    31     2     4    1
    32     9     8    1
    33     4     5    1
    34     4     6    1
    35     8     6    1
    36     6     7    1
