@<TRIPOS>MOLECULE
3pu3_OGA_A_1.pdb
 10 9 0 0 0
SMALL
GASTEIGER

@<TRIPOS>ATOM
      1  C1        50.7720    5.3640    6.4920 C.2     1  OGA1        0.4419
      2  C2        50.0140    6.6390    6.2370 C.2     1  OGA1        0.3455
      3  C4        48.7060    8.5670    7.2390 C.3     1  OGA1        0.2290
      4  C5        48.5030    9.1650    8.5760 C.2     1  OGA1        0.3866
      5  O1        50.1200    4.3270    6.7780 O.co2   1  OGA1       -0.2354
      6  O2        52.0380    5.3540    6.5680 O.co2   1  OGA1       -0.2354
      7  O2'       49.5740    6.8780    5.1100 O.2     1  OGA1       -0.2611
      8  O3        47.4120    8.9920    9.1530 O.co2   1  OGA1       -0.2437
      9  N1        49.4640    7.3370    7.3890 N.am    1  OGA1       -0.1838
     10  O4        49.4300    9.7830    9.1620 O.co2   1  OGA1       -0.2437
@<TRIPOS>BOND
     1     7     2    2
     2     2     1    1
     3     2     9   am
     4     1     6   ar
     5     1     5   ar
     6     3     9    1
     7     3     4    1
     8     4     8   ar
     9     4    10   ar
