@<TRIPOS>MOLECULE
3pu8_OGA_A_1.pdb
 10 9 0 0 0
SMALL
GASTEIGER

@<TRIPOS>ATOM
      1  C1       -15.7420    2.0350  -28.9910 C.2     2  OGA2        0.4419
      2  C2       -15.3820    3.3970  -29.5260 C.2     2  OGA2        0.3455
      3  C4       -15.4690    5.0990  -31.3250 C.3     2  OGA2        0.2290
      4  C5       -15.6850    5.0870  -32.8080 C.2     2  OGA2        0.3866
      5  O1       -16.3190    1.2030  -29.7290 O.co2   2  OGA2       -0.2354
      6  O2       -15.6160    1.7440  -27.7390 O.co2   2  OGA2       -0.2354
      7  O2'      -14.7540    4.2250  -28.8450 O.2     2  OGA2       -0.2611
      8  O3       -15.1150    5.9230  -33.5470 O.co2   2  OGA2       -0.2437
      9  N1       -15.7570    3.7730  -30.8490 N.am    2  OGA2       -0.1838
     10  O4       -16.2420    4.0540  -33.3310 O.co2   2  OGA2       -0.2437
@<TRIPOS>BOND
     1     8     4   ar
     2    10     4   ar
     3     4     3    1
     4     3     9    1
     5     9     2   am
     6     5     1   ar
     7     2     1    1
     8     2     7    2
     9     1     6   ar
