@<TRIPOS>MOLECULE
3pua_OGA_A_1.pdb
 10 9 0 0 0
SMALL
GASTEIGER

@<TRIPOS>ATOM
      1  C1        25.7010   16.7920   18.0380 C.2   454  OGA454      0.4419
      2  C2        26.8620   17.1870   18.8880 C.2   454  OGA454      0.3455
      3  C4        28.0090   17.2470   21.0800 C.3   454  OGA454      0.2290
      4  C5        27.6630   17.0700   22.5300 C.2   454  OGA454      0.3866
      5  O1        24.7220   16.2310   18.5960 O.co2 454  OGA454     -0.2354
      6  O2        25.6960   16.9950   16.7800 O.co2 454  OGA454     -0.2354
      7  O2'       27.8180   17.7870   18.4180 O.2   454  OGA454     -0.2611
      8  O3        28.4340   17.4960   23.4340 O.co2 454  OGA454     -0.2437
      9  N1        26.9290   16.7760   20.2580 N.am  454  OGA454     -0.1838
     10  O4        26.6220   16.4440   22.8510 O.co2 454  OGA454     -0.2437
@<TRIPOS>BOND
     1     6     1   ar
     2     1     5   ar
     3     1     2    1
     4     7     2    2
     5     2     9   am
     6     9     3    1
     7     3     4    1
     8     4    10   ar
     9     4     8   ar
