@<TRIPOS>MOLECULE
3pue_LYS_B_1.pdb
 10 9 0 0 0
SMALL
GASTEIGER

@<TRIPOS>ATOM
      1  N         39.7690  -33.6670  -14.1610 N.3   292  LYS292     -0.1208
      2  CA        41.1130  -33.8010  -13.5980 C.3   292  LYS292      0.1943
      3  C         41.8800  -34.8690  -14.3910 C.2   292  LYS292      0.3819
      4  O         42.6240  -34.5390  -15.3670 O.co2 292  LYS292     -0.2441
      5  CB        41.0300  -34.1170  -12.0780 C.3   292  LYS292      0.0307
      6  CG        42.2690  -33.5840  -11.2520 C.3   292  LYS292      0.0036
      7  CD        41.9390  -32.5650  -10.1910 C.3   292  LYS292      0.0206
      8  CE        41.3800  -33.1040   -8.8340 C.3   292  LYS292      0.1093
      9  NZ        41.8750  -32.2850   -7.6670 N.3   292  LYS292     -0.1314
     10  OXT       41.7680  -36.0760  -14.0880 O.co2 292  LYS292     -0.2441
@<TRIPOS>BOND
     1     4     3   ar
     2     3    10   ar
     3     3     2    1
     4     1     2    1
     5     2     5    1
     6     5     6    1
     7     6     7    1
     8     7     8    1
     9     8     9    1
