@<TRIPOS>MOLECULE
3pul_LYS_B_1.pdb
 10 9 0 0 0
SMALL
GASTEIGER

@<TRIPOS>ATOM
      1  N         42.3420   34.3720   -5.7690 N.3   292  LYS292     -0.1208
      2  CA        41.7870   34.4460   -7.0720 C.3   292  LYS292      0.1943
      3  C         40.4240   33.7380   -7.0780 C.2   292  LYS292      0.3819
      4  O         39.8840   33.1930   -6.1130 O.co2 292  LYS292     -0.2441
      5  CB        42.7510   33.8060   -8.1420 C.3   292  LYS292      0.0307
      6  CG        42.3480   32.7190   -9.1920 C.3   292  LYS292      0.0036
      7  CD        42.8660   32.9490  -10.6080 C.3   292  LYS292      0.0206
      8  CE        41.8580   32.5470  -11.7280 C.3   292  LYS292      0.1093
      9  NZ        42.4650   32.2570  -13.0430 N.3   292  LYS292     -0.1314
     10  OXT       39.7410   33.6500   -8.0760 O.co2 292  LYS292     -0.2441
@<TRIPOS>BOND
     1     9     8    1
     2     8     7    1
     3     7     6    1
     4     6     5    1
     5     5     2    1
     6    10     3   ar
     7     3     2    1
     8     3     4   ar
     9     2     1    1
