@<TRIPOS>MOLECULE
3pun_FUC_A_1.pdb
 10 10 0 0 0
SMALL
GASTEIGER

@<TRIPOS>ATOM
      1  C1       -24.3990    2.8230  -43.2140 C.3     4  FUC4        0.1776
      2  C2       -23.5220    1.9380  -42.3320 C.3     4  FUC4        0.2141
      3  C3       -22.4920    1.1970  -43.1710 C.3     4  FUC4        0.2172
      4  C4       -21.6700    2.1650  -44.0220 C.3     4  FUC4        0.2116
      5  C5       -22.5970    3.0450  -44.8520 C.3     4  FUC4        0.1483
      6  C6       -21.7910    4.0940  -45.6180 C.3     4  FUC4        0.0349
      7  O2       -24.3300    0.9870  -41.6290 O.3     4  FUC4       -0.2176
      8  O3       -21.6290    0.4240  -42.3250 O.3     4  FUC4       -0.2175
      9  O4       -20.8040    2.9780  -43.2100 O.3     4  FUC4       -0.2177
     10  O5       -23.5860    3.6850  -44.0300 O.3     4  FUC4       -0.3508
@<TRIPOS>BOND
     1     6     5    1
     2     5    10    1
     3     5     4    1
     4    10     1    1
     5     4     9    1
     6     4     3    1
     7     1     2    1
     8     3     2    1
     9     3     8    1
    10     2     7    1
