@<TRIPOS>MOLECULE
3pun_NDG_A_1.pdb
 15 15 0 0 0
SMALL
GASTEIGER

@<TRIPOS>ATOM
      1  C1       -29.0360    2.4920  -44.1400 C.3     3  NDG3        0.2917
      2  C2       -27.6860    2.1080  -43.5450 C.3     3  NDG3        0.1871
      3  C3       -26.5090    2.5850  -44.3860 C.3     3  NDG3        0.2095
      4  C4       -26.7500    2.2000  -45.8440 C.3     3  NDG3        0.2136
      5  C5       -28.0960    2.7170  -46.3410 C.3     3  NDG3        0.1835
      6  C6       -28.3620    2.3260  -47.7900 C.3     3  NDG3        0.2142
      7  C7       -27.5160    1.9350  -41.1420 C.2     3  NDG3        0.2421
      8  C8       -27.2310    2.5030  -39.9780 C.3     3  NDG3        0.0964
      9  O        -29.1660    2.2160  -45.5370 O.3     3  NDG3       -0.3242
     10  O3       -25.2750    1.9830  -43.9760 O.3     3  NDG3       -0.2183
     11  O4       -25.6680    2.7150  -46.6220 O.3     3  NDG3       -0.2176
     12  O6       -28.2280    0.9070  -47.9120 O.3     3  NDG3       -0.2176
     13  O7       -27.6560    0.7230  -41.2030 O.2     3  NDG3       -0.2733
     14  N2       -27.6490    2.6940  -42.2220 N.am    3  NDG3       -0.1991
     15  O1L      -29.2680    3.8890  -43.9270 O.3     3  NDG3       -0.1879
@<TRIPOS>BOND
     1    12     6    1
     2     6     5    1
     3    11     4    1
     4     5     4    1
     5     5     9    1
     6     4     3    1
     7     9     1    1
     8     3    10    1
     9     3     2    1
    10     1    15    1
    11     1     2    1
    12     2    14    1
    13    14     7   am
    14    13     7    2
    15     7     8    1
