@<TRIPOS>MOLECULE
3puo_LYS_A_1.pdb
 10 9 0 0 0
SMALL
GASTEIGER

@<TRIPOS>ATOM
      1  N         27.8270    5.1850   -7.9490 N.3   293  LYS293     -0.1208
      2  CA        27.2520    5.3240   -6.5830 C.3   293  LYS293      0.1943
      3  C         28.3310    5.7660   -5.5950 C.2   293  LYS293      0.3819
      4  O         28.4770    5.1240   -4.5330 O.co2 293  LYS293     -0.2441
      5  CB        26.6470    3.9900   -6.1360 C.3   293  LYS293      0.0307
      6  CG        25.5990    4.1190   -5.0440 C.3   293  LYS293      0.0036
      7  CD        25.3640    2.7860   -4.3600 C.3   293  LYS293      0.0206
      8  CE        25.8390    2.8360   -2.9180 C.3   293  LYS293      0.1093
      9  NZ        25.9380    1.4790   -2.3150 N.3   293  LYS293     -0.1314
     10  OXT       29.0200    6.7630   -5.8960 O.co2 293  LYS293     -0.2441
@<TRIPOS>BOND
     1     1     2    1
     2     2     5    1
     3     2     3    1
     4     5     6    1
     5    10     3   ar
     6     3     4   ar
     7     6     7    1
     8     7     8    1
     9     8     9    1
