@<TRIPOS>MOLECULE
3pup_OS1_A_1.pdb
 35 42 0 0 0
SMALL
GASTEIGER

@<TRIPOS>ATOM
      1  C1        21.8620  -17.3870   -8.0250 C.ar  421  OS1421      0.0000
      2  C2        20.7340  -18.1060   -7.5560 C.ar  421  OS1421      0.0000
      3  C3        21.1470  -18.7670   -6.3710 C.1   421  OS1421      0.0000
      4  O4        20.6440  -19.5140   -5.5080 O.2   421  OS1421      0.0000
      5  N5        22.4310  -18.4380   -6.1690 N.2   421  OS1421      0.0000
      6  C6        22.9000  -17.6180   -7.1270 C.1   421  OS1421      0.0000
      7  O7        24.0750  -17.1840   -7.1310 O.2   421  OS1421      0.0000
      8  C8        19.5170  -18.0290   -8.2660 C.ar  421  OS1421      0.0000
      9  C9        19.5020  -17.2140   -9.4250 C.ar  421  OS1421      0.0000
     10  C10       20.6360  -16.5300   -9.8830 C.ar  421  OS1421      0.0000
     11  C11       21.8450  -16.5970   -9.1920 C.ar  421  OS1421      0.0000
     12  C12       22.7230  -15.7820   -9.9380 C.2   421  OS1421      0.0000
     13  C13       21.9710  -15.2910  -11.0300 C.3   421  OS1421      0.0000
     14  N14       20.7570  -15.7840  -10.9670 N.pl3 421  OS1421      0.0000
     15 RU15       18.8820  -15.7190  -11.7610 Ru    421  OS1421      0.0000
     16 CL16       16.5740  -15.5010  -12.3400 Cl    421  OS1421      0.0000
     17  C17       19.0400  -17.0940  -12.9160 C.3   421  OS1421      0.0000
     18  O18       19.0810  -17.9860  -13.6160 O.3   421  OS1421      0.0000
     19  N19       18.3770  -17.0580  -10.2440 N.pl3 421  OS1421      0.0000
     20  C20       17.2090  -17.6690   -9.8790 C.2   421  OS1421      0.0000
     21  C21       17.1670  -18.4880   -8.7250 C.2   421  OS1421      0.0000
     22  N22       16.0150  -19.1910   -8.2930 N.pl3 421  OS1421      0.0000
     23  C23       18.3140  -18.6680   -7.9200 C.2   421  OS1421      0.0000
     24  N24       18.5980  -14.0600  -10.4400 N.3   421  OS1421      0.0000
     25  C25       19.6270  -13.0910  -10.8390 C.3   421  OS1421      0.0000
     26  C26       19.5450  -13.0460  -12.3330 C.3   421  OS1421      0.0000
     27  N27       19.2820  -14.1650  -13.0390 N.pl3 421  OS1421      0.0000
     28  C28       19.1880  -14.0150  -14.3430 C.2   421  OS1421      0.0000
     29  C29       19.3620  -12.8470  -15.0150 C.2   421  OS1421      0.0000
     30  C30       19.6330  -11.7240  -14.2930 C.2   421  OS1421      0.0000
     31  C31       19.7280  -11.8460  -12.9490 C.2   421  OS1421      0.0000
     32  C32       22.5490  -14.4320  -11.9850 C.2   421  OS1421      0.0000
     33  C33       23.9130  -14.0800  -11.8120 C.2   421  OS1421      0.0000
     34  C34       24.6860  -14.5840  -10.7260 C.2   421  OS1421      0.0000
     35  C35       24.0820  -15.4300   -9.7800 C.2   421  OS1421      0.0000
@<TRIPOS>BOND
     1    29    28    2
     2    29    30    1
     3    28    27    1
     4    30    31    2
     5    18    17    1
     6    27    26    1
     7    27    15    1
     8    31    26    1
     9    17    15    1
    10    16    15    1
    11    26    25    1
    12    32    33    2
    13    32    13    1
    14    33    34    1
    15    15    14    1
    16    15    24    1
    17    15    19    1
    18    13    14    1
    19    13    12    1
    20    14    10    1
    21    25    24    1
    22    34    35    2
    23    19    20    1
    24    19     9    1
    25    12    35    1
    26    12    11    2
    27    10     9   ar
    28    10    11   ar
    29    20    21    2
    30     9     8   ar
    31    11     1   ar
    32    21    22    1
    33    21    23    1
    34     8    23    2
    35     8     2   ar
    36     1     2   ar
    37     1     6    1
    38     2     3    1
    39     7     6    2
    40     6     5    2
    41     3     5    2
    42     3     4    2
