@<TRIPOS>MOLECULE
3puq_AKG_A_1.pdb
 10 9 0 0 0
SMALL
GASTEIGER

@<TRIPOS>ATOM
      1  C1        31.4830    3.1900   47.0560 C.2     4  AKG4        0.4261
      2  O1        32.4550    2.4790   46.6700 O.co2   4  AKG4       -0.2369
      3  O2        30.9380    3.9490   46.2130 O.co2   4  AKG4       -0.2369
      4  C2        31.3090    3.5160   48.5050 C.2     4  AKG4        0.2749
      5  O5        31.8170    2.8070   49.3620 O.2     4  AKG4       -0.2795
      6  C3        30.2940    4.5490   48.8940 C.2     4  AKG4        0.0558
      7  C4        28.8720    4.1040   49.0060 C.2     4  AKG4        0.0896
      8  C5        27.8600    5.0720   49.5480 C.2     4  AKG4        0.3881
      9  O3        26.6680    4.7000   49.7410 O.co2   4  AKG4       -0.2405
     10  O4        28.1940    6.2580   49.8320 O.co2   4  AKG4       -0.2405
@<TRIPOS>BOND
     1     3     1   ar
     2     2     1   ar
     3     1     4    1
     4     4     6    1
     5     4     5    2
     6     6     7    2
     7     7     8    1
     8     8     9   ar
     9     8    10   ar
