@<TRIPOS>MOLECULE
3pur_2HG_A_1.pdb
 10 9 0 0 0
SMALL
GASTEIGER

@<TRIPOS>ATOM
      1  C1        -5.1290  -12.9240   -4.8190 C.2   1000  2HG1000     0.3946
      2  O1        -4.9610  -14.0130   -5.4560 O.co2 1000  2HG1000    -0.2428
      3  C2        -5.9250  -11.8370   -5.4730 C.3   1000  2HG1000     0.2542
      4  O2        -4.4230  -12.6540   -3.7920 O.co2 1000  2HG1000    -0.2428
      5  C3        -6.7310  -12.3610   -6.6240 C.3   1000  2HG1000     0.0528
      6  O3        -6.7080  -11.2360   -4.5160 O.3   1000  2HG1000    -0.2109
      7  C4        -7.8630  -13.3270   -6.4260 C.3   1000  2HG1000     0.1030
      8  O4        -8.4740  -12.9340   -8.7440 O.2   1000  2HG1000    -0.2671
      9  C5        -8.8880  -13.4050   -7.5200 C.3   1000  2HG1000     0.4260
     10  O5        -9.6060  -14.5770   -7.6260 O.2   1000  2HG1000    -0.2671
@<TRIPOS>BOND
     1     8     9    1
     2    10     9    1
     3     9     7    1
     4     5     7    1
     5     5     3    1
     6     3     1    1
     7     3     6    1
     8     2     1   ar
     9     1     4   ar
