@<TRIPOS>MOLECULE
3pus_OGA_A_1.pdb
 10 9 0 0 0
SMALL
GASTEIGER

@<TRIPOS>ATOM
      1  C1       -16.0160   -6.4760    7.5580 C.2   453  OGA453      0.4419
      2  C2       -15.7230   -7.8260    8.1480 C.2   453  OGA453      0.3455
      3  C4       -15.9130   -9.4000   10.0250 C.3   453  OGA453      0.2290
      4  C5       -15.8930   -9.2880   11.5050 C.2   453  OGA453      0.3866
      5  O1       -16.6380   -5.6130    8.2330 O.co2 453  OGA453     -0.2354
      6  O2       -15.8290   -6.2430    6.3350 O.co2 453  OGA453     -0.2354
      7  O2'      -15.0240   -8.6670    7.5880 O.2   453  OGA453     -0.2611
      8  O3       -15.1300  -10.0310   12.1630 O.co2 453  OGA453     -0.2437
      9  N1       -16.1030   -8.0870    9.4960 N.am  453  OGA453     -0.1838
     10  O4       -16.5660   -8.3870   12.0810 O.co2 453  OGA453     -0.2437
@<TRIPOS>BOND
     1     6     1   ar
     2     1     2    1
     3     1     5   ar
     4     7     2    2
     5     2     9   am
     6     9     3    1
     7     3     4    1
     8     4    10   ar
     9     4     8   ar
