@<TRIPOS>MOLECULE
3puv_ADP_A_1.pdb
 27 29 0 0 0
SMALL
GASTEIGER

@<TRIPOS>ATOM
      1  PB       -18.1520    0.3430    9.4360 P.3   2501  ADP2501     0.5373
      2  O1B      -18.3420   -1.0570    8.8980 O.3   2501  ADP2501    -0.1143
      3  O2B      -17.3790    0.4150   10.7310 O.3   2501  ADP2501    -0.1143
      4  O3B      -17.6960    1.3240    8.3860 O.2   2501  ADP2501    -0.2221
      5  PA       -20.1380    1.2240   11.2780 P.3   2501  ADP2501     0.2231
      6  O1A      -19.5180    2.5330   11.6890 O.2   2501  ADP2501    -0.5169
      7  O2A      -19.9730    0.0280   12.1810 O.3   2501  ADP2501    -0.4370
      8  O3A      -19.6440    0.8420    9.7920 O.3   2501  ADP2501    -0.2261
      9  O5'      -21.7150    1.4640   11.0630 O.3   2501  ADP2501    -0.3111
     10  C5'      -22.5150    0.4350   10.4760 C.3   2501  ADP2501     0.1813
     11  C4'      -23.7810    1.0080    9.8490 C.3   2501  ADP2501     0.1821
     12  O4'      -24.6510    1.5000   10.8680 O.3   2501  ADP2501    -0.3135
     13  C3'      -23.5000    2.1590    8.8940 C.3   2501  ADP2501     0.2184
     14  O3'      -24.1320    1.8640    7.6430 O.3   2501  ADP2501    -0.2174
     15  C2'      -24.1070    3.3860    9.5540 C.3   2501  ADP2501     0.2570
     16  O2'      -24.7700    4.2430    8.6200 O.3   2501  ADP2501    -0.2130
     17  C1'      -25.0970    2.8220   10.5600 C.3   2501  ADP2501     0.3186
     18  N9       -25.1540    3.6470   11.7970 N.pl3 2501  ADP2501    -0.1439
     19  C8       -24.1160    3.9900   12.5840 C.3   2501  ADP2501     0.3377
     20  N7       -24.5700    4.7430   13.6140 N.2   2501  ADP2501    -0.2095
     21  C5       -25.9040    4.8640   13.4640 C.2   2501  ADP2501     0.2526
     22  C6       -26.8890    5.5090   14.2010 C.2   2501  ADP2501     0.4393
     23  N6       -26.5490    6.1930   15.3250 N.pl3 2501  ADP2501     0.2180
     24  N1       -28.1810    5.4460   13.7790 N.2   2501  ADP2501     0.0021
     25  C2       -28.5120    4.7680   12.6650 C.3   2501  ADP2501     0.5254
     26  N3       -27.5770    4.1340   11.9350 N.2   2501  ADP2501    -0.0055
     27  C4       -26.2700    4.1700   12.3180 C.2   2501  ADP2501     0.3518
@<TRIPOS>BOND
     1    14    13    1
     2     4     1    2
     3    16    15    1
     4    13    15    1
     5    13    11    1
     6     2     1    1
     7     1     8    1
     8     1     3    1
     9    15    17    1
    10     8     5    1
    11    11    10    1
    12    11    12    1
    13    10     9    1
    14    17    12    1
    15    17    18    1
    16     9     5    1
    17     5     6    2
    18     5     7    1
    19    18    27    1
    20    18    19    1
    21    26    27    2
    22    26    25    1
    23    27    21    1
    24    19    20    1
    25    25    24    1
    26    21    20    2
    27    21    22    1
    28    24    22    2
    29    22    23    1
