@<TRIPOS>MOLECULE
3puv_MAL_F_1.pdb
 23 24 0 0 0
SMALL
GASTEIGER

@<TRIPOS>ATOM
      1  C1       -32.6930   40.4180   33.9220 C.3   2000  MAL2000     0.2695
      2  C2       -32.7320   41.6750   34.7980 C.3   2000  MAL2000     0.2406
      3  C3       -34.1460   42.2530   34.8990 C.3   2000  MAL2000     0.2198
      4  C4       -34.8130   42.3970   33.5300 C.3   2000  MAL2000     0.2144
      5  C5       -34.6520   41.1320   32.6830 C.3   2000  MAL2000     0.1835
      6  C6       -35.1400   41.3610   31.2580 C.3   2000  MAL2000     0.2142
      7  O1       -33.3990   39.3570   34.5760 O.3   2000  MAL2000    -0.3257
      8  O2       -32.2450   41.3730   36.1110 O.3   2000  MAL2000    -0.2149
      9  O3       -34.0940   43.5370   35.5280 O.3   2000  MAL2000    -0.2174
     10  O4       -36.2050   42.6930   33.7140 O.3   2000  MAL2000    -0.2176
     11  O5       -33.2810   40.7020   32.6440 O.3   2000  MAL2000    -0.3256
     12  O6       -35.3230   40.0970   30.6060 O.3   2000  MAL2000    -0.2176
     13  C1'      -32.6370   35.3070   35.4900 C.3   2000  MAL2000     0.3023
     14  C2'      -31.6390   36.3530   36.0020 C.3   2000  MAL2000     0.2433
     15  C3'      -32.2510   37.7530   35.9770 C.3   2000  MAL2000     0.2168
     16  C4'      -32.7490   38.0880   34.5730 C.3   2000  MAL2000     0.1804
     17  C5'      -33.7550   37.0220   34.1390 C.3   2000  MAL2000     0.1804
     18  C6'      -34.2150   37.2590   32.7050 C.3   2000  MAL2000     0.2141
     19  O1'      -33.6820   35.0840   36.4440 O.3   2000  MAL2000    -0.1869
     20  O2'      -31.2160   36.0350   37.3340 O.3   2000  MAL2000    -0.2148
     21  O3'      -31.2910   38.7200   36.4230 O.3   2000  MAL2000    -0.2175
     22  O5'      -33.2030   35.6990   34.2290 O.3   2000  MAL2000    -0.3237
     23  O6'      -34.9200   36.1030   32.2490 O.3   2000  MAL2000    -0.2176
@<TRIPOS>BOND
     1    12     6    1
     2     6     5    1
     3    23    18    1
     4    11     5    1
     5    11     1    1
     6     5     4    1
     7    18    17    1
     8     4    10    1
     9     4     3    1
    10     1     7    1
    11     1     2    1
    12    17    22    1
    13    17    16    1
    14    22    13    1
    15    16     7    1
    16    16    15    1
    17     2     3    1
    18     2     8    1
    19     3     9    1
    20    13    14    1
    21    13    19    1
    22    15    14    1
    23    15    21    1
    24    14    20    1
