@<TRIPOS>MOLECULE
3puw_MAL_F_1.pdb
 23 24 0 0 0
SMALL
GASTEIGER

@<TRIPOS>ATOM
      1  C1        -2.1850  133.0640   34.0030 C.3   2000  MAL2000     0.2695
      2  C2        -2.2090  134.3270   34.8690 C.3   2000  MAL2000     0.2406
      3  C3        -3.6380  134.8280   35.0500 C.3   2000  MAL2000     0.2198
      4  C4        -4.3060  135.0460   33.6940 C.3   2000  MAL2000     0.2144
      5  C5        -4.1620  133.8010   32.8090 C.3   2000  MAL2000     0.1835
      6  C6        -4.6620  134.0330   31.3890 C.3   2000  MAL2000     0.2142
      7  O1        -2.8760  132.0010   34.6720 O.3   2000  MAL2000    -0.3257
      8  O2        -1.6230  134.0760   36.1460 O.3   2000  MAL2000    -0.2149
      9  O3        -3.6290  136.0450   35.8010 O.3   2000  MAL2000    -0.2174
     10  O4        -5.6880  135.3550   33.9050 O.3   2000  MAL2000    -0.2176
     11  O5        -2.7970  133.3610   32.7390 O.3   2000  MAL2000    -0.3256
     12  O6        -4.9590  132.7630   30.7940 O.3   2000  MAL2000    -0.2176
     13  C1'       -2.1890  128.0170   35.7870 C.3   2000  MAL2000     0.3023
     14  C2'       -1.0690  129.0140   36.1010 C.3   2000  MAL2000     0.2433
     15  C3'       -1.5690  130.4550   36.0020 C.3   2000  MAL2000     0.2168
     16  C4'       -2.2200  130.7310   34.6470 C.3   2000  MAL2000     0.1804
     17  C5'       -3.2660  129.6650   34.3140 C.3   2000  MAL2000     0.1804
     18  C6'       -3.6620  129.7870   32.8490 C.3   2000  MAL2000     0.2141
     19  O1'       -3.1870  128.0330   36.8120 O.3   2000  MAL2000    -0.1869
     20  O2'       -0.5570  128.7860   37.4210 O.3   2000  MAL2000    -0.2148
     21  O3'       -0.4750  131.3550   36.2120 O.3   2000  MAL2000    -0.2175
     22  O5'       -2.8040  128.3200   34.5300 O.3   2000  MAL2000    -0.3237
     23  O6'       -4.6270  128.7770   32.5500 O.3   2000  MAL2000    -0.2176
@<TRIPOS>BOND
     1    12     6    1
     2     6     5    1
     3    23    18    1
     4    11     5    1
     5    11     1    1
     6     5     4    1
     7    18    17    1
     8     4    10    1
     9     4     3    1
    10     1     7    1
    11     1     2    1
    12    17    22    1
    13    17    16    1
    14    22    13    1
    15    16     7    1
    16    16    15    1
    17     2     3    1
    18     2     8    1
    19     3     9    1
    20    13    14    1
    21    13    19    1
    22    15    14    1
    23    15    21    1
    24    14    20    1
