@<TRIPOS>MOLECULE
3puw_ADP_A_1.pdb
 27 29 0 0 0
SMALL
GASTEIGER

@<TRIPOS>ATOM
      1  PB        12.5230   93.3080    9.6370 P.3   2501  ADP2501     0.5373
      2  O1B       12.4240   91.8910    9.1190 O.3   2501  ADP2501    -0.1143
      3  O2B       13.3850   93.4320   10.8730 O.3   2501  ADP2501    -0.1143
      4  O3B       12.8120   94.3190    8.5580 O.2   2501  ADP2501    -0.2221
      5  PA        10.5410   94.0790   11.5840 P.3   2501  ADP2501     0.2231
      6  O1A       11.2130   95.3480   12.0230 O.2   2501  ADP2501    -0.5169
      7  O2A       10.6590   92.8640   12.4670 O.3   2501  ADP2501    -0.4370
      8  O3A       11.0100   93.6720   10.0910 O.3   2501  ADP2501    -0.2261
      9  O5'        8.9700   94.3700   11.3790 O.3   2501  ADP2501    -0.3111
     10  C5'        8.1270   93.3270   10.8850 C.3   2501  ADP2501     0.1813
     11  C4'        6.8180   93.8670   10.3260 C.3   2501  ADP2501     0.1821
     12  O4'        6.0450   94.4250   11.3870 O.3   2501  ADP2501    -0.3135
     13  C3'        7.0020   94.9660    9.2920 C.3   2501  ADP2501     0.2184
     14  O3'        6.2110   94.6350    8.1430 O.3   2501  ADP2501    -0.2174
     15  C2'        6.4950   96.2350    9.9550 C.3   2501  ADP2501     0.2570
     16  O2'        5.7950   97.0750    9.0340 O.3   2501  ADP2501    -0.2130
     17  C1'        5.5620   95.7220   11.0390 C.3   2501  ADP2501     0.3186
     18  N9         5.5390   96.5680   12.2640 N.pl3 2501  ADP2501    -0.1439
     19  C8         6.5900   96.9230   13.0260 C.3   2501  ADP2501     0.3377
     20  N7         6.1540   97.6800   14.0600 N.2   2501  ADP2501    -0.2095
     21  C5         4.8180   97.7900   13.9360 C.2   2501  ADP2501     0.2526
     22  C6         3.8420   98.4280   14.6860 C.2   2501  ADP2501     0.4393
     23  N6         4.1940   99.1280   15.7950 N.pl3 2501  ADP2501     0.2180
     24  N1         2.5410   98.3490   14.2910 N.2   2501  ADP2501     0.0021
     25  C2         2.1900   97.6600   13.1910 C.3   2501  ADP2501     0.5254
     26  N3         3.1180   97.0280   12.4520 N.2   2501  ADP2501    -0.0055
     27  C4         4.4330   97.0840   12.8050 C.2   2501  ADP2501     0.3518
@<TRIPOS>BOND
     1    14    13    1
     2     4     1    2
     3    16    15    1
     4     2     1    1
     5    13    15    1
     6    13    11    1
     7     1     8    1
     8     1     3    1
     9    15    17    1
    10     8     5    1
    11    11    10    1
    12    11    12    1
    13    10     9    1
    14    17    12    1
    15    17    18    1
    16     9     5    1
    17     5     6    2
    18     5     7    1
    19    18    27    1
    20    18    19    1
    21    26    27    2
    22    26    25    1
    23    27    21    1
    24    19    20    1
    25    25    24    1
    26    21    20    2
    27    21    22    1
    28    24    22    2
    29    22    23    1
