@<TRIPOS>MOLECULE
3pux_MAL_F_1.pdb
 23 24 0 0 0
SMALL
GASTEIGER

@<TRIPOS>ATOM
      1  C1       -32.6880   38.6040   35.4000 C.3   2000  MAL2000     0.2695
      2  C2       -32.7020   39.8170   36.3380 C.3   2000  MAL2000     0.2406
      3  C3       -34.1040   40.4050   36.4260 C.3   2000  MAL2000     0.2198
      4  C4       -34.6790   40.6720   35.0330 C.3   2000  MAL2000     0.2144
      5  C5       -34.5540   39.4180   34.1590 C.3   2000  MAL2000     0.1835
      6  C6       -35.0560   39.5940   32.7350 C.3   2000  MAL2000     0.2142
      7  O1       -33.4630   37.5670   36.0130 O.3   2000  MAL2000    -0.3257
      8  O2       -32.2940   39.4070   37.6440 O.3   2000  MAL2000    -0.2149
      9  O3       -34.0750   41.6050   37.2120 O.3   2000  MAL2000    -0.2174
     10  O4       -36.0480   41.0670   35.1720 O.3   2000  MAL2000    -0.2176
     11  O5       -33.1920   38.9650   34.0980 O.3   2000  MAL2000    -0.3256
     12  O6       -35.3710   38.2800   32.2400 O.3   2000  MAL2000    -0.2176
     13  C1'      -32.8580   33.5120   37.0420 C.3   2000  MAL2000     0.3023
     14  C2'      -31.7820   34.5210   37.4790 C.3   2000  MAL2000     0.2433
     15  C3'      -32.2620   35.9640   37.3690 C.3   2000  MAL2000     0.2168
     16  C4'      -32.8390   36.2830   35.9950 C.3   2000  MAL2000     0.1804
     17  C5'      -33.9000   35.2700   35.5760 C.3   2000  MAL2000     0.1804
     18  C6'      -34.0410   35.4550   34.0650 C.3   2000  MAL2000     0.2141
     19  O1'      -33.7970   33.2570   38.0920 O.3   2000  MAL2000    -0.1869
     20  O2'      -31.3550   34.3290   38.8400 O.3   2000  MAL2000    -0.2148
     21  O3'      -31.1290   36.8090   37.6120 O.3   2000  MAL2000    -0.2175
     22  O5'      -33.5580   33.8980   35.8350 O.3   2000  MAL2000    -0.3237
     23  O6'      -34.8870   34.4580   33.4940 O.3   2000  MAL2000    -0.2176
@<TRIPOS>BOND
     1    12     6    1
     2     6     5    1
     3    23    18    1
     4    18    17    1
     5    11     5    1
     6    11     1    1
     7     5     4    1
     8     4    10    1
     9     4     3    1
    10     1     7    1
    11     1     2    1
    12    17    22    1
    13    17    16    1
    14    22    13    1
    15    16     7    1
    16    16    15    1
    17     2     3    1
    18     2     8    1
    19     3     9    1
    20    13    14    1
    21    13    19    1
    22    15    14    1
    23    15    21    1
    24    14    20    1
