@<TRIPOS>MOLECULE
3pux_ADP_A_1.pdb
 27 29 0 0 0
SMALL
GASTEIGER

@<TRIPOS>ATOM
      1  PB       -18.2320   -1.3780   10.8660 P.3   2501  ADP2501     0.5373
      2  O1B      -18.4590   -2.8360   10.5220 O.3   2501  ADP2501    -0.1143
      3  O2B      -17.3480   -1.1530   12.0690 O.3   2501  ADP2501    -0.1143
      4  O3B      -17.8070   -0.5860    9.6570 O.2   2501  ADP2501    -0.2221
      5  PA       -20.2400   -0.4980   12.6980 P.3   2501  ADP2501     0.2231
      6  O1A      -19.6770    0.7930   13.1980 O.2   2501  ADP2501    -0.5169
      7  O2A      -20.0480   -1.7380   13.5190 O.3   2501  ADP2501    -0.4370
      8  O3A      -19.6830   -0.7230   11.2050 O.3   2501  ADP2501    -0.2261
      9  O5'      -21.8120   -0.2680   12.4890 O.3   2501  ADP2501    -0.3111
     10  C5'      -22.5850   -1.2930   11.8600 C.3   2501  ADP2501     0.1813
     11  C4'      -23.8580   -0.6550   11.3530 C.3   2501  ADP2501     0.1821
     12  O4'      -24.5290   -0.0420   12.4350 O.3   2501  ADP2501    -0.3135
     13  C3'      -23.5650    0.4530   10.3540 C.3   2501  ADP2501     0.2184
     14  O3'      -24.2010    0.1050    9.1080 O.3   2501  ADP2501    -0.2174
     15  C2'      -24.0750    1.7290   10.9920 C.3   2501  ADP2501     0.2570
     16  O2'      -24.7750    2.5340   10.0580 O.3   2501  ADP2501    -0.2130
     17  C1'      -25.0130    1.2580   12.0950 C.3   2501  ADP2501     0.3186
     18  N9       -25.0400    2.1000   13.3320 N.pl3 2501  ADP2501    -0.1439
     19  C8       -23.9820    2.5200   14.0730 C.3   2501  ADP2501     0.3377
     20  N7       -24.4170    3.2350   15.1430 N.2   2501  ADP2501    -0.2095
     21  C5       -25.7590    3.2560   15.0600 C.2   2501  ADP2501     0.2526
     22  C6       -26.7570    3.8260   15.8460 C.2   2501  ADP2501     0.4393
     23  N6       -26.4220    4.5470   16.9590 N.pl3 2501  ADP2501     0.2180
     24  N1       -28.0700    3.6670   15.4860 N.2   2501  ADP2501     0.0021
     25  C2       -28.4250    2.9770   14.3990 C.3   2501  ADP2501     0.5254
     26  N3       -27.4760    2.4160   13.6340 N.2   2501  ADP2501    -0.0055
     27  C4       -26.1500    2.5400   13.9350 C.2   2501  ADP2501     0.3518
@<TRIPOS>BOND
     1    14    13    1
     2     4     1    2
     3    16    15    1
     4    13    15    1
     5    13    11    1
     6     2     1    1
     7     1     8    1
     8     1     3    1
     9    15    17    1
    10     8     5    1
    11    11    10    1
    12    11    12    1
    13    10     9    1
    14    17    12    1
    15    17    18    1
    16     9     5    1
    17     5     6    2
    18     5     7    1
    19    18    27    1
    20    18    19    1
    21    26    27    2
    22    26    25    1
    23    27    21    1
    24    19    20    1
    25    25    24    1
    26    21    20    2
    27    21    22    1
    28    24    22    2
    29    22    23    1
