@<TRIPOS>MOLECULE
3puy_ANP_A_1.pdb
 31 33 0 0 0
SMALL
GASTEIGER

@<TRIPOS>ATOM
      1  PG        62.4480    3.3330    7.2940 P.3   2501  ANP2501     0.4884
      2  O1G       62.6060    3.8450    8.7000 O.3   2501  ANP2501    -0.1240
      3  O2G       61.9290    4.3520    6.3240 O.2   2501  ANP2501    -0.2331
      4  O3G       63.6410    2.5760    6.7750 O.3   2501  ANP2501    -0.1240
      5  PB        60.5910    1.3640    8.7500 P.3   2501  ANP2501     0.4669
      6  O1B       60.5190   -0.1060    8.4350 O.2   2501  ANP2501    -0.2351
      7  O2B       61.4100    1.8200    9.9310 O.3   2501  ANP2501    -0.1253
      8  N3B       61.1460    2.1770    7.3120 N.3   2501  ANP2501    -0.0163
      9  PA        58.5510    2.0620   10.5120 P.3   2501  ANP2501     0.2220
     10  O1A       59.0750    3.3670   11.0350 O.2   2501  ANP2501    -0.5170
     11  O2A       58.7890    0.7950   11.2790 O.3   2501  ANP2501    -0.4370
     12  O3A       59.0890    1.8390    9.0240 O.3   2501  ANP2501    -0.2360
     13  O5'       56.9780    2.2280   10.2460 O.3   2501  ANP2501    -0.3111
     14  C5'       56.2950    1.3040    9.3960 C.3   2501  ANP2501     0.1813
     15  C4'       54.9600    1.8620    8.9080 C.3   2501  ANP2501     0.1821
     16  O4'       54.1210    2.2720    9.9960 O.3   2501  ANP2501    -0.3135
     17  C3'       55.1580    3.0610    8.0050 C.3   2501  ANP2501     0.2184
     18  O3'       54.5870    2.7510    6.7350 O.3   2501  ANP2501    -0.2174
     19  C2'       54.4170    4.2010    8.6760 C.3   2501  ANP2501     0.2570
     20  O2'       53.5920    4.8860    7.7370 O.3   2501  ANP2501    -0.2130
     21  C1'       53.5560    3.5590    9.7510 C.3   2501  ANP2501     0.3186
     22  N9        53.5610    4.3590   11.0060 N.pl3 2501  ANP2501    -0.1439
     23  C8        54.6500    4.7470   11.7060 C.3   2501  ANP2501     0.3377
     24  N7        54.3150    5.4610   12.8130 N.2   2501  ANP2501    -0.2095
     25  C5        52.9750    5.5340   12.8330 C.2   2501  ANP2501     0.2526
     26  C6        51.9630    6.1430   13.7250 C.2   2501  ANP2501     0.4393
     27  N6        52.3330    6.8310   14.8360 N.pl3 2501  ANP2501     0.2180
     28  N1        50.6600    5.9910   13.3810 N.2   2501  ANP2501     0.0021
     29  C2        50.2760    5.3120   12.2780 C.3   2501  ANP2501     0.5254
     30  N3        51.1420    4.7300   11.4290 N.2   2501  ANP2501    -0.0055
     31  C4        52.4790    4.8080   11.6450 C.2   2501  ANP2501     0.3518
@<TRIPOS>BOND
     1     3     1    2
     2    18    17    1
     3     4     1    1
     4     1     8    1
     5     1     2    1
     6     8     5    1
     7    20    19    1
     8    17    19    1
     9    17    15    1
    10     6     5    2
    11    19    21    1
    12     5    12    1
    13     5     7    1
    14    15    14    1
    15    15    16    1
    16    12     9    1
    17    14    13    1
    18    21    16    1
    19    21    22    1
    20    13     9    1
    21     9    10    2
    22     9    11    1
    23    22    31    1
    24    22    23    1
    25    30    31    2
    26    30    29    1
    27    31    25    1
    28    23    24    1
    29    29    28    1
    30    24    25    2
    31    25    26    1
    32    28    26    2
    33    26    27    1
