@<TRIPOS>MOLECULE
3puy_MAL_F_1.pdb
 23 24 0 0 0
SMALL
GASTEIGER

@<TRIPOS>ATOM
      1  C1        44.8520   41.2050   33.7470 C.3   2001  MAL2001     0.2695
      2  C2        44.6550   42.4770   34.5750 C.3   2001  MAL2001     0.2406
      3  C3        43.1780   42.8590   34.6270 C.3   2001  MAL2001     0.2198
      4  C4        42.6030   42.9880   33.2180 C.3   2001  MAL2001     0.2144
      5  C5        42.8970   41.7190   32.4210 C.3   2001  MAL2001     0.1835
      6  C6        42.4440   41.8310   30.9740 C.3   2001  MAL2001     0.2142
      7  O1        44.2210   40.0930   34.3980 O.3   2001  MAL2001    -0.3257
      8  O2        45.1370   42.2880   35.9070 O.3   2001  MAL2001    -0.2149
      9  O3        43.0100   44.0760   35.3630 O.3   2001  MAL2001    -0.2174
     10  O4        41.1870   43.1750   33.3100 O.3   2001  MAL2001    -0.2176
     11  O5        44.2970   41.4140   32.4420 O.3   2001  MAL2001    -0.3256
     12  O6        42.2200   40.5100   30.4810 O.3   2001  MAL2001    -0.2176
     13  C1'       45.0770   36.0030   35.0600 C.3   2001  MAL2001     0.3023
     14  C2'       46.0860   37.0350   35.5720 C.3   2001  MAL2001     0.2433
     15  C3'       45.4620   38.4370   35.6210 C.3   2001  MAL2001     0.2168
     16  C4'       44.8810   38.8320   34.2670 C.3   2001  MAL2001     0.1804
     17  C5'       43.8800   37.7610   33.8330 C.3   2001  MAL2001     0.1804
     18  C6'       43.3170   38.0430   32.4450 C.3   2001  MAL2001     0.2141
     19  O1'       44.0710   35.7150   36.0450 O.3   2001  MAL2001    -0.1869
     20  O2'       46.5920   36.6350   36.8550 O.3   2001  MAL2001    -0.2148
     21  O3'       46.4210   39.4240   36.0150 O.3   2001  MAL2001    -0.2175
     22  O5'       44.4850   36.4560   33.8320 O.3   2001  MAL2001    -0.3237
     23  O6'       42.9210   36.8170   31.8240 O.3   2001  MAL2001    -0.2176
@<TRIPOS>BOND
     1    12     6    1
     2     6     5    1
     3    23    18    1
     4     5    11    1
     5     5     4    1
     6    11     1    1
     7    18    17    1
     8     4    10    1
     9     4     3    1
    10     1     7    1
    11     1     2    1
    12    22    17    1
    13    22    13    1
    14    17    16    1
    15    16     7    1
    16    16    15    1
    17     2     3    1
    18     2     8    1
    19     3     9    1
    20    13    14    1
    21    13    19    1
    22    14    15    1
    23    14    20    1
    24    15    21    1
