@<TRIPOS>MOLECULE
3puz_ANP_A_1.pdb
 27 29 0 0 0
SMALL
GASTEIGER

@<TRIPOS>ATOM
      1  PB        21.9980  -12.1350   36.5810 P.3   2501  ANP2501     0.4738
      2  O1B       22.3020  -11.4090   37.8670 O.3   2501  ANP2501    -0.1247
      3  O2B       22.9510  -11.9410   35.4280 O.2   2501  ANP2501    -0.2343
      4  N3B       21.9090  -13.8470   36.9260 N.3   2501  ANP2501    -0.0178
      5  PA        19.9580  -11.9580   34.6420 P.3   2501  ANP2501     0.2220
      6  O1A       20.5020  -13.2980   34.2020 O.3   2501  ANP2501    -0.4370
      7  O2A       20.1940  -10.7360   33.7890 O.2   2501  ANP2501    -0.5170
      8  O3A       20.5390  -11.6370   36.1120 O.3   2501  ANP2501    -0.2354
      9  O5'       18.3650  -12.1000   34.8600 O.3   2501  ANP2501    -0.3111
     10  C5'       17.7020  -11.3420   35.8710 C.3   2501  ANP2501     0.1813
     11  C4'       16.2060  -11.6330   35.9020 C.3   2501  ANP2501     0.1821
     12  O4'       15.6590  -11.5160   34.5910 O.3   2501  ANP2501    -0.3135
     13  C3'       15.8730  -13.0330   36.3990 C.3   2501  ANP2501     0.2184
     14  O3'       15.2620  -12.9510   37.6910 O.3   2501  ANP2501    -0.2174
     15  C2'       14.9110  -13.6170   35.3790 C.3   2501  ANP2501     0.2570
     16  O2'       13.6860  -14.0350   35.9910 O.3   2501  ANP2501    -0.2130
     17  C1'       14.6320  -12.4890   34.3990 C.3   2501  ANP2501     0.3186
     18  N9        14.6360  -12.9870   33.0000 N.pl3 2501  ANP2501    -0.1439
     19  C8        15.7220  -13.1920   32.2280 C.3   2501  ANP2501     0.3377
     20  N7        15.3730  -13.6510   31.0000 N.2   2501  ANP2501    -0.2095
     21  C5        14.0310  -13.7420   30.9740 C.2   2501  ANP2501     0.2526
     22  C6        13.0030  -14.1570   29.9860 C.2   2501  ANP2501     0.4393
     23  N6        13.3590  -14.5750   28.7480 N.pl3 2501  ANP2501     0.2180
     24  N1        11.7010  -14.1040   30.3630 N.2   2501  ANP2501     0.0021
     25  C2        11.3300  -13.6890   31.5930 C.3   2501  ANP2501     0.5254
     26  N3        12.2090  -13.2980   32.5390 N.2   2501  ANP2501    -0.0055
     27  C4        13.5470  -13.3020   32.2960 C.2   2501  ANP2501     0.3518
@<TRIPOS>BOND
     1    23    22    1
     2    22    24    2
     3    22    21    1
     4    24    25    1
     5    21    20    2
     6    21    27    1
     7    20    19    1
     8    25    26    1
     9    19    18    1
    10    27    26    2
    11    27    18    1
    12    18    17    1
    13     7     5    2
    14     6     5    1
    15    17    12    1
    16    17    15    1
    17    12    11    1
    18     5     9    1
    19     5     8    1
    20     9    10    1
    21    15    16    1
    22    15    13    1
    23     3     1    2
    24    10    11    1
    25    11    13    1
    26     8     1    1
    27    13    14    1
    28     1     4    1
    29     1     2    1
