@<TRIPOS>MOLECULE
3puz_MAL_E_1.pdb
 23 24 0 0 0
SMALL
GASTEIGER

@<TRIPOS>ATOM
      1  C1       -14.5430  -69.8260  -10.3430 C.3   2002  MAL2002     0.2695
      2  C2       -15.1900  -68.7580  -11.2190 C.3   2002  MAL2002     0.2406
      3  C3       -15.0240  -67.3750  -10.5820 C.3   2002  MAL2002     0.2198
      4  C4       -15.4640  -67.3530   -9.1170 C.3   2002  MAL2002     0.2144
      5  C5       -14.8730  -68.5320   -8.3430 C.3   2002  MAL2002     0.1835
      6  C6       -15.4330  -68.6390   -6.9290 C.3   2002  MAL2002     0.2142
      7  O1       -13.1280  -69.5980  -10.2890 O.3   2002  MAL2002    -0.3257
      8  O2       -14.5800  -68.7830  -12.5130 O.3   2002  MAL2002    -0.2149
      9  O3       -15.7690  -66.4020  -11.3220 O.3   2002  MAL2002    -0.2174
     10  O4       -15.0360  -66.1210   -8.5300 O.3   2002  MAL2002    -0.2176
     11  O5       -15.1300  -69.7580   -9.0380 O.3   2002  MAL2002    -0.3256
     12  O6       -14.7920  -69.7240   -6.2480 O.3   2002  MAL2002    -0.2176
     13  C1'       -9.6710  -71.8510  -11.1000 C.3   2002  MAL2002     0.3023
     14  C2'      -10.7610  -71.8390  -12.1750 C.3   2002  MAL2002     0.2433
     15  C3'      -11.7590  -70.7070  -11.9390 C.3   2002  MAL2002     0.2168
     16  C4'      -12.3320  -70.7590  -10.5220 C.3   2002  MAL2002     0.1804
     17  C5'      -11.1840  -70.7960   -9.5080 C.3   2002  MAL2002     0.1804
     18  C6'      -11.6850  -70.9210   -8.0720 C.3   2002  MAL2002     0.2141
     19  O1'       -8.8000  -70.7180  -11.2420 O.3   2002  MAL2002    -0.1869
     20  O2'      -10.1710  -71.7030  -13.4720 O.3   2002  MAL2002    -0.2148
     21  O3'      -12.8120  -70.7820  -12.9050 O.3   2002  MAL2002    -0.2175
     22  O5'      -10.2690  -71.8690   -9.7930 O.3   2002  MAL2002    -0.3237
     23  O6'      -10.5920  -70.7300   -7.1650 O.3   2002  MAL2002    -0.2176
@<TRIPOS>BOND
     1    20    14    1
     2    21    15    1
     3     8     2    1
     4    14    15    1
     5    14    13    1
     6    15    16    1
     7     9     3    1
     8    19    13    1
     9     2     3    1
    10     2     1    1
    11    13    22    1
    12     3     4    1
    13    16     7    1
    14    16    17    1
    15     1     7    1
    16     1    11    1
    17    22    17    1
    18    17    18    1
    19     4    10    1
    20     4     5    1
    21    11     5    1
    22     5     6    1
    23    18    23    1
    24     6    12    1
