@<TRIPOS>MOLECULE
3pv0_MAL_E_1.pdb
 23 24 0 0 0
SMALL
GASTEIGER

@<TRIPOS>ATOM
      1  C1       -17.5620  -69.3310   -8.7600 C.3   2002  MAL2002     0.2695
      2  C2       -18.1730  -68.2510   -9.6490 C.3   2002  MAL2002     0.2406
      3  C3       -18.0870  -66.8800   -8.9820 C.3   2002  MAL2002     0.2198
      4  C4       -18.5770  -66.9290   -7.5390 C.3   2002  MAL2002     0.2144
      5  C5       -17.9220  -68.0860   -6.7990 C.3   2002  MAL2002     0.1835
      6  C6       -18.4280  -68.1970   -5.3690 C.3   2002  MAL2002     0.2142
      7  O1       -16.1620  -69.0870   -8.6020 O.3   2002  MAL2002    -0.3257
      8  O2       -17.4800  -68.2210  -10.9030 O.3   2002  MAL2002    -0.2149
      9  O3       -18.8630  -65.9280   -9.7190 O.3   2002  MAL2002    -0.2174
     10  O4       -18.2580  -65.6960   -6.8820 O.3   2002  MAL2002    -0.2176
     11  O5       -18.2010  -69.3010   -7.4860 O.3   2002  MAL2002    -0.3256
     12  O6       -17.7250  -69.2550   -4.7110 O.3   2002  MAL2002    -0.2176
     13  C1'      -12.7230  -71.2590   -9.3350 C.3   2002  MAL2002     0.3023
     14  C2'      -13.8070  -71.3760  -10.4020 C.3   2002  MAL2002     0.2433
     15  C3'      -14.8960  -70.3250  -10.2080 C.3   2002  MAL2002     0.2168
     16  C4'      -15.3770  -70.2660   -8.7660 C.3   2002  MAL2002     0.1804
     17  C5'      -14.2000  -70.2370   -7.7940 C.3   2002  MAL2002     0.1804
     18  C6'      -14.6710  -70.2810   -6.3440 C.3   2002  MAL2002     0.2141
     19  O1'      -12.0240  -70.0120   -9.4680 O.3   2002  MAL2002    -0.1869
     20  O2'      -13.2190  -71.2440  -11.7030 O.3   2002  MAL2002    -0.2148
     21  O3'      -16.0150  -70.6220  -11.0490 O.3   2002  MAL2002    -0.2175
     22  O5'      -13.3340  -71.3430   -8.0490 O.3   2002  MAL2002    -0.3237
     23  O6'      -13.5430  -70.4240   -5.4720 O.3   2002  MAL2002    -0.2176
@<TRIPOS>BOND
     1    20    14    1
     2    21    15    1
     3     8     2    1
     4    14    15    1
     5    14    13    1
     6    15    16    1
     7     9     3    1
     8     2     3    1
     9     2     1    1
    10    19    13    1
    11    13    22    1
    12     3     4    1
    13    16     7    1
    14    16    17    1
    15     1     7    1
    16     1    11    1
    17    22    17    1
    18    17    18    1
    19     4    10    1
    20     4     5    1
    21    11     5    1
    22     5     6    1
    23    18    23    1
    24     6    12    1
