@<TRIPOS>MOLECULE
3pv3_III_E_1.pdb
 30 29 0 0 0
SMALL
GASTEIGER

@<TRIPOS>ATOM
      1  N          4.4810   29.9500  -32.9300 N.3    12  UNK12      -0.1231
      2  CA         5.4000   31.0760  -32.5820 C.3    12  UNK12       0.1694
      3  C          6.7580   30.9160  -33.2640 C.2    12  UNK12       0.2592
      4  O          7.5100   29.9980  -32.9580 O.2    12  UNK12      -0.2718
      5  CB         5.5580   31.2020  -31.0670 C.3    12  UNK12       0.0304
      6  N          7.0540   31.8150  -34.1960 N.am   13  UNK13      -0.1966
      7  CA         8.2820   31.7490  -34.9890 C.3    13  UNK13       0.1728
      8  C          9.2060   32.9530  -34.7280 C.2    13  UNK13       0.2616
      9  O          8.7810   34.1110  -34.8120 O.2    13  UNK13      -0.2715
     10  CB         7.9440   31.6210  -36.5040 C.3    13  UNK13       0.0334
     11  N         10.4650   32.6730  -34.3950 N.am   14  UNK14      -0.1963
     12  CA        11.4790   33.7150  -34.3160 C.3    14  UNK14       0.1728
     13  C         11.7920   34.1970  -35.7550 C.2    14  UNK14       0.2616
     14  O         11.7630   33.3910  -36.6860 O.2    14  UNK14      -0.2715
     15  CB        12.7130   33.1850  -33.6040 C.3    14  UNK14       0.0334
     16  N         12.0750   35.4930  -35.9360 N.am   15  UNK15      -0.1963
     17  CA        12.0590   36.1320  -37.2720 C.3    15  UNK15       0.1728
     18  C         13.4110   36.3480  -37.9870 C.2    15  UNK15       0.2616
     19  O         14.1610   37.2610  -37.6530 O.2    15  UNK15      -0.2715
     20  CB        11.2630   37.4510  -37.2250 C.3    15  UNK15       0.0334
     21  N         13.6930   35.5330  -39.0030 N.am   16  UNK16      -0.1963
     22  CA        14.8750   35.7230  -39.8650 C.3    16  UNK16       0.1728
     23  C         14.6130   35.1950  -41.2850 C.2    16  UNK16       0.2616
     24  O         13.6260   34.4820  -41.5110 O.2    16  UNK16      -0.2715
     25  CB        16.1120   35.0490  -39.2490 C.3    16  UNK16       0.0334
     26  N         15.4780   35.5600  -42.2350 N.am   17  UNK17      -0.1977
     27  CA        15.4340   34.9860  -43.5880 C.3    17  UNK17       0.1597
     28  C         16.5810   33.9870  -43.8040 C.2    17  UNK17       0.2287
     29  O         16.5820   32.8790  -43.2400 O.2    17  UNK17      -0.2864
     30  CB        15.4380   36.0900  -44.6720 C.3    17  UNK17       0.0319
@<TRIPOS>BOND
     1    30    27    1
     2    28    27    1
     3    28    29    2
     4    27    26    1
     5    26    23   am
     6    24    23    2
     7    23    22    1
     8    22    25    1
     9    22    21    1
    10    21    18   am
    11    18    19    2
    12    18    17    1
    13    17    20    1
    14    17    16    1
    15    14    13    2
    16    10     7    1
    17    16    13   am
    18    13    12    1
    19     7     8    1
    20     7     6    1
    21     9     8    2
    22     8    11   am
    23    11    12    1
    24    12    15    1
    25     6     3   am
    26     3     4    2
    27     3     2    1
    28     1     2    1
    29     2     5    1
