@<TRIPOS>MOLECULE
3pv8_D3T_A_1.pdb
 40 41 0 0 0
SMALL
GASTEIGER

@<TRIPOS>ATOM
      1  PA       129.1220  -27.0180   42.3230 P.3   201  D3T201      0.2182
      2  O1A      128.2010  -26.4010   43.3150 O.3   201  D3T201     -0.4371
      3  O2A      129.9150  -28.1480   42.8130 O.2   201  D3T201     -0.5170
      4  O5'      128.2890  -27.4970   41.0560 O.3   201  D3T201     -0.3247
      5  C5'      129.0030  -27.9910   39.9320 C.3   201  D3T201      0.0811
      6  C4'      128.7200  -27.3890   38.6000 C.3   201  D3T201      0.0848
      7  O4'      127.3220  -27.2780   38.4250 O.3   201  D3T201     -0.3522
      8  C1'      127.0300  -26.0980   37.7210 C.3   201  D3T201      0.1399
      9  N1       126.1620  -25.1510   38.4320 N.am  201  D3T201     -0.1965
     10  C6       126.1340  -25.1590   39.7970 C.2   201  D3T201      0.0268
     11  C2       125.4960  -24.1770   37.7720 C.1   201  D3T201      0.2835
     12  O2       125.5330  -24.1410   36.5410 O.2   201  D3T201     -0.1919
     13  N3       124.7360  -23.2790   38.4140 N.2   201  D3T201     -0.2456
     14  C4       124.6520  -23.2550   39.7570 C.1   201  D3T201      0.2119
     15  O4       123.8580  -22.2980   40.3540 O.2   201  D3T201     -0.2089
     16  C5       125.3470  -24.2390   40.4720 C.2   201  D3T201      0.0680
     17  C5M      125.3080  -24.2830   41.9490 C.3   201  D3T201     -0.0263
     18  C2'      128.3180  -25.4210   37.5080 C.3   201  D3T201     -0.0063
     19  C3'      129.2260  -26.0060   38.4920 C.3   201  D3T201     -0.0204
     20  O3A      130.0250  -25.8940   41.6750 O.3   201  D3T201     -0.2700
     21  PB       131.6260  -25.8190   41.8090 P.3   201  D3T201      0.2277
     22  O1B      131.9870  -24.6580   40.8820 O.2   201  D3T201     -0.5168
     23  O2B      132.3590  -27.0850   41.4760 O.3   201  D3T201     -0.4368
     24  O3B      131.7640  -25.3190   43.2630 O.3   201  D3T201     -0.2258
     25  PG       132.6120  -25.9280   44.4600 P.3   201  D3T201      0.5373
     26  O1G      131.9250  -25.3930   45.6910 O.3   201  D3T201     -0.1143
     27  O2G      132.7030  -27.4190   44.4430 O.3   201  D3T201     -0.1143
     28  O3G      134.0200  -25.3610   44.4250 O.2   201  D3T201     -0.2221
     29 H5'1      128.8140  -28.9390   39.8640 H     201  D3T201      0.0590
     30 H5'2      129.9530  -27.8920   40.1140 H     201  D3T201      0.0590
     31  H4'      129.0920  -27.9600   37.8950 H     201  D3T201      0.0620
     32  H1'      126.6520  -26.2890   36.8550 H     201  D3T201      0.0819
     33  H6       126.6290  -25.8380   40.2920 H     201  D3T201      0.0803
     34 H5M1      124.3820  -24.2840   42.2490 H     201  D3T201      0.0285
     35 H5M2      125.7540  -25.0960   42.2650 H     201  D3T201      0.0285
     36 H5M3      125.7660  -23.4980   42.3090 H     201  D3T201      0.0285
     37 H2'1      128.6530  -25.5570   36.5980 H     201  D3T201      0.0308
     38 H2'2      128.2090  -24.4590   37.6930 H     201  D3T201      0.0308
     39 H3'1      129.1820  -25.5270   39.3480 H     201  D3T201      0.0292
     40 H3'2      130.1410  -26.0230   38.1460 H     201  D3T201      0.0292
@<TRIPOS>BOND
     1    12    11    2
     2    37    18    1
     3    32     8    1
     4    18    38    1
     5    18     8    1
     6    18    19    1
     7     8     7    1
     8     8     9    1
     9    11    13    2
    10    11     9   am
    11    31     6    1
    12    40    19    1
    13    13    14    2
    14     7     6    1
    15     9    10    1
    16    19     6    1
    17    19    39    1
    18     6     5    1
    19    14    15    2
    20    14    16    1
    21    10    33    1
    22    10    16    2
    23    29     5    1
    24     5    30    1
    25     5     4    1
    26    16    17    1
    27    22    21    2
    28     4     1    1
    29    23    21    1
    30    20    21    1
    31    20     1    1
    32    21    24    1
    33    17    34    1
    34    17    35    1
    35    17    36    1
    36     1     3    2
    37     1     2    1
    38    24    25    1
    39    28    25    2
    40    27    25    1
    41    25    26    1
