@<TRIPOS>MOLECULE
3pvd_FUC_A_1.pdb
 10 10 0 0 0
SMALL
GASTEIGER

@<TRIPOS>ATOM
      1  C1       -24.5600    2.9510  -43.3090 C.3     4  FUC4        0.1776
      2  C2       -23.6920    2.0710  -42.4110 C.3     4  FUC4        0.2141
      3  C3       -22.6060    1.3790  -43.2240 C.3     4  FUC4        0.2172
      4  C4       -21.7910    2.3680  -44.0690 C.3     4  FUC4        0.2116
      5  C5       -22.7170    3.2770  -44.8830 C.3     4  FUC4        0.1483
      6  C6       -21.9410    4.4060  -45.5630 C.3     4  FUC4        0.0349
      7  O2       -24.5250    1.0970  -41.7690 O.3     4  FUC4       -0.2176
      8  O3       -21.7540    0.6030  -42.3610 O.3     4  FUC4       -0.2175
      9  O4       -20.8690    3.1490  -43.2870 O.3     4  FUC4       -0.2177
     10  O5       -23.7550    3.8480  -44.0780 O.3     4  FUC4       -0.3508
@<TRIPOS>BOND
     1     6     5    1
     2     5    10    1
     3     5     4    1
     4    10     1    1
     5     4     9    1
     6     4     3    1
     7     1     2    1
     8     3     2    1
     9     3     8    1
    10     2     7    1
