@<TRIPOS>MOLECULE
3pvg_K68_A_1.pdb
 17 18 0 0 0
SMALL
GASTEIGER

@<TRIPOS>ATOM
      1  C1        21.9780    7.0840   20.2570 C.2     1  K681        0.0564
      2  C2        22.9860    6.4880   19.5620 C.2     1  K681        0.0979
      3  C3        23.2510    7.0290   18.3260 C.2     1  K681        0.0710
      4  C4        22.5660    8.1130   17.7240 C.2     1  K681        0.0421
      5  C5        21.5580    8.6720   18.4970 C.3     1  K681        0.1155
      6  C6        21.2710    8.1520   19.7510 C.2     1  K681        0.0350
      7 BR13       21.6730    6.3260   21.9320 Br      1  K681       -0.0472
      8 BR15       19.9040    8.9660   20.8090 Br      1  K681       -0.0519
      9 BR17       20.5150   10.1420   17.8520 Br      1  K681       -0.0709
     10 BR19       22.9510    8.9040   16.0100 Br      1  K681       -0.0511
     11  N21       23.8040    5.4180   19.8190 N.2     1  K681       -0.2463
     12  C23       24.5940    5.3190   18.7160 C.3     1  K681        0.2204
     13  N25       24.2220    6.2890   17.8410 N.pl3   1  K681       -0.2760
     14  C28       24.7110    6.7140   16.6040 C.3     1  K681        0.2079
     15  C30       25.0220    5.6790   15.6850 C.2     1  K681        0.3847
     16  O32       24.8380    6.1840   14.5460 O.co2   1  K681       -0.2437
     17  O34       25.4590    4.6150   16.2100 O.co2   1  K681       -0.2437
@<TRIPOS>BOND
     1    16    15   ar
     2    15    17   ar
     3    15    14    1
     4    10     4    1
     5    14    13    1
     6     4     3    2
     7     4     5    1
     8    13     3    1
     9    13    12    1
    10     9     5    1
    11     3     2    1
    12     5     6    1
    13    12    11    1
    14     2    11    2
    15     2     1    1
    16     6     1    2
    17     6     8    1
    18     1     7    1
