@<TRIPOS>MOLECULE
3pvu_QRW_A_1.pdb
 34 37 0 0 0
SMALL
GASTEIGER

@<TRIPOS>ATOM
      1  C1        36.7270   -2.3330   50.3650 C.ar  800  QRW800      0.0390
      2  C2        35.3590   -2.2420   50.1020 C.ar  800  QRW800      0.0237
      3  C3        34.8060   -1.0030   49.7540 C.ar  800  QRW800      0.0990
      4  N4        35.5690    0.0890   49.6780 N.ar  800  QRW800     -0.2423
      5  C5        36.8760    0.0320   49.9290 C.ar  800  QRW800      0.0990
      6  C6        37.4970   -1.1760   50.2760 C.ar  800  QRW800      0.0237
      7  C7        37.3250   -3.5380   50.7200 C.ar  800  QRW800      0.1663
      8  N8        38.1870   -3.6900   51.7160 N.ar  800  QRW800     -0.1290
      9  N9        38.5540   -4.8680   51.7880 N.ar  800  QRW800     -0.1315
     10  C10       37.9490   -5.5900   50.8440 C.ar  800  QRW800      0.1653
     11  N11       37.1820   -4.7470   50.1770 N.ar  800  QRW800     -0.2953
     12  C12       36.3210   -5.1190   49.0310 C.3   800  QRW800      0.1332
     13  C13       38.1090   -7.0940   50.5870 C.3   800  QRW800      0.1775
     14  N14       38.7850   -7.7560   51.7190 N.pl3 800  QRW800     -0.2294
     15  C15       38.2130   -7.9730   52.9140 C.ar  800  QRW800      0.0660
     16  C16       36.9550   -7.4650   53.2630 C.ar  800  QRW800      0.0161
     17  C17       36.4160   -7.7290   54.5270 C.ar  800  QRW800      0.0015
     18  C18       37.1310   -8.4990   55.4500 C.ar  800  QRW800      0.0046
     19  C19       38.3850   -8.9970   55.1080 C.ar  800  QRW800      0.0563
     20  C20       38.9070   -8.7400   53.8410 C.ar  800  QRW800      0.0207
     21  C21       39.2040   -9.8510   56.0820 C.2   800  QRW800      0.2651
     22  O22       38.6400  -10.5760   56.9000 O.2   800  QRW800     -0.2684
     23  N23       40.5360   -9.7530   55.9240 N.am  800  QRW800     -0.1968
     24  C24       41.5340  -10.5430   56.6650 C.3   800  QRW800      0.1417
     25  C25       41.6900  -11.8770   55.9050 C.ar  800  QRW800      0.0033
     26  C26       42.6570  -12.2050   54.9270 C.ar  800  QRW800      0.0691
     27  C27       42.6280  -13.4770   54.3300 C.ar  800  QRW800      0.0036
     28  C28       41.6720  -14.4300   54.6760 C.ar  800  QRW800     -0.0001
     29  C29       40.7170  -14.1120   55.6330 C.ar  800  QRW800     -0.0003
     30  C30       40.7380  -12.8510   56.2280 C.ar  800  QRW800     -0.0026
     31  C31       43.7680  -11.2220   54.4500 C.3   800  QRW800      0.4183
     32  F32       44.9030  -11.8890   54.1550 F     800  QRW800     -0.1659
     33  F33       44.0460  -10.3020   55.3850 F     800  QRW800     -0.1659
     34  F34       43.3300  -10.6230   53.3230 F     800  QRW800     -0.1659
@<TRIPOS>BOND
     1    12    11    1
     2     4     3   ar
     3     4     5   ar
     4     3     2   ar
     5     5     6   ar
     6     2     1   ar
     7    11     7   ar
     8    11    10   ar
     9     6     1   ar
    10     1     7    1
    11    13    10    1
    12    13    14    1
    13     7     8   ar
    14    10     9   ar
    15     8     9   ar
    16    14    15    1
    17    15    16   ar
    18    15    20   ar
    19    16    17   ar
    20    34    31    1
    21    20    19   ar
    22    32    31    1
    23    27    28   ar
    24    27    26   ar
    25    31    26    1
    26    31    33    1
    27    17    18   ar
    28    28    29   ar
    29    26    25   ar
    30    19    18   ar
    31    19    21    1
    32    29    30   ar
    33    25    30   ar
    34    25    24    1
    35    23    21   am
    36    23    24    1
    37    21    22    2
