@<TRIPOS>MOLECULE
3pvw_QRX_A_1.pdb
 34 37 0 0 0
SMALL
GASTEIGER

@<TRIPOS>ATOM
      1  C1        36.6360   -2.6390   50.7840 C.2   800  QRX800      0.0977
      2  C2        35.3490   -2.5140   50.2690 C.3   800  QRX800      0.0951
      3  C3        34.8920   -1.2580   49.8840 C.2   800  QRX800      0.0755
      4  N4        35.6740   -0.1990   50.0280 N.2   800  QRX800     -0.2471
      5  C5        36.9000   -0.3350   50.5170 C.3   800  QRX800      0.2502
      6  N6        37.3750   -1.5230   50.8810 N.2   800  QRX800     -0.2452
      7  C7        37.1970   -3.8580   51.1900 C.ar  800  QRX800      0.1799
      8  N8        38.1260   -3.9940   52.1350 N.ar  800  QRX800     -0.1278
      9  N9        38.4410   -5.1830   52.2600 N.ar  800  QRX800     -0.1315
     10  C10       37.7450   -5.9260   51.4040 C.ar  800  QRX800      0.1653
     11  N11       36.9750   -5.0920   50.7380 N.ar  800  QRX800     -0.2964
     12  C12       36.0320   -5.4980   49.6910 C.3   800  QRX800      0.1088
     13  C13       34.6070   -5.4390   50.2600 C.3   800  QRX800      0.0246
     14  C14       33.5860   -5.0690   49.1760 C.3   800  QRX800      0.0021
     15  C15       37.8140   -7.4480   51.2220 C.3   800  QRX800      0.1775
     16  N16       38.5240   -8.0900   52.3430 N.pl3 800  QRX800     -0.2294
     17  C17       37.9990   -8.2290   53.5690 C.ar  800  QRX800      0.0660
     18  C18       38.7190   -8.9670   54.4960 C.ar  800  QRX800      0.0207
     19  C19       38.2520   -9.1600   55.7980 C.ar  800  QRX800      0.0563
     20  C20       37.0250   -8.6020   56.1660 C.ar  800  QRX800      0.0046
     21  C21       36.2850   -7.8580   55.2380 C.ar  800  QRX800      0.0015
     22  C22       36.7700   -7.6740   53.9440 C.ar  800  QRX800      0.0161
     23  C23       39.0970  -10.0020   56.7840 C.2   800  QRX800      0.2651
     24  N24       40.3900  -10.0910   56.4720 N.am  800  QRX800     -0.1966
     25  O25       38.5860  -10.5690   57.7500 O.2   800  QRX800     -0.2684
     26  C26       41.3640  -10.8640   57.2410 C.3   800  QRX800      0.1463
     27  C27       42.4020  -11.4160   56.2560 C.ar  800  QRX800      0.0544
     28  C28       43.6110  -10.7460   56.0610 C.ar  800  QRX800      0.1400
     29  C29       44.5780  -11.2210   55.1710 C.ar  800  QRX800      0.0295
     30  C30       44.3470  -12.3860   54.4430 C.ar  800  QRX800      0.0046
     31  C31       43.1450  -13.0690   54.6200 C.ar  800  QRX800      0.0295
     32  C32       42.1830  -12.5860   55.5140 C.ar  800  QRX800      0.1400
     33  F33       41.0270  -13.2680   55.6600 F     800  QRX800     -0.2044
     34  F34       43.8540   -9.6190   56.7600 F     800  QRX800     -0.2044
@<TRIPOS>BOND
     1    14    13    1
     2    12    13    1
     3    12    11    1
     4     3     4    2
     5     3     2    1
     6     4     5    1
     7     2     1    1
     8     5     6    1
     9    11     7   ar
    10    11    10   ar
    11     1     6    2
    12     1     7    1
    13     7     8   ar
    14    15    10    1
    15    15    16    1
    16    10     9   ar
    17     8     9   ar
    18    16    17    1
    19    17    22   ar
    20    17    18   ar
    21    22    21   ar
    22    30    31   ar
    23    30    29   ar
    24    18    19   ar
    25    31    32   ar
    26    29    28   ar
    27    21    20   ar
    28    32    33    1
    29    32    27   ar
    30    19    20   ar
    31    19    23    1
    32    28    27   ar
    33    28    34    1
    34    27    26    1
    35    24    23   am
    36    24    26    1
    37    23    25    2
