@<TRIPOS>MOLECULE
3pvy_COA_A_1.pdb
 48 50 0 0 0
SMALL
GASTEIGER

@<TRIPOS>ATOM
      1  N1A      -37.8020   52.0930  -29.1080 N.2   310  COA310      0.0021
      2  C2A      -37.0640   53.1870  -28.9560 C.3   310  COA310      0.5254
      3  N3A      -36.9100   54.0460  -29.9520 N.2   310  COA310     -0.0055
      4  C4A      -37.5130   53.8270  -31.1390 C.2   310  COA310      0.3518
      5  C5A      -38.3000   52.7030  -31.3290 C.2   310  COA310      0.2526
      6  C6A      -38.4340   51.8230  -30.2630 C.2   310  COA310      0.4393
      7  N6A      -39.1750   50.7280  -30.3720 N.pl3 310  COA310      0.2180
      8  N7A      -38.7670   52.7430  -32.5810 N.2   310  COA310     -0.2095
      9  C8A      -38.2940   53.8470  -33.1600 C.3   310  COA310      0.3377
     10  N9A      -37.5280   54.5060  -32.2830 N.pl3 310  COA310     -0.1439
     11  C1B      -36.8200   55.7940  -32.4780 C.3   310  COA310      0.3185
     12  C2B      -35.8120   55.7950  -33.6150 C.3   310  COA310      0.2543
     13  O2B      -34.5400   55.2870  -33.1740 O.3   310  COA310     -0.2131
     14  C3B      -35.7780   57.2920  -33.9730 C.3   310  COA310      0.1928
     15  O3B      -35.0490   58.0550  -33.0120 O.3   310  COA310     -0.2673
     16  P3B      -33.5160   58.4800  -33.3030 P.3   310  COA310      0.5327
     17  O7A      -33.3640   59.1270  -34.6220 O.2   310  COA310     -0.2224
     18  O8A      -33.0880   59.4260  -32.0720 O.3   310  COA310     -0.1145
     19  O9A      -32.6790   57.1000  -33.1080 O.3   310  COA310     -0.1145
     20  C4B      -37.2550   57.6940  -33.8470 C.3   310  COA310      0.1795
     21  O4B      -37.8390   56.7660  -32.8610 O.3   310  COA310     -0.3136
     22  C5B      -38.0480   57.6480  -35.1850 C.3   310  COA310      0.1812
     23  O5B      -38.1440   56.3070  -35.7150 O.3   310  COA310     -0.3112
     24  P1A      -37.4030   55.8720  -37.1150 P.3   310  COA310      0.2189
     25  O1A      -37.2360   57.0460  -38.0240 O.2   310  COA310     -0.5170
     26  O2A      -38.3050   54.7130  -37.7510 O.3   310  COA310     -0.4371
     27  O3A      -35.9800   55.2770  -36.6910 O.3   310  COA310     -0.2703
     28  P2A      -35.4100   53.9290  -37.3450 P.3   310  COA310      0.2188
     29  O4A      -35.5010   53.9290  -38.8230 O.2   310  COA310     -0.5170
     30  O5A      -33.8810   53.8440  -36.8210 O.3   310  COA310     -0.4371
     31  O6A      -36.2780   52.8630  -36.5030 O.3   310  COA310     -0.3138
     32  CBP      -36.0160   50.5140  -35.9780 C.3   310  COA310      0.0645
     33  CCP      -36.5530   51.5790  -36.9370 C.3   310  COA310      0.1519
     34  CDP      -36.3410   50.7880  -34.5090 C.3   310  COA310      0.0056
     35  CEP      -36.7140   49.2360  -36.4070 C.3   310  COA310      0.0056
     36  CAP      -34.4730   50.4570  -36.1430 C.3   310  COA310      0.2312
     37  OAP      -33.8230   51.4410  -35.3020 O.3   310  COA310     -0.2131
     38  C9P      -33.8610   49.0730  -35.8670 C.2   310  COA310      0.2719
     39  O9P      -34.1460   48.1050  -36.5710 O.2   310  COA310     -0.2706
     40  N8P      -32.9920   49.0510  -34.8590 N.am  310  COA310     -0.2028
     41  C7P      -32.2520   47.8570  -34.4330 C.3   310  COA310      0.1248
     42  C6P      -33.1510   46.9550  -33.5850 C.3   310  COA310      0.1102
     43  C5P      -33.1210   47.2690  -32.0860 C.2   310  COA310      0.2432
     44  O5P      -32.7250   48.3580  -31.6500 O.2   310  COA310     -0.2733
     45  N4P      -33.5870   46.2600  -31.3430 N.am  310  COA310     -0.2044
     46  C3P      -33.6900   46.2960  -29.8730 C.3   310  COA310      0.1276
     47  C2P      -34.3780   45.0240  -29.3740 C.3   310  COA310      0.0920
     48  S1P      -33.1860   43.8450  -28.6540 S.3   310  COA310     -0.0802
@<TRIPOS>BOND
     1    29    28    2
     2    25    24    2
     3    26    24    1
     4    28    30    1
     5    28    27    1
     6    28    31    1
     7    24    27    1
     8    24    23    1
     9    33    31    1
    10    33    32    1
    11    39    38    2
    12    35    32    1
    13    36    32    1
    14    36    38    1
    15    36    37    1
    16    32    34    1
    17    38    40   am
    18    23    22    1
    19    22    20    1
    20    40    41    1
    21    17    16    2
    22    41    42    1
    23    14    20    1
    24    14    12    1
    25    14    15    1
    26    20    21    1
    27    12    13    1
    28    12    11    1
    29    42    43    1
    30    16    19    1
    31    16    15    1
    32    16    18    1
    33     9     8    1
    34     9    10    1
    35    21    11    1
    36     8     5    2
    37    11    10    1
    38    10     4    1
    39    43    44    2
    40    43    45   am
    41    45    46    1
    42     5     4    1
    43     5     6    1
    44     4     3    2
    45     7     6    1
    46     6     1    2
    47     3     2    1
    48    46    47    1
    49    47    48    1
    50     1     2    1
