@<TRIPOS>MOLECULE
3pvz_NAD_A_1.pdb
 44 48 0 0 0
SMALL
GASTEIGER

@<TRIPOS>ATOM
      1  PA        18.3810   66.8030  101.1290 P.3   501  NAD501      0.2189
      2  O1A       19.6030   67.1210  101.9280 O.3   501  NAD501     -0.4371
      3  O2A       17.7170   65.5730  101.6690 O.2   501  NAD501     -0.5170
      4  O5B       18.7550   66.2710   99.6780 O.3   501  NAD501     -0.3112
      5  C5B       19.6210   67.1240   98.8980 C.3   501  NAD501      0.1813
      6  C4B       20.2630   66.1430   97.9110 C.3   501  NAD501      0.1821
      7  O4B       21.1430   66.7840   97.0110 O.3   501  NAD501     -0.3135
      8  C3B       21.0890   65.0670   98.6860 C.3   501  NAD501      0.2184
      9  O3B       20.7060   63.7590   98.3140 O.3   501  NAD501     -0.2174
     10  C2B       22.5420   65.3980   98.2720 C.3   501  NAD501      0.2570
     11  O2B       23.4410   64.2980   98.3450 O.3   501  NAD501     -0.2130
     12  C1B       22.2500   65.9360   96.8520 C.3   501  NAD501      0.3186
     13  N9A       23.3590   66.7420   96.3640 N.pl3 501  NAD501     -0.1439
     14  C8A       23.9170   67.8030   96.9640 C.3   501  NAD501      0.3377
     15  N7A       24.9210   68.2500   96.2830 N.2   501  NAD501     -0.2095
     16  C5A       24.9810   67.5100   95.1340 C.2   501  NAD501      0.2526
     17  C6A       25.8240   67.4950   94.0270 C.2   501  NAD501      0.4393
     18  N6A       26.7910   68.4680   93.9590 N.pl3 501  NAD501      0.2180
     19  N1A       25.6470   66.5970   93.0630 N.2   501  NAD501      0.0021
     20  C2A       24.6900   65.6800   93.1560 C.3   501  NAD501      0.5254
     21  N3A       23.8930   65.6440   94.1950 N.2   501  NAD501     -0.0055
     22  C4A       24.0040   66.5260   95.1790 C.2   501  NAD501      0.3518
     23  O3        17.4360   68.1050  101.0800 O.3   501  NAD501     -0.2703
     24  PN        15.8360   67.9160  100.8390 P.3   501  NAD501      0.2189
     25  O1N       15.1100   67.9100  102.1740 O.3   501  NAD501     -0.4371
     26  O2N       15.3610   66.8400   99.9520 O.2   501  NAD501     -0.5170
     27  O5D       15.4910   69.4320  100.2810 O.3   501  NAD501     -0.3112
     28  C5D       15.8210   69.5680   98.9070 C.3   501  NAD501      0.1813
     29  C4D       15.5240   71.0050   98.4620 C.3   501  NAD501      0.1799
     30  O4D       14.2380   71.4440   99.0030 O.3   501  NAD501     -0.3327
     31  C3D       16.5760   71.9680   99.0560 C.3   501  NAD501      0.2158
     32  O3D       16.7840   73.1450   98.2430 O.3   501  NAD501     -0.2175
     33  C2D       15.8910   72.4650  100.3490 C.3   501  NAD501      0.2309
     34  O2D       16.3930   73.7370  100.7850 O.3   501  NAD501     -0.2158
     35  C1D       14.4390   72.5820   99.8870 C.3   501  NAD501      0.2263
     36  N1N       13.4900   72.5870  101.0110 N.pl3 501  NAD501     -0.2787
     37  C2N       13.4460   71.5160  101.8130 C.3   501  NAD501      0.1244
     38  C3N       12.5640   71.4600  102.8720 C.2   501  NAD501      0.0544
     39  C7N       12.5210   70.3030  103.7820 C.2   501  NAD501      0.2818
     40  O7N       11.7560   70.3890  104.7400 O.2   501  NAD501     -0.2670
     41  N7N       13.2900   69.2160  103.6190 N.am  501  NAD501     -0.0839
     42  C4N       11.6950   72.5540  103.1080 C.2   501  NAD501      0.0033
     43  C5N       11.7600   73.6360  102.2460 C.2   501  NAD501      0.0157
     44  C6N       12.6830   73.6350  101.1990 C.2   501  NAD501      0.0633
@<TRIPOS>BOND
     1    19    20    1
     2    19    17    2
     3    20    21    1
     4    18    17    1
     5    17    16    1
     6    21    22    2
     7    16    22    1
     8    16    15    2
     9    22    13    1
    10    15    14    1
    11    13    12    1
    12    13    14    1
    13    12     7    1
    14    12    10    1
    15     7     6    1
    16     6     8    1
    17     6     5    1
    18    32    31    1
    19    10    11    1
    20    10     8    1
    21     9     8    1
    22    29    28    1
    23    29    30    1
    24    29    31    1
    25     5     4    1
    26    28    27    1
    27    30    35    1
    28    31    33    1
    29     4     1    1
    30    35    33    1
    31    35    36    1
    32    26    24    2
    33    27    24    1
    34    33    34    1
    35    24    23    1
    36    24    25    1
    37    36    44    1
    38    36    37    1
    39    23     1    1
    40     1     3    2
    41     1     2    1
    42    44    43    2
    43    37    38    1
    44    43    42    1
    45    38    42    2
    46    38    39    1
    47    41    39   am
    48    39    40    2
