@<TRIPOS>MOLECULE
3pw0_DTP_A_1.pdb
 30 32 0 0 0
SMALL
GASTEIGER

@<TRIPOS>ATOM
      1  PG       118.1160  141.4020   54.9150 P.3   400  DTP400      0.5373
      2  O1G      118.3600  140.0650   54.3130 O.3   400  DTP400     -0.1143
      3  O2G      116.5580  141.5160   55.0810 O.3   400  DTP400     -0.1143
      4  O3G      118.4470  142.6730   53.9820 O.2   400  DTP400     -0.2221
      5  PB       118.0660  141.7640   57.6600 P.3   400  DTP400      0.2277
      6  O1B      118.4160  142.8940   58.5270 O.3   400  DTP400     -0.4368
      7  O2B      116.6060  141.7590   57.3760 O.2   400  DTP400     -0.5168
      8  O3B      118.8150  141.5580   56.3180 O.3   400  DTP400     -0.2258
      9  PA       118.6270  139.7560   59.6180 P.3   400  DTP400      0.2189
     10  O1A      117.4960  140.1890   60.4570 O.3   400  DTP400     -0.4371
     11  O2A      118.7160  138.2850   59.5120 O.2   400  DTP400     -0.5170
     12  O3A      118.2300  140.2650   58.2210 O.3   400  DTP400     -0.2700
     13  O5'      119.8720  140.5610   60.2000 O.3   400  DTP400     -0.3112
     14  C5'      120.7100  139.8050   60.6020 C.3   400  DTP400      0.1813
     15  C4'      121.6330  140.2510   61.6180 C.3   400  DTP400      0.1795
     16  O4'      122.3530  138.9770   61.6530 O.3   400  DTP400     -0.3155
     17  C3'      122.5080  141.3450   61.0210 C.3   400  DTP400      0.1883
     18  O3'      122.6940  142.2910   61.7880 O.3   400  DTP400     -0.2202
     19  C2'      123.7080  140.5760   60.6620 C.3   400  DTP400      0.1151
     20  C1'      123.6450  139.4680   61.7160 C.3   400  DTP400      0.2873
     21  N9       124.6880  138.6380   61.3660 N.pl3 400  DTP400     -0.1460
     22  C8       124.5130  137.5440   60.5440 C.3   400  DTP400      0.3377
     23  N7       125.5860  136.8760   60.3210 N.2   400  DTP400     -0.2095
     24  C5       126.5240  137.5770   61.0400 C.2   400  DTP400      0.2526
     25  C6       127.8960  137.3850   61.2280 C.2   400  DTP400      0.4393
     26  N6       128.5450  136.3640   60.6600 N.pl3 400  DTP400      0.2180
     27  N1       128.5670  138.2810   62.0240 N.2   400  DTP400      0.0021
     28  C2       127.8880  139.3080   62.5930 C.3   400  DTP400      0.5254
     29  N3       126.5920  139.5850   62.4850 N.2   400  DTP400     -0.0055
     30  C4       125.9800  138.6670   61.6880 C.2   400  DTP400      0.3518
@<TRIPOS>BOND
     1     4     1    2
     2     2     1    1
     3     1     3    1
     4     1     8    1
     5     8     5    1
     6     7     5    2
     7     5    12    1
     8     5     6    1
     9    12     9    1
    10    11     9    2
    11     9    13    1
    12     9    10    1
    13    13    14    1
    14    23    22    1
    15    23    24    2
    16    22    21    1
    17    14    15    1
    18    26    25    1
    19    19    17    1
    20    19    20    1
    21    17    15    1
    22    17    18    1
    23    24    25    1
    24    24    30    1
    25    25    27    2
    26    21    30    1
    27    21    20    1
    28    15    16    1
    29    16    20    1
    30    30    29    2
    31    27    28    1
    32    29    28    1
