@<TRIPOS>MOLECULE
3pw2_TTP_A_1.pdb
 29 30 0 0 0
SMALL
GASTEIGER

@<TRIPOS>ATOM
      1  PA       -72.4790  -90.4440  111.4830 P.3   400  TTP400      0.2189
      2  O1A      -71.9710  -91.4860  112.4700 O.3   400  TTP400     -0.4371
      3  O2A      -71.7200  -89.2200  111.6940 O.2   400  TTP400     -0.5170
      4  O3A      -72.0310  -91.0790  110.2180 O.3   400  TTP400     -0.2700
      5  PB       -72.6490  -92.3380  109.4560 P.3   400  TTP400      0.2277
      6  O1B      -73.8970  -92.9630  109.8370 O.3   400  TTP400     -0.4368
      7  O2B      -71.5870  -93.3030  109.7900 O.2   400  TTP400     -0.5168
      8  O3B      -72.3870  -91.7140  108.1150 O.3   400  TTP400     -0.2258
      9  PG       -71.1550  -91.8900  107.2530 P.3   400  TTP400      0.5373
     10  O1G      -70.5460  -90.5760  106.9860 O.3   400  TTP400     -0.1143
     11  O2G      -70.0650  -92.8010  107.9000 O.3   400  TTP400     -0.1143
     12  O3G      -71.5430  -92.6930  105.9340 O.2   400  TTP400     -0.2221
     13  O5'      -74.0520  -90.5910  111.5810 O.3   400  TTP400     -0.3112
     14  C5'      -74.4580  -90.8600  112.6920 C.3   400  TTP400      0.1812
     15  C4'      -74.5590  -92.2350  113.2890 C.3   400  TTP400      0.1773
     16  O4'      -75.1730  -91.6450  114.5040 O.3   400  TTP400     -0.3339
     17  C3'      -75.5250  -93.1050  112.5340 C.3   400  TTP400      0.1857
     18  O3'      -75.0850  -94.2190  112.2490 O.3   400  TTP400     -0.2203
     19  C2'      -76.7730  -93.0690  113.3760 C.3   400  TTP400      0.0874
     20  C1'      -76.5530  -91.9360  114.4090 C.3   400  TTP400      0.2090
     21  N1       -77.5670  -90.8120  113.9480 N.am  400  TTP400     -0.1794
     22  C2       -78.8920  -90.8150  114.3490 C.1   400  TTP400      0.2844
     23  O2       -79.3550  -91.6720  115.0780 O.2   400  TTP400     -0.1918
     24  N3       -79.6590  -89.7600  113.8570 N.2   400  TTP400     -0.2455
     25  C4       -79.1940  -88.6780  112.9710 C.1   400  TTP400      0.2134
     26  O4       -79.9680  -87.7830  112.5910 O.2   400  TTP400     -0.2088
     27  C5       -77.7980  -88.7900  112.6240 C.2   400  TTP400      0.0891
     28  C5M      -77.2180  -87.7380  111.7200 C.3   400  TTP400      0.0462
     29  C6       -77.0720  -89.8070  113.1060 C.2   400  TTP400      0.0877
@<TRIPOS>BOND
     1    12     9    2
     2    10     9    1
     3     9    11    1
     4     9     8    1
     5     8     5    1
     6     5     7    2
     7     5     6    1
     8     5     4    1
     9     4     1    1
    10     1    13    1
    11     1     3    2
    12     1     2    1
    13    13    14    1
    14    28    27    1
    15    18    17    1
    16    17    15    1
    17    17    19    1
    18    26    25    2
    19    27    25    1
    20    27    29    2
    21    14    15    1
    22    25    24    2
    23    29    21    1
    24    15    16    1
    25    19    20    1
    26    24    22    2
    27    21    22   am
    28    21    20    1
    29    22    23    2
    30    20    16    1
