@<TRIPOS>MOLECULE
3pw4_DTP_A_1.pdb
 30 32 0 0 0
SMALL
GASTEIGER

@<TRIPOS>ATOM
      1  PG       -24.2410 -141.7630   54.9550 P.3   400  DTP400      0.5373
      2  O1G      -23.9610 -140.3300   54.7350 O.3   400  DTP400     -0.1143
      3  O2G      -22.8270 -142.4920   55.0190 O.3   400  DTP400     -0.1143
      4  O3G      -25.0810 -142.3910   53.7910 O.2   400  DTP400     -0.2221
      5  PB       -24.6420 -142.6810   57.3940 P.3   400  DTP400      0.2277
      6  O1B      -25.6000 -143.6240   58.0370 O.3   400  DTP400     -0.4368
      7  O2B      -23.3280 -143.3890   57.1400 O.2   400  DTP400     -0.5168
      8  O3B      -25.0040 -141.9220   56.1740 O.3   400  DTP400     -0.2258
      9  PA       -24.8270 -140.6930   59.2450 P.3   400  DTP400      0.2189
     10  O1A      -23.6870 -141.3140   60.0470 O.3   400  DTP400     -0.4371
     11  O2A      -24.5940 -139.2510   59.5300 O.2   400  DTP400     -0.5170
     12  O3A      -24.3280 -141.1990   57.9410 O.3   400  DTP400     -0.2700
     13  O5'      -25.8580 -141.7850   59.8650 O.3   400  DTP400     -0.3112
     14  C5'      -26.5740 -141.5140   60.7530 C.3   400  DTP400      0.1813
     15  C4'      -27.3090 -142.4780   61.4910 C.3   400  DTP400      0.1795
     16  O4'      -27.9340 -141.4610   62.3610 O.3   400  DTP400     -0.3155
     17  C3'      -28.3060 -143.1750   60.5920 C.3   400  DTP400      0.1883
     18  O3'      -28.2820 -144.3830   60.5610 O.3   400  DTP400     -0.2202
     19  C2'      -29.6160 -142.5530   60.9470 C.3   400  DTP400      0.1151
     20  C1'      -29.3140 -141.4520   62.0340 C.3   400  DTP400      0.2873
     21  N9       -29.8090 -140.2370   61.3910 N.pl3 400  DTP400     -0.1460
     22  C8       -28.9970 -139.3690   60.6780 C.3   400  DTP400      0.3377
     23  N7       -29.5980 -138.3470   60.1780 N.2   400  DTP400     -0.2095
     24  C5       -30.9070 -138.5280   60.5770 C.2   400  DTP400      0.2526
     25  C6       -32.0940 -137.7650   60.3760 C.2   400  DTP400      0.4393
     26  N6       -32.0990 -136.6050   59.6700 N.pl3 400  DTP400      0.2180
     27  N1       -33.2660 -138.2470   60.9320 N.2   400  DTP400      0.0021
     28  C2       -33.2540 -139.4090   61.6380 C.3   400  DTP400      0.5254
     29  N3       -32.2060 -140.1970   61.8880 N.2   400  DTP400     -0.0055
     30  C4       -31.0590 -139.6890   61.3260 C.2   400  DTP400      0.3518
@<TRIPOS>BOND
     1     4     1    2
     2     2     1    1
     3     1     3    1
     4     1     8    1
     5     8     5    1
     6     7     5    2
     7     5    12    1
     8     5     6    1
     9    12     9    1
    10     9    11    2
    11     9    13    1
    12     9    10    1
    13    26    25    1
    14    13    14    1
    15    23    24    2
    16    23    22    1
    17    25    24    1
    18    25    27    2
    19    18    17    1
    20    24    30    1
    21    17    19    1
    22    17    15    1
    23    22    21    1
    24    14    15    1
    25    27    28    1
    26    19    20    1
    27    30    21    1
    28    30    29    2
    29    21    20    1
    30    15    16    1
    31    28    29    1
    32    20    16    1
