@<TRIPOS>MOLECULE
3pw5_TTP_A_1.pdb
 29 30 0 0 0
SMALL
GASTEIGER

@<TRIPOS>ATOM
      1  PA       -72.5220 -142.7400   85.4060 P.3   400  TTP400      0.2189
      2  O1A      -71.8690 -143.7080   86.3970 O.3   400  TTP400     -0.4371
      3  O2A      -72.0570 -141.3540   85.6590 O.2   400  TTP400     -0.5170
      4  O3A      -71.9850 -143.1850   84.0430 O.3   400  TTP400     -0.2700
      5  PB       -72.3040 -144.5910   83.3480 P.3   400  TTP400      0.2277
      6  O1B      -73.2140 -145.5370   84.0120 O.3   400  TTP400     -0.4368
      7  O2B      -70.9800 -145.1990   83.1580 O.2   400  TTP400     -0.5168
      8  O3B      -72.7200 -144.0390   82.0250 O.3   400  TTP400     -0.2258
      9  PG       -71.8820 -144.0940   80.7840 P.3   400  TTP400      0.5373
     10  O1G      -71.6180 -142.7450   80.2410 O.3   400  TTP400     -0.1143
     11  O2G      -70.4850 -144.7870   81.0300 O.3   400  TTP400     -0.1143
     12  O3G      -72.6090 -145.0710   79.7400 O.2   400  TTP400     -0.2221
     13  O5'      -74.0800 -143.1620   85.4090 O.3   400  TTP400     -0.3112
     14  C5'      -74.5170 -143.3590   86.5080 C.3   400  TTP400      0.1812
     15  C4'      -74.7070 -144.6090   87.2920 C.3   400  TTP400      0.1773
     16  O4'      -75.3030 -143.7950   88.3710 O.3   400  TTP400     -0.3339
     17  C3'      -75.7140 -145.4870   86.6140 C.3   400  TTP400      0.1857
     18  O3'      -75.3840 -146.6680   86.5380 O.3   400  TTP400     -0.2203
     19  C2'      -76.9960 -145.2060   87.3420 C.3   400  TTP400      0.0874
     20  C1'      -76.7000 -144.0520   88.3370 C.3   400  TTP400      0.2090
     21  N1       -77.6860 -142.8970   87.8760 N.am  400  TTP400     -0.1794
     22  C2       -79.0340 -142.8300   88.2410 C.1   400  TTP400      0.2844
     23  O2       -79.5710 -143.6590   88.9520 O.2   400  TTP400     -0.1918
     24  N3       -79.7340 -141.7250   87.7250 N.2   400  TTP400     -0.2455
     25  C4       -79.2300 -140.7110   86.9000 C.1   400  TTP400      0.2134
     26  O4       -79.9630 -139.7820   86.5110 O.2   400  TTP400     -0.2088
     27  C5       -77.8180 -140.8650   86.5690 C.2   400  TTP400      0.0891
     28  C5M      -77.1710 -139.7950   85.6610 C.3   400  TTP400      0.0462
     29  C6       -77.1270 -141.9140   87.0540 C.2   400  TTP400      0.0877
@<TRIPOS>BOND
     1    12     9    2
     2    10     9    1
     3     9    11    1
     4     9     8    1
     5     8     5    1
     6     7     5    2
     7     5     6    1
     8     5     4    1
     9     4     1    1
    10     1    13    1
    11     1     3    2
    12     1     2    1
    13    13    14    1
    14    28    27    1
    15    14    15    1
    16    26    25    2
    17    18    17    1
    18    27    25    1
    19    27    29    2
    20    17    15    1
    21    17    19    1
    22    25    24    2
    23    29    21    1
    24    15    16    1
    25    19    20    1
    26    24    22    2
    27    21    22   am
    28    21    20    1
    29    22    23    2
    30    20    16    1
