@<TRIPOS>MOLECULE
3pw7_DCP_A_1.pdb
 28 29 0 0 0
SMALL
GASTEIGER

@<TRIPOS>ATOM
      1  N1        22.9630   -5.6700    0.2700 N.am  400  DCP400     -0.1802
      2  C2        23.7430   -6.5100   -0.5960 C.1   400  DCP400      0.2756
      3  N3        25.0500   -6.1610   -0.7970 N.2   400  DCP400     -0.3024
      4  C4        25.5790   -5.0590   -0.1920 C.2   400  DCP400      0.2346
      5  C5        24.8080   -4.2240    0.6780 C.2   400  DCP400      0.0687
      6  C6        23.5080   -4.5950    0.8580 C.2   400  DCP400      0.0835
      7  O2        23.2180   -7.5190   -1.1260 O.2   400  DCP400     -0.1925
      8  N4        26.8270   -4.7730   -0.4380 N.pl3 400  DCP400     -0.0921
      9  C1'       21.4580   -5.9400    0.6020 C.3   400  DCP400      0.2090
     10  C2'       21.5500   -6.8550    1.8400 C.3   400  DCP400      0.0874
     11  C3'       20.2890   -6.6950    2.5650 C.3   400  DCP400      0.1857
     12  C4'       19.6180   -5.5380    1.8380 C.3   400  DCP400      0.1773
     13  O4'       20.5390   -4.8940    0.8280 O.3   400  DCP400     -0.3339
     14  O3'       19.6440   -7.7240    2.6920 O.3   400  DCP400     -0.2203
     15  C5'       19.4300   -4.3880    2.7790 C.3   400  DCP400      0.1812
     16  O5'       18.7280   -4.4910    3.7970 O.3   400  DCP400     -0.3112
     17  PA        19.1790   -3.7060    5.1960 P.3   400  DCP400      0.2189
     18  O1A       17.9140   -2.9450    5.6120 O.3   400  DCP400     -0.4371
     19  O2A       20.4100   -2.8550    5.2720 O.2   400  DCP400     -0.5170
     20  O3A       19.3320   -4.7520    6.3180 O.3   400  DCP400     -0.2700
     21  PB        18.3240   -5.9680    6.6980 P.3   400  DCP400      0.2277
     22  O1B       17.0950   -6.3050    5.9470 O.2   400  DCP400     -0.5168
     23  O2B       18.0820   -5.9070    8.2250 O.3   400  DCP400     -0.4368
     24  O3B       19.4680   -6.8770    6.4070 O.3   400  DCP400     -0.2258
     25  PG        20.3290   -7.6290    7.3070 P.3   400  DCP400      0.5373
     26  O1G       21.7450   -7.2030    7.1440 O.3   400  DCP400     -0.1143
     27  O2G       19.9400   -7.3670    8.8080 O.3   400  DCP400     -0.1143
     28  O3G       20.1410   -9.1770    6.9750 O.2   400  DCP400     -0.2221
@<TRIPOS>BOND
     1     7     2    2
     2     3     2    2
     3     3     4    2
     4     2     1   am
     5     8     4    1
     6     4     5    1
     7     1     9    1
     8     1     6    1
     9     9    13    1
    10     9    10    1
    11     5     6    2
    12    13    12    1
    13    12    11    1
    14    12    15    1
    15    10    11    1
    16    11    14    1
    17    15    16    1
    18    16    17    1
    19    17    19    2
    20    17    18    1
    21    17    20    1
    22    22    21    2
    23    20    21    1
    24    24    21    1
    25    24    25    1
    26    21    23    1
    27    28    25    2
    28    26    25    1
    29    25    27    1
