@<TRIPOS>MOLECULE
3pwc_ANH_A_1.pdb
 30 31 0 0 0
SMALL
GASTEIGER

@<TRIPOS>ATOM
      1  N12       15.9320   19.5860   34.6750 N.am  481  ANH481     -0.1941
      2  C13       16.1410   18.1630   34.8530 C.3   481  ANH481      0.1978
      3  C30       15.6020   17.5950   33.5460 C.3   481  ANH481      0.0595
      4  C14       17.5850   17.7970   35.0310 C.2   481  ANH481      0.3374
      5  O17       18.0620   16.8050   34.4990 O.2   481  ANH481     -0.2482
      6  O15       18.4300   18.6380   35.8510 O.3   481  ANH481     -0.4432
      7  C16       18.6080   20.0290   35.5650 C.3   481  ANH481      0.2557
      8  C21       14.0990   17.7400   33.4900 C.ar  481  ANH481     -0.0196
      9  C22       13.5330   18.5600   32.5110 C.ar  481  ANH481     -0.0042
     10  C23       12.1410   18.6700   32.4740 C.ar  481  ANH481     -0.0001
     11  C24       11.3520   17.9790   33.3910 C.ar  481  ANH481      0.0080
     12  C25       11.9230   17.1560   34.3670 C.ar  481  ANH481      0.0972
     13  C26       13.3110   17.0490   34.4110 C.ar  481  ANH481      0.0038
     14  C27       11.0620   16.4120   35.3610 C.2   481  ANH481      0.4766
     15  N28       11.5950   15.6210   36.3110 N.pl3 481  ANH481      0.2047
     16  N29        9.7390   16.4980   35.2870 N.pl3 481  ANH481      0.2047
     17  C11       15.0720   20.1260   35.5230 C.2   481  ANH481      0.2616
     18  C10       14.7530   21.6060   35.4330 C.3   481  ANH481      0.2017
     19  N9        15.6140   22.3830   34.5600 N.3   481  ANH481     -0.0678
     20  O20       14.5560   19.4190   36.3700 O.2   481  ANH481     -0.2717
     21  C1        12.1300   26.9120   37.9160 C.3   481  ANH481      0.0310
     22  C2        13.1920   26.1210   37.1870 C.ar  481  ANH481     -0.0218
     23  C3        13.9470   25.1620   37.8560 C.ar  481  ANH481     -0.0029
     24  C4        14.9140   24.4260   37.1680 C.ar  481  ANH481      0.0196
     25  C5        15.1540   24.6400   35.8090 C.ar  481  ANH481      0.1235
     26  C6        14.3870   25.5960   35.1420 C.ar  481  ANH481      0.0196
     27  C7        13.4180   26.3320   35.8280 C.ar  481  ANH481     -0.0029
     28  S8        16.2690   23.7690   35.0550 S.O2  481  ANH481      0.0773
     29  O18       17.3310   23.4640   35.9720 O.2   481  ANH481     -0.1516
     30  O19       16.7750   24.5300   33.9480 O.2   481  ANH481     -0.1516
@<TRIPOS>BOND
     1    10     9   ar
     2    10    11   ar
     3     9     8   ar
     4    11    12   ar
     5     8     3    1
     6     8    13   ar
     7     3     2    1
     8    30    28    2
     9    12    13   ar
    10    12    14    1
    11     5     4    2
    12    19    28    1
    13    19    18    1
    14     1     2    1
    15     1    17   am
    16     2     4    1
    17     4     6    1
    18    28    25    1
    19    28    29    2
    20    26    25   ar
    21    26    27   ar
    22    16    14    2
    23    14    15    1
    24    18    17    1
    25    17    20    2
    26     7     6    1
    27    25    24   ar
    28    27    22   ar
    29    24    23   ar
    30    22    23   ar
    31    22    21    1
