@<TRIPOS>MOLECULE
3pwd_CZ0_A_1.pdb
 20 22 0 0 0
SMALL
GASTEIGER

@<TRIPOS>ATOM
      1  C1        23.3690    9.4640   16.2220 C.ar    1  CZ01        0.0438
      2  N1        25.1950    6.3090   16.3890 N.pl3   1  CZ01        0.0609
      3  C2        24.1450    8.3660   15.8930 C.ar    1  CZ01        0.2180
      4  O2        25.4870    5.3770   17.1230 O.2     1  CZ01       -0.1260
      5  C3        24.3990    7.3770   16.8210 C.ar    1  CZ01        0.1816
      6  O3        25.6000    6.3220   15.2410 O.2     1  CZ01       -0.1260
      7  C4        22.8380    9.5690   17.4970 C.ar    1  CZ01        0.0034
      8  C5        23.0830    8.5790   18.4340 C.ar    1  CZ01        0.0020
      9  C6        23.8690    7.4730   18.1110 C.ar    1  CZ01        0.0287
     10  C7        24.0990    6.4880   19.0800 C.ar    1  CZ01        0.0394
     11  C8        22.5310    8.7020   19.7050 C.ar    1  CZ01        0.0028
     12  C9        22.7640    7.7220   20.6620 C.ar    1  CZ01        0.0309
     13  C10       23.5440    6.6120   20.3600 C.ar    1  CZ01        0.1484
     14  O11       23.7610    5.6510   21.3300 O.2     1  CZ01       -0.4211
     15  C12       23.2290    5.7630   22.5940 C.ar    1  CZ01        0.3456
     16  C13       22.4350    6.8570   22.9540 C.ar    1  CZ01        0.0781
     17  C14       22.1840    7.8530   22.0220 C.ar    1  CZ01       -0.0125
     18  O15       24.6580    8.2470   14.6440 O.3     1  CZ01       -0.2848
     19  O16       23.4550    4.8610   23.4310 O.2     1  CZ01       -0.2445
     20  C17       21.3450    9.0520   22.3640 C.3     1  CZ01        0.0313
@<TRIPOS>BOND
     1    18     3    1
     2     6     2    2
     3     3     1   ar
     4     3     5   ar
     5     1     7   ar
     6     2     5    1
     7     2     4    2
     8     5     9   ar
     9     7     8   ar
    10     9     8   ar
    11     9    10   ar
    12     8    11   ar
    13    10    13   ar
    14    11    12   ar
    15    13    12   ar
    16    13    14   ar
    17    12    17   ar
    18    14    15   ar
    19    17    20    1
    20    17    16   ar
    21    15    16   ar
    22    15    19    2
