@<TRIPOS>MOLECULE
3pwh_ZMA_A_1.pdb
 25 28 0 0 0
SMALL
GASTEIGER

@<TRIPOS>ATOM
      1  C1        50.3720   22.8670   38.1150 C.ar  401  ZMA401     -0.0009
      2  C2        49.2310   22.6400   38.8880 C.ar  401  ZMA401      0.0417
      3  C3        48.3370   21.6350   38.5280 C.ar  401  ZMA401      0.1957
      4  O4        47.2340   21.4470   39.3130 O.3   401  ZMA401     -0.2866
      5  C5        48.5660   20.8500   37.4040 C.ar  401  ZMA401      0.0417
      6  C6        49.7070   21.0760   36.6310 C.ar  401  ZMA401     -0.0009
      7  C7        50.6200   22.0850   36.9790 C.ar  401  ZMA401     -0.0202
      8  C8        51.8450   22.3230   36.1340 C.3   401  ZMA401      0.0506
      9  C9        51.7260   21.6110   34.7830 C.3   401  ZMA401      0.1309
     10  N10       52.2520   22.4240   33.7000 N.pl3 401  ZMA401     -0.1508
     11  C11       51.4940   23.0470   32.7500 C.1   401  ZMA401      0.2337
     12  N12       50.1690   22.7170   32.6330 N.2   401  ZMA401     -0.2439
     13  N13       52.1860   23.9630   31.9940 N.2   401  ZMA401     -0.2893
     14  C14       51.5390   24.6420   31.0180 C.cat 401  ZMA401      0.3237
     15  N15       52.1260   25.5740   30.2070 N.pl3 401  ZMA401     -0.0749
     16  N16       50.1280   24.3100   30.8730 N.pl3 401  ZMA401     -0.0559
     17  N17       49.1250   24.7850   29.9920 N.2   401  ZMA401     -0.0900
     18  C18       49.5010   23.3820   31.6650 C.1   401  ZMA401      0.2508
     19  N19       48.1460   23.2560   31.3140 N.2   401  ZMA401     -0.2666
     20  C20       47.9470   24.1180   30.2990 C.1   401  ZMA401      0.1525
     21  C21       46.6710   24.3420   29.5860 C.ar  401  ZMA401      0.2205
     22  C22       45.5270   23.5780   29.7090 C.ar  401  ZMA401      0.0523
     23  C23       44.5580   24.1470   28.8450 C.ar  401  ZMA401      0.0446
     24  C24       45.1660   25.2230   28.2410 C.ar  401  ZMA401      0.1807
     25  O25       46.4430   25.3480   28.6800 O.2   401  ZMA401     -0.4394
@<TRIPOS>BOND
     1    24    25   ar
     2    24    23   ar
     3    25    21   ar
     4    23    22   ar
     5    21    22   ar
     6    21    20    1
     7    17    20    2
     8    17    16    1
     9    15    14    1
    10    20    19    2
    11    16    14    1
    12    16    18    1
    13    14    13    2
    14    19    18    2
    15    18    12    2
    16    13    11    2
    17    12    11    2
    18    11    10    1
    19    10     9    1
    20     9     8    1
    21     8     7    1
    22     6     7   ar
    23     6     5   ar
    24     7     1   ar
    25     5     3   ar
    26     1     2   ar
    27     3     2   ar
    28     3     4    1
