@<TRIPOS>MOLECULE
3pwk_25A_A_1.pdb
 27 29 0 0 0
SMALL
GASTEIGER

@<TRIPOS>ATOM
      1  O2'        2.2840   16.1760   49.2020 O.2   367  25A367     -0.2224
      2  P1         3.2320   15.2410   49.9250 P.3   367  25A367      0.5327
      3  OBP        4.5030   15.8960   50.4020 O.3   367  25A367     -0.1145
      4  OCP        3.4310   13.9270   49.2080 O.3   367  25A367     -0.1145
      5  OF'        2.4040   14.8240   51.2370 O.3   367  25A367     -0.2675
      6  CF'        1.0910   14.2860   51.1400 C.3   367  25A367      0.1860
      7  CE'        0.6310   13.8510   52.5190 C.3   367  25A367      0.1822
      8  OE'       -0.7580   13.5390   52.4100 O.3   367  25A367     -0.3136
      9  CB'       -0.9870   12.2620   52.9980 C.3   367  25A367      0.3158
     10  N19       -2.1590   11.6110   52.3890 N.pl3 367  25A367     -0.1439
     11  C18       -2.3650   11.3450   51.0860 C.3   367  25A367      0.3377
     12  N17       -3.5570   10.7210   50.9510 N.2   367  25A367     -0.2095
     13  C15       -4.0940   10.6130   52.1870 C.2   367  25A367      0.2526
     14  C14       -3.2000   11.1720   53.0910 C.2   367  25A367      0.3518
     15  N13       -3.4820   11.2050   54.4210 N.2   367  25A367     -0.0055
     16  C12       -4.6360   10.6750   54.8570 C.3   367  25A367      0.5254
     17  N11       -5.5230   10.1180   54.0050 N.2   367  25A367      0.0021
     18  C16       -5.2790   10.0730   52.6720 C.2   367  25A367      0.4393
     19  N16       -6.1790    9.5140   51.8260 N.pl3 367  25A367      0.2180
     20  CC'        0.2930   11.4950   52.7020 C.3   367  25A367      0.2314
     21  OC'        0.4090   10.3360   53.5390 O.3   367  25A367     -0.2630
     22  CD'        1.3090   12.5760   53.0170 C.3   367  25A367      0.2157
     23  OD'        1.4640   12.6760   54.4510 O.3   367  25A367     -0.2175
     24  P2         1.0970    8.9390   53.0740 P.3   367  25A367      0.5328
     25  OLP        2.5610    9.1890   53.3500 O.3   367  25A367     -0.1145
     26  OMP        0.7840    8.7280   51.6050 O.2   367  25A367     -0.2224
     27  OP'        0.4480    7.9280   54.0000 O.3   367  25A367     -0.1145
@<TRIPOS>BOND
     1     1     2    2
     2     4     2    1
     3     2     3    1
     4     2     5    1
     5    12    11    1
     6    12    13    2
     7    11    10    1
     8     6     5    1
     9     6     7    1
    10    26    24    2
    11    19    18    1
    12    13    18    1
    13    13    14    1
    14    10     9    1
    15    10    14    1
    16     8     7    1
    17     8     9    1
    18     7    22    1
    19    18    17    2
    20    20     9    1
    21    20    22    1
    22    20    21    1
    23    22    23    1
    24    24    25    1
    25    24    21    1
    26    24    27    1
    27    14    15    2
    28    17    16    1
    29    15    16    1
