@<TRIPOS>MOLECULE
3pwk_L14_A_1.pdb
 12 12 0 0 0
SMALL
GASTEIGER

@<TRIPOS>ATOM
      1  OAA        2.2710   23.2630   43.9810 O.co2 368  L14368     -0.2457
      2  OAB       -3.5290   25.7130   47.0620 O.co2 368  L14368     -0.2457
      3  OAC        3.4250   24.8700   44.9880 O.co2 368  L14368     -0.2457
      4  OAD       -2.1020   25.3660   48.7120 O.co2 368  L14368     -0.2457
      5  CAE        0.3770   23.1890   46.0160 C.3   368  L14368      0.0118
      6  CAF       -0.7430   23.5750   46.9810 C.3   368  L14368      0.0118
      7  CAG        0.6330   25.6210   45.3610 C.3   368  L14368      0.0118
      8  CAH       -0.4870   26.0070   46.3000 C.3   368  L14368      0.0118
      9  CAI        2.4200   24.1380   44.8660 C.2   368  L14368      0.3643
     10  CAJ       -2.4300   25.3350   47.5040 C.2   368  L14368      0.3643
     11  CAK        1.3430   24.3730   45.8710 C.3   368  L14368      0.1034
     12  CAL       -1.4520   24.8430   46.4950 C.3   368  L14368      0.1034
@<TRIPOS>BOND
     1     1     9   ar
     2     9     3   ar
     3     9    11    1
     4     7    11    1
     5     7     8    1
     6    11     5    1
     7     5     6    1
     8     8    12    1
     9    12     6    1
    10    12    10    1
    11     2    10   ar
    12    10     4   ar
