@<TRIPOS>MOLECULE
3pwm_017_B_1.pdb
 39 42 0 0 0
SMALL
GASTEIGER

@<TRIPOS>ATOM
      1  N1         7.2120   14.4990   14.5710 N.pl3 402  017402     -0.1281
      2  N1        17.9570   25.6100   20.4090 N.4   402  017402     -0.0246
      3  C2         8.0170   15.5300   14.8510 C.ar  402  017402      0.0892
      4  C3         9.3760   15.5090   14.5770 C.ar  402  017402      0.0194
      5  C4        10.1760   16.6190   14.8830 C.ar  402  017402      0.0213
      6  C5         9.6200   17.6670   15.6050 C.ar  402  017402      0.1223
      7  C6         8.2700   17.6550   15.9090 C.ar  402  017402      0.0213
      8  C7         7.4580   16.6020   15.5490 C.ar  402  017402      0.0194
      9  S8        10.5730   19.0600   16.1150 S.O2  402  017402      0.0634
     10  O9        11.6640   19.2760   15.1330 O.2   402  017402     -0.1528
     11  O10        9.6740   20.2340   16.2800 O.2   402  017402     -0.1528
     12  N11       11.2780   18.7540   17.5620 N.3   402  017402     -0.1529
     13  C12       10.4050   18.4100   18.6550 C.3   402  017402      0.0958
     14  C13       10.7140   19.0590   20.0220 C.3   402  017402      0.0178
     15  C14       10.7190   20.5820   19.9290 C.3   402  017402      0.0015
     16  C15        9.6060   18.6240   21.0130 C.3   402  017402      0.0015
     17  C16       12.5300   18.0240   17.4860 C.3   402  017402      0.1304
     18  C17       13.6530   18.8770   18.0620 C.3   402  017402      0.1898
     19  O18       14.7870   18.1030   18.4090 O.3   402  017402     -0.2197
     20  C19       14.0430   20.0180   17.1240 C.3   402  017402      0.1347
     21  N20       14.8930   20.9470   17.8660 N.am  402  017402     -0.1675
     22  C21       14.6400   22.2020   18.2380 C.2   402  017402      0.4210
     23  O22       13.5660   22.7580   17.9910 O.2   402  017402     -0.2246
     24  O23       15.6630   22.7980   18.8910 O.3   402  017402     -0.4371
     25  C24       15.5010   24.2120   19.1040 C.3   402  017402      0.1769
     26  C25       16.0760   24.5420   20.4880 C.3   402  017402      0.0476
     27  O26       17.4870   24.4300   20.2780 O.3   402  017402     -0.2209
     28  C27       17.7700   24.9680   18.9950 C.3   402  017402      0.3009
     29  O28       18.7220   24.1400   18.3060 O.3   402  017402     -0.3188
     30  C29       18.0430   23.3900   17.3460 C.3   402  017402      0.1465
     31  C30       16.8730   24.2860   16.8940 C.3   402  017402      0.0424
     32  C31       16.4750   24.9400   18.1950 C.3   402  017402      0.1152
     33  C32       14.7850   19.5270   15.8920 C.3   402  017402      0.0508
     34  C33       16.4810   21.0740   14.8380 C.ar  402  017402     -0.0042
     35  C34       16.8230   22.1650   14.0440 C.ar  402  017402     -0.0003
     36  C35       15.8470   22.9050   13.3890 C.ar  402  017402     -0.0000
     37  C36       14.5290   22.4740   13.4980 C.ar  402  017402     -0.0003
     38  C37       14.1770   21.3880   14.2850 C.ar  402  017402     -0.0042
     39  C38       15.1580   20.6880   14.9690 C.ar  402  017402     -0.0204
@<TRIPOS>BOND
     1    36    37   ar
     2    36    35   ar
     3    37    38   ar
     4    35    34   ar
     5    38    39   ar
     6     1     3    1
     7     4     3   ar
     8     4     5   ar
     9    34    39   ar
    10     3     8   ar
    11     5     6   ar
    12    39    33    1
    13    10     9    2
    14     8     7   ar
    15     6     7   ar
    16     6     9    1
    17    33    20    1
    18     9    11    2
    19     9    12    1
    20    31    30    1
    21    31    32    1
    22    20    21    1
    23    20    18    1
    24    30    29    1
    25    17    12    1
    26    17    18    1
    27    12    13    1
    28    21    22   am
    29    23    22    2
    30    18    19    1
    31    32    28    1
    32    32    25    1
    33    22    24    1
    34    29    28    1
    35    13    14    1
    36    24    25    1
    37    28    27    1
    38    28     2    1
    39    25    26    1
    40    15    14    1
    41    14    16    1
    42    27     2    1
