@<TRIPOS>MOLECULE
3pwr_ROC_A_1.pdb
 49 53 0 0 0
SMALL
GASTEIGER

@<TRIPOS>ATOM
      1  C          8.1740   16.5780   18.5500 C.2   401  ROC401      0.2949
      2  O          8.6750   15.4350   18.5920 O.2   401  ROC401     -0.2655
      3  N1         6.4560   18.2280   19.1140 N.2   401  ROC401     -0.4012
      4  C2         7.0430   17.0170   19.3870 C.2   401  ROC401      0.1857
      5  C3         6.6140   16.2840   20.4820 C.2   401  ROC401      0.0369
      6  C4         5.6430   16.8090   21.3260 C.2   401  ROC401      0.0050
      7  C5         3.9970   18.5240   21.7700 C.2   401  ROC401      0.0019
      8  C6         3.4040   19.7330   21.4380 C.2   401  ROC401     -0.0041
      9  C7         3.8880   20.4820   20.3710 C.2   401  ROC401     -0.0187
     10  C8         4.9380   19.9840   19.6090 C.3   401  ROC401      0.0849
     11  C4A        5.0550   18.0250   21.0120 C.2   401  ROC401      0.0258
     12  C8A        5.4510   18.7220   19.8710 C.2   401  ROC401      0.1135
     13  N          8.6050   17.4750   17.6540 N.am  401  ROC401     -0.1913
     14  CA         9.7870   17.3610   16.8200 C.3   401  ROC401      0.1823
     15  C1        10.7680   18.5030   17.0540 C.2   401  ROC401      0.2618
     16  O1        10.6820   19.5490   16.3900 O.2   401  ROC401     -0.2715
     17  CB         9.4770   17.2460   15.3650 C.3   401  ROC401      0.1195
     18  CG         8.6020   16.0490   15.2150 C.2   401  ROC401      0.2630
     19  OD1        9.0560   14.9010   15.2380 O.2   401  ROC401     -0.2716
     20  ND2        7.3160   16.1880   15.0880 N.am  401  ROC401     -0.0877
     21  C9        14.1040   18.7610   18.0370 C.3   401  ROC401      0.1879
     22  O2        14.4910   17.7350   18.9190 O.3   401  ROC401     -0.2198
     23  CA1       12.7160   19.3050   18.3540 C.3   401  ROC401      0.1313
     24  N2        11.7150   18.3290   17.9870 N.am  401  ROC401     -0.2027
     25  CB1       12.6390   19.6370   19.8390 C.3   401  ROC401      0.0506
     26  CG1       11.2030   19.7740   20.2870 C.ar  401  ROC401     -0.0204
     27  CD1       10.5160   20.9490   20.0300 C.ar  401  ROC401     -0.0042
     28  CD2       10.5650   18.7110   20.9030 C.ar  401  ROC401     -0.0042
     29  CE1        9.1820   21.0570   20.3810 C.ar  401  ROC401     -0.0003
     30  CE2        9.3050   18.9430   21.4140 C.ar  401  ROC401     -0.0003
     31  CZ         8.5810   20.0540   21.0790 C.ar  401  ROC401     -0.0000
     32  N11       15.1000   20.5520   16.7070 N.3   401  ROC401     -0.2643
     33  CM        15.1520   19.8340   17.9500 C.3   401  ROC401      0.1075
     34  C21       15.6320   21.9310   16.8730 C.3   401  ROC401      0.1365
     35  CC        14.8680   22.7630   17.9480 C.2   401  ROC401      0.2558
     36  O3        13.6410   22.8200   17.8820 O.2   401  ROC401     -0.2719
     37  C31       15.4540   22.6950   15.5750 C.3   401  ROC401      0.0254
     38  C3A       16.1360   21.9770   14.4120 C.3   401  ROC401      0.0032
     39  C41       15.9330   22.6700   13.0840 C.3   401  ROC401      0.0001
     40  C51       14.5350   22.4610   12.5070 C.3   401  ROC401      0.0000
     41  C61       14.3060   20.9740   12.3880 C.3   401  ROC401      0.0000
     42  C71       14.3250   20.3710   13.7530 C.3   401  ROC401      0.0014
     43  C7A       15.7130   20.5170   14.3370 C.3   401  ROC401      0.0161
     44  C81       15.8540   19.8460   15.6640 C.3   401  ROC401      0.0725
     45  N3        15.6710   23.3240   18.8500 N.am  401  ROC401     -0.2077
     46  CD        15.2690   24.1960   19.9480 C.3   401  ROC401      0.0788
     47  C11       14.4730   25.3330   19.3770 C.3   401  ROC401      0.0217
     48  C22       16.4440   24.7290   20.7260 C.3   401  ROC401      0.0217
     49  C32       14.4150   23.3800   20.8680 C.3   401  ROC401      0.0217
@<TRIPOS>BOND
     1    41    40    1
     2    41    42    1
     3    40    39    1
     4    39    38    1
     5    42    43    1
     6    43    38    1
     7    43    44    1
     8    38    37    1
     9    20    18   am
    10    18    19    2
    11    18    17    1
    12    17    14    1
    13    37    34    1
    14    44    32    1
    15    16    15    2
    16    32    34    1
    17    32    33    1
    18    14    15    1
    19    14    13    1
    20    34    35    1
    21    15    24   am
    22    13     1   am
    23    36    35    2
    24    35    45   am
    25    33    21    1
    26    24    23    1
    27    21    23    1
    28    21    22    1
    29    23    25    1
    30     1     2    2
    31     1     4    1
    32    45    46    1
    33     3     4    2
    34     3    12    2
    35    47    46    1
    36     4     5    1
    37    10    12    1
    38    10     9    1
    39    25    26    1
    40    12    11    1
    41    46    48    1
    42    46    49    1
    43    27    26   ar
    44    27    29   ar
    45    26    28   ar
    46     9     8    2
    47    29    31   ar
    48     5     6    2
    49    28    30   ar
    50    11     6    1
    51    11     7    2
    52    31    30   ar
    53     8     7    1
