@<TRIPOS>MOLECULE
3pws_11C_A_1.pdb
 11 10 0 0 0
SMALL
GASTEIGER

@<TRIPOS>ATOM
      1  C          2.2070   24.8320   44.8070 C.2   367  11C367      0.3819
      2  N          0.9810   26.4990   46.0560 N.3   367  11C367     -0.1208
      3  O          3.2070   25.5610   45.0030 O.co2 367  11C367     -0.2441
      4  CA         0.9250   25.1500   45.5210 C.3   367  11C367      0.1943
      5  CB         0.7260   24.1240   46.6370 C.3   367  11C367      0.0312
      6  OAB       -3.6230   25.7320   47.1880 O.co2 367  11C367     -0.2457
      7  OAD       -2.7390   25.0150   49.0720 O.co2 367  11C367     -0.2457
      8  CAF       -0.3830   24.4730   47.6230 C.3   367  11C367      0.0139
      9  CAG       -1.7730   24.2480   47.0360 C.3   367  11C367      0.1141
     10  CAI       -2.7840   25.0530   47.8210 C.2   367  11C367      0.3649
     11  OXT        2.2250   23.8420   44.0440 O.co2 367  11C367     -0.2441
@<TRIPOS>BOND
     1    11     1   ar
     2     1     3   ar
     3     1     4    1
     4     4     2    1
     5     4     5    1
     6     5     8    1
     7     9     8    1
     8     9    10    1
     9     6    10   ar
    10    10     7   ar
