@<TRIPOS>MOLECULE
3pws_A2P_A_1.pdb
 27 29 0 0 0
SMALL
GASTEIGER

@<TRIPOS>ATOM
      1  P1         0.7730    8.9310   53.0960 P.3   369  A2P369      0.5328
      2  O1P        2.2610    9.0050   53.3400 O.3   369  A2P369     -0.1145
      3  O2P        0.0530    7.9390   53.9760 O.3   369  A2P369     -0.1145
      4  O3P        0.3940    8.8330   51.6360 O.2   369  A2P369     -0.2224
      5  P2         3.1340   15.0820   49.9340 P.3   369  A2P369      0.5327
      6  O4P        3.4850   13.6450   49.6260 O.3   369  A2P369     -0.1145
      7  O5P        2.3690   15.7800   48.8360 O.2   369  A2P369     -0.2224
      8  O6P        4.2840   15.8810   50.4960 O.3   369  A2P369     -0.1145
      9  O5'        2.0770   14.9950   51.1550 O.3   369  A2P369     -0.2675
     10  C5'        0.8490   14.2730   51.0430 C.3   369  A2P369      0.1860
     11  C4'        0.4040   13.8060   52.4280 C.3   369  A2P369      0.1822
     12  O4'       -1.0010   13.5260   52.4410 O.3   369  A2P369     -0.3136
     13  C3'        1.1010   12.5190   52.8440 C.3   369  A2P369      0.2157
     14  O3'        1.4940   12.6370   54.2130 O.3   369  A2P369     -0.2175
     15  C2'        0.0350   11.4510   52.7050 C.3   369  A2P369      0.2314
     16  O2'        0.2190   10.3600   53.6070 O.3   369  A2P369     -0.2630
     17  C1'       -1.2310   12.2310   53.0060 C.3   369  A2P369      0.3158
     18  N9        -2.4410   11.5830   52.4430 N.pl3 369  A2P369     -0.1439
     19  C8        -2.6830   11.3190   51.1490 C.3   369  A2P369      0.3377
     20  N7        -3.8920   10.7220   51.0390 N.2   369  A2P369     -0.2095
     21  C5        -4.4080   10.6190   52.2810 C.2   369  A2P369      0.2526
     22  C6        -5.5980   10.1030   52.7830 C.2   369  A2P369      0.4393
     23  N6        -6.5130    9.5640   51.9420 N.pl3 369  A2P369      0.2180
     24  N1        -5.8300   10.1460   54.1170 N.2   369  A2P369      0.0021
     25  C2        -4.9250   10.6810   54.9560 C.3   369  A2P369      0.5254
     26  N3        -3.7650   11.1840   54.4970 N.2   369  A2P369     -0.0055
     27  C4        -3.4870   11.1640   53.1640 C.2   369  A2P369      0.3518
@<TRIPOS>BOND
     1     7     5    2
     2     6     5    1
     3     5     8    1
     4     5     9    1
     5    20    19    1
     6    20    21    2
     7    10     9    1
     8    10    11    1
     9    19    18    1
    10     4     1    2
    11    23    22    1
    12    21    22    1
    13    21    27    1
    14    11    12    1
    15    11    13    1
    16    12    17    1
    17    18    17    1
    18    18    27    1
    19    15    13    1
    20    15    17    1
    21    15    16    1
    22    22    24    2
    23    13    14    1
    24     1     2    1
    25     1    16    1
    26     1     3    1
    27    27    26    2
    28    24    25    1
    29    26    25    1
