@<TRIPOS>MOLECULE
3pww_ROC_A_1.pdb
 49 53 0 0 0
SMALL
GASTEIGER

@<TRIPOS>ATOM
      1  C         -3.8230    3.0390    6.5360 C.2   1001  ROC1001     0.2910
      2  O         -3.4140    3.3890    5.3210 O.2   1001  ROC1001    -0.2659
      3  N1        -5.6860    1.5970    5.7010 N.2   1001  ROC1001    -0.4013
      4  C2        -4.6260    1.7350    6.5600 C.2   1001  ROC1001     0.1679
      5  C3        -4.3070    0.6970    7.4450 C.3   1001  ROC1001     0.0899
      6  C4        -5.0640   -0.4670    7.4460 C.2   1001  ROC1001    -0.0160
      7  C5        -6.9150   -1.7640    6.5690 C.ar  1001  ROC1001     0.0022
      8  C6        -7.9870   -1.8750    5.6920 C.ar  1001  ROC1001     0.0002
      9  C7        -8.2960   -0.8450    4.8270 C.ar  1001  ROC1001     0.0026
     10  C8        -7.5120    0.3330    4.8280 C.ar  1001  ROC1001     0.0320
     11  C4A       -6.1360   -0.5970    6.5780 C.ar  1001  ROC1001     0.0257
     12  C8A       -6.4490    0.4400    5.7000 C.ar  1001  ROC1001     0.1309
     13  N         -3.7350    3.5710    7.7830 N.am  1001  ROC1001    -0.1916
     14  CA        -3.1770    4.8980    7.8610 C.3   1001  ROC1001     0.1823
     15  C1        -2.2680    5.0170    9.0860 C.2   1001  ROC1001     0.2618
     16  O1        -2.6590    5.9510    9.9580 O.2   1001  ROC1001    -0.2715
     17  CB        -4.2870    5.9570    7.8020 C.3   1001  ROC1001     0.1195
     18  CG        -4.8080    6.1730    6.3620 C.2   1001  ROC1001     0.2630
     19  OD1       -3.8630    6.6760    5.5290 O.2   1001  ROC1001    -0.2716
     20  ND2       -6.1180    5.8030    6.2770 N.am  1001  ROC1001    -0.0877
     21  C9         0.9120    4.9110   10.0310 C.3   1001  ROC1001     0.1879
     22  O2         1.7150    4.7790   11.1660 O.3   1001  ROC1001    -0.2198
     23  CA1       -0.3360    4.0370   10.2270 C.3   1001  ROC1001     0.1313
     24  N2        -1.2060    4.1270    9.0320 N.am  1001  ROC1001    -0.2027
     25  CB1       -0.0480    2.5940   10.6310 C.3   1001  ROC1001     0.0506
     26  CG1       -1.3570    1.7950   10.8180 C.ar  1001  ROC1001    -0.0204
     27  CD1       -2.4380    2.3340   11.4900 C.ar  1001  ROC1001    -0.0042
     28  CD2       -1.4490    0.4990   10.3080 C.ar  1001  ROC1001    -0.0042
     29  CE1       -3.6220    1.5790   11.6540 C.ar  1001  ROC1001    -0.0003
     30  CE2       -2.6290   -0.2520   10.4680 C.ar  1001  ROC1001    -0.0003
     31  CZ        -3.7080    0.2910   11.1390 C.ar  1001  ROC1001    -0.0000
     32  N11        1.6050    7.2440    9.4440 N.3   1001  ROC1001    -0.2643
     33  CM         0.5110    6.3500    9.8860 C.3   1001  ROC1001     0.1075
     34  C21        2.6830    7.4200   10.4590 C.3   1001  ROC1001     0.1365
     35  CC         2.2520    7.8100   11.8650 C.2   1001  ROC1001     0.2558
     36  O3         0.9860    8.1400   12.0230 O.2   1001  ROC1001    -0.2719
     37  C31        3.7160    8.4030    9.9380 C.3   1001  ROC1001     0.0254
     38  C3A        3.1960    9.7200    9.4160 C.3   1001  ROC1001     0.0032
     39  C41        2.7960   10.6620   10.5700 C.3   1001  ROC1001     0.0001
     40  C51        2.2350   11.9500   10.1080 C.3   1001  ROC1001     0.0000
     41  C61        1.0770   11.7350    9.1480 C.3   1001  ROC1001     0.0000
     42  C71        1.4350   10.7860    8.0010 C.3   1001  ROC1001     0.0014
     43  C7A        2.0850    9.4930    8.4360 C.3   1001  ROC1001     0.0161
     44  C81        1.0290    8.5180    8.9910 C.3   1001  ROC1001     0.0725
     45  N3         3.3120    7.7420   12.7660 N.am  1001  ROC1001    -0.2077
     46  CD         3.1440    8.1630   14.1980 C.3   1001  ROC1001     0.0788
     47  C11        4.4580    7.9090   14.8570 C.3   1001  ROC1001     0.0217
     48  C22        2.0700    7.3580   14.8740 C.3   1001  ROC1001     0.0217
     49  C32        2.8060    9.6380   14.2990 C.3   1001  ROC1001     0.0217
@<TRIPOS>BOND
     1     9    10   ar
     2     9     8   ar
     3    10    12   ar
     4     2     1    2
     5    19    18    2
     6     8     7   ar
     7    12     3    2
     8    12    11   ar
     9     3     4    2
    10    20    18   am
    11    18    17    1
    12     1     4    1
    13     1    13   am
    14     4     5    1
    15     7    11   ar
    16    11     6    2
    17     5     6    1
    18    13    14    1
    19    17    14    1
    20    14    15    1
    21    42    43    1
    22    42    41    1
    23    43    44    1
    24    43    38    1
    25    44    32    1
    26    24    15   am
    27    24    23    1
    28    15    16    2
    29    41    40    1
    30    38    37    1
    31    38    39    1
    32    32    33    1
    33    32    34    1
    34    33    21    1
    35    37    34    1
    36    21    23    1
    37    21    22    1
    38    40    39    1
    39    23    25    1
    40    28    30   ar
    41    28    26   ar
    42    34    35    1
    43    30    31   ar
    44    25    26    1
    45    26    27   ar
    46    31    29   ar
    47    27    29   ar
    48    35    36    2
    49    35    45   am
    50    45    46    1
    51    46    49    1
    52    46    47    1
    53    46    48    1
