@<TRIPOS>MOLECULE
3pwy_SYP_A_1.pdb
 18 18 0 0 0
SMALL
GASTEIGER

@<TRIPOS>ATOM
      1  C1        89.0990   26.8670   11.1390 C.3     1  SYP1        0.2407
      2  C2        89.8530   25.8710   10.5350 C.2     1  SYP1        0.3493
      3  N3        91.0540   26.1780    9.9990 N.2     1  SYP1       -0.0077
      4  C4        91.5200   27.4320   10.0460 C.3     1  SYP1        0.5247
      5  N5        90.8130   28.4130   10.6220 N.2     1  SYP1       -0.0077
      6  C6        89.6070   28.1580   11.1720 C.2     1  SYP1        0.3493
      7  N7        88.8980   29.1560   11.7530 N.pl3   1  SYP1       -0.0340
      8  C8        87.5980   28.8750   12.3450 C.3     1  SYP1        0.2633
      9  C9        86.7220   30.0590   11.9530 C.3     1  SYP1        0.1239
     10  S10       84.9790   29.5900   12.0890 S.3     1  SYP1       -0.0775
     11  N11       89.3890   24.5990   10.4840 N.pl3   1  SYP1       -0.0330
     12  C12       88.0940   24.2740   11.0630 C.3     1  SYP1        0.2741
     13  C13       87.2120   23.9060    9.8770 C.3     1  SYP1        0.1703
     14  N14       86.1250   23.1220   10.4440 N.am    1  SYP1       -0.2008
     15  C15       86.1180   21.8120   10.6720 C.2     1  SYP1        0.2415
     16  C16       84.8850   21.2530   11.2590 C.3     1  SYP1        0.0868
     17  O17       87.0660   21.0880   10.4180 O.2     1  SYP1       -0.2733
     18  C18       84.9170   20.6430   12.6300 C.3     1  SYP1        0.0101
@<TRIPOS>BOND
     1    13    14    1
     2    13    12    1
     3     3     4    1
     4     3     2    2
     5     4     5    1
     6    17    15    2
     7    14    15   am
     8    11     2    1
     9    11    12    1
    10     2     1    1
    11     5     6    2
    12    15    16    1
    13     1     6    1
    14     6     7    1
    15    16    18    1
    16     7     8    1
    17     9    10    1
    18     9     8    1
