@<TRIPOS>MOLECULE
3px0_DCP_A_1.pdb
 38 39 0 0 0
SMALL
GASTEIGER

@<TRIPOS>ATOM
      1  N1       126.2570  -25.3900   38.4270 N.am  201  DCP201     -0.1978
      2  C2       125.6170  -24.3930   37.7770 C.1   201  DCP201      0.2746
      3  N3       124.8360  -23.5250   38.4310 N.2   201  DCP201     -0.3031
      4  C4       124.6860  -23.5860   39.7610 C.2   201  DCP201      0.2261
      5  C5       125.3460  -24.5830   40.4790 C.2   201  DCP201      0.0096
      6  C6       126.1580  -25.4860   39.7750 C.2   201  DCP201      0.0158
      7  O2       125.7000  -24.2790   36.5640 O.2   201  DCP201     -0.1926
      8  N4       123.8570  -22.6320   40.3950 N.pl3 201  DCP201     -0.0927
      9  C1'      127.1220  -26.3030   37.6820 C.3   201  DCP201      0.1424
     10  C2'      128.4610  -25.6390   37.5500 C.3   201  DCP201      0.0199
     11  C3'      129.1780  -26.1530   38.6400 C.3   201  DCP201      0.0875
     12  C4'      128.7600  -27.5830   38.6330 C.3   201  DCP201      0.1105
     13  O4'      127.4080  -27.5480   38.2570 O.3   201  DCP201     -0.3495
     14  O3'      130.6120  -25.9840   38.4960 O.3   201  DCP201     -0.3890
     15  C5'      128.9250  -28.1580   40.0000 C.3   201  DCP201      0.0835
     16  O5'      128.2340  -27.5890   41.0480 O.3   201  DCP201     -0.3246
     17  PA       128.9830  -27.0620   42.3650 P.3   201  DCP201      0.2182
     18  O1A      127.9790  -26.5270   43.3820 O.3   201  DCP201     -0.4371
     19  O2A      129.7550  -28.1590   42.9650 O.2   201  DCP201     -0.5170
     20  O3A      129.8730  -25.8330   41.8770 O.3   201  DCP201     -0.2700
     21  PB       131.4300  -25.6700   42.0160 P.3   201  DCP201      0.2277
     22  O1B      132.1710  -26.9050   41.5800 O.3   201  DCP201     -0.4368
     23  O2B      131.7250  -24.5370   41.0270 O.2   201  DCP201     -0.5168
     24  O3B      131.7600  -25.1610   43.4420 O.3   201  DCP201     -0.2258
     25  PG       132.5210  -25.9370   44.5620 P.3   201  DCP201      0.5373
     26  O1G      131.9070  -25.4860   45.8650 O.3   201  DCP201     -0.1143
     27  O2G      132.3820  -27.5000   44.4460 O.2   201  DCP201     -0.2221
     28  O3G      133.9520  -25.5580   44.5260 O.3   201  DCP201     -0.1143
     29  H5       125.2520  -24.6440   41.4380 H     201  DCP201      0.0677
     30  H6       126.6280  -26.1890   40.2510 H     201  DCP201      0.0794
     31  H1'      126.7220  -26.4750   36.8490 H     201  DCP201      0.0820
     32 H2'1      128.3740  -24.6410   37.6330 H     201  DCP201      0.0333
     33 H2'2      128.8770  -25.8770   36.7100 H     201  DCP201      0.0333
     34  H3'      128.8760  -25.7080   39.4620 H     201  DCP201      0.0621
     35  H4'      129.2700  -28.1640   38.0200 H     201  DCP201      0.0646
     36 HO3'      130.7920  -25.5540   37.6980 H     201  DCP201      0.2099
     37 H5'1      129.8900  -28.1270   40.2280 H     201  DCP201      0.0591
     38 H5'2      128.6620  -29.0950   39.9530 H     201  DCP201      0.0591
@<TRIPOS>BOND
     1     7     2    2
     2    33    10    1
     3    31     9    1
     4    10    32    1
     5    10     9    1
     6    10    11    1
     7     9    13    1
     8     9     1    1
     9    36    14    1
    10     2     1   am
    11     2     3    2
    12    35    12    1
    13    13    12    1
    14     1     6    1
    15     3     4    2
    16    14    11    1
    17    12    11    1
    18    12    15    1
    19    11    34    1
    20     4     8    1
    21     4     5    1
    22     6    30    1
    23     6     5    2
    24    38    15    1
    25    15    37    1
    26    15    16    1
    27     5    29    1
    28    23    21    2
    29    16    17    1
    30    22    21    1
    31    20    21    1
    32    20    17    1
    33    21    24    1
    34    17    19    2
    35    17    18    1
    36    24    25    1
    37    27    25    2
    38    28    25    1
    39    25    26    1
