@<TRIPOS>MOLECULE
3px2_T3Q_A_1.pdb
 35 37 0 0 0
SMALL
GASTEIGER

@<TRIPOS>ATOM
      1  O4        21.1420    5.4400   36.4090 O.2   301  T3Q301     -0.2088
      2  C4        21.2890    4.3100   35.9620 C.1   301  T3Q301      0.2134
      3  N3        21.6450    3.2760   36.8040 N.2   301  T3Q301     -0.2455
      4  C2        21.7890    2.0370   36.3020 C.1   301  T3Q301      0.2844
      5  O2        22.1090    1.1570   37.0860 O.2   301  T3Q301     -0.1918
      6  C5        21.1520    4.0710   34.5540 C.2   301  T3Q301      0.0891
      7  C5M       20.6690    5.1780   33.6350 C.3   301  T3Q301      0.0462
      8  C6        21.2320    2.7940   34.0740 C.2   301  T3Q301      0.0877
      9  N1        21.6540    1.8250   34.9660 N.am  301  T3Q301     -0.1794
     10  C1'       21.9070    0.4770   34.3900 C.3   301  T3Q301      0.2090
     11  O4'       22.8390    0.7420   33.2960 O.3   301  T3Q301     -0.3339
     12  C2'       20.6750   -0.1870   33.7590 C.3   301  T3Q301      0.0874
     13  C3'       21.2930   -0.9420   32.5650 C.3   301  T3Q301      0.1857
     14  O3'       21.7420   -2.1770   33.1580 O.3   301  T3Q301     -0.2203
     15  C4'       22.4060    0.0390   32.0850 C.3   301  T3Q301      0.1773
     16  C5'       21.9490    0.9240   30.8800 C.3   301  T3Q301      0.1812
     17  O5'       21.5000   -0.0270   29.9320 O.3   301  T3Q301     -0.3112
     18  PA        21.5580    0.5150   28.4450 P.3   301  T3Q301      0.2189
     19  O1A       21.5160    1.9610   28.2420 O.3   301  T3Q301     -0.4371
     20  O2A       20.5680   -0.4140   27.6280 O.2   301  T3Q301     -0.5170
     21  O3A       23.0440   -0.0740   28.2000 O.3   301  T3Q301     -0.2703
     22  PB        24.4490    0.7080   27.8060 P.3   301  T3Q301      0.2208
     23  O1B       24.8990    1.3450   29.0700 O.3   301  T3Q301     -0.4371
     24  O2B       24.4530    1.5240   26.4750 O.2   301  T3Q301     -0.5170
     25  O3B       25.3430   -0.5650   27.5610 O.3   301  T3Q301     -0.2858
     26  O4Q       27.3210   -3.9110   25.7280 O.3   301  T3Q301     -0.2189
     27  C4Q       26.9460   -3.5450   27.0610 C.3   301  T3Q301      0.1990
     28  C5Q       25.4880   -3.1600   26.9920 C.3   301  T3Q301      0.1497
     29  O5Q       25.0080   -2.7590   28.2750 O.3   301  T3Q301     -0.3282
     30  C6Q       24.7980   -4.5010   26.6700 C.3   301  T3Q301      0.0349
     31  C3Q       27.6900   -2.2620   27.5150 C.3   301  T3Q301      0.1598
     32  N3Q       29.0920   -2.6670   27.6420 N.3   301  T3Q301     -0.1273
     33  C2Q       27.0900   -1.7560   28.8370 C.3   301  T3Q301      0.2282
     34  O2Q       27.7010   -0.4500   29.0320 O.3   301  T3Q301     -0.2160
     35  C1Q       25.5770   -1.4900   28.6510 C.3   301  T3Q301      0.2729
@<TRIPOS>BOND
     1    26    27    1
     2    24    22    2
     3    30    28    1
     4    28    27    1
     5    28    29    1
     6    27    31    1
     7    31    32    1
     8    31    33    1
     9    25    22    1
    10    25    35    1
    11    20    18    2
    12    22    21    1
    13    22    23    1
    14    21    18    1
    15    19    18    1
    16    29    35    1
    17    18    17    1
    18    35    33    1
    19    33    34    1
    20    17    16    1
    21    16    15    1
    22    15    13    1
    23    15    11    1
    24    13    14    1
    25    13    12    1
    26    11    10    1
    27     7     6    1
    28    12    10    1
    29     8     6    2
    30     8     9    1
    31    10     9    1
    32     6     2    1
    33     9     4   am
    34     2     1    2
    35     2     3    2
    36     4     3    2
    37     4     5    2
