@<TRIPOS>MOLECULE
3px2_SAH_A_1.pdb
 26 28 0 0 0
SMALL
GASTEIGER

@<TRIPOS>ATOM
      1  N         35.1310   -1.0050   24.9080 N.3   263  SAH263     -0.1208
      2  CA        34.2010   -0.9690   23.7560 C.3   263  SAH263      0.1952
      3  CB        33.2830   -2.2210   23.7950 C.3   263  SAH263      0.0422
      4  CG        32.4400   -2.3960   25.0700 C.3   263  SAH263      0.0597
      5  SD        31.2860   -3.7360   24.8980 S.3   263  SAH263     -0.1375
      6  C         33.4880    0.3410   23.8220 C.2   263  SAH263      0.3819
      7  O         33.6800    1.1370   24.7520 O.co2 263  SAH263     -0.2441
      8  OXT       32.5770    0.6080   23.0280 O.co2 263  SAH263     -0.2441
      9  C5'       32.0450   -5.0900   25.7300 C.3   263  SAH263      0.0899
     10  C4'       33.2390   -5.5620   24.9160 C.3   263  SAH263      0.1630
     11  O4'       33.9030   -6.5360   25.7300 O.3   263  SAH263     -0.3153
     12  C3'       32.8380   -6.3490   23.6550 C.3   263  SAH263      0.2168
     13  O3'       33.5640   -5.9330   22.4920 O.3   263  SAH263     -0.2175
     14  C2'       33.1720   -7.7950   23.9970 C.3   263  SAH263      0.2569
     15  O2'       33.3730   -8.6870   22.8840 O.3   263  SAH263     -0.2130
     16  C1'       34.3850   -7.5630   24.8700 C.3   263  SAH263      0.3185
     17  N9        34.6780   -8.7210   25.7490 N.pl3 263  SAH263     -0.1439
     18  C8        33.8430   -9.4810   26.4760 C.3   263  SAH263      0.3377
     19  N7        34.5570  -10.4000   27.1750 N.2   263  SAH263     -0.2095
     20  C5        35.8770  -10.2490   26.8640 C.2   263  SAH263      0.2526
     21  C6        37.1850  -10.8800   27.1700 C.2   263  SAH263      0.4393
     22  N6        37.2430  -11.8910   28.0580 N.pl3 263  SAH263      0.2180
     23  N1        38.3080  -10.3590   26.6330 N.2   263  SAH263      0.0021
     24  C2        38.2420   -9.3760   25.7200 C.3   263  SAH263      0.5254
     25  N3        37.1180   -8.7170   25.3760 N.2   263  SAH263     -0.0055
     26  C4        35.9420   -9.1230   25.9040 C.2   263  SAH263      0.3518
@<TRIPOS>BOND
     1    13    12    1
     2    15    14    1
     3     8     6   ar
     4    12    14    1
     5    12    10    1
     6     2     3    1
     7     2     6    1
     8     2     1    1
     9     3     4    1
    10     6     7   ar
    11    14    16    1
    12    16    11    1
    13    16    17    1
    14     5     4    1
    15     5     9    1
    16    10    11    1
    17    10     9    1
    18    25    24    1
    19    25    26    2
    20    24    23    1
    21    17    26    1
    22    17    18    1
    23    26    20    1
    24    18    19    1
    25    23    21    2
    26    20    21    1
    27    20    19    2
    28    21    22    1
