@<TRIPOS>MOLECULE
3px3_T3Q_A_1.pdb
 35 37 0 0 0
SMALL
GASTEIGER

@<TRIPOS>ATOM
      1  O4        21.0490    5.2480   36.4970 O.2   301  T3Q301     -0.2088
      2  C4        21.1910    4.1550   35.9890 C.1   301  T3Q301      0.2134
      3  N3        21.5040    3.1200   36.8470 N.2   301  T3Q301     -0.2455
      4  C2        21.6990    1.8950   36.3310 C.1   301  T3Q301      0.2844
      5  O2        21.9720    1.0440   37.1390 O.2   301  T3Q301     -0.1918
      6  C5        21.0440    3.9230   34.5780 C.2   301  T3Q301      0.0891
      7  C5M       20.6600    4.9960   33.5730 C.3   301  T3Q301      0.0462
      8  C6        21.2300    2.6420   34.1430 C.2   301  T3Q301      0.0877
      9  N1        21.5800    1.6350   35.0200 N.am  301  T3Q301     -0.1794
     10  C1'       21.7780    0.2500   34.4780 C.3   301  T3Q301      0.2090
     11  O4'       22.5840    0.5240   33.3200 O.3   301  T3Q301     -0.3339
     12  C2'       20.5040   -0.3800   33.8620 C.3   301  T3Q301      0.0874
     13  C3'       21.1430   -1.2010   32.7020 C.3   301  T3Q301      0.1857
     14  O3'       21.6990   -2.4330   33.1830 O.3   301  T3Q301     -0.2203
     15  C4'       22.2460   -0.2950   32.1610 C.3   301  T3Q301      0.1773
     16  C5'       21.7110    0.5650   30.9670 C.3   301  T3Q301      0.1812
     17  O5'       21.4380   -0.4240   29.9810 O.3   301  T3Q301     -0.3112
     18  PA        21.4720    0.2150   28.5190 P.3   301  T3Q301      0.2189
     19  O1A       21.4570    1.6630   28.2500 O.3   301  T3Q301     -0.4371
     20  O2A       20.5480   -0.7370   27.6280 O.2   301  T3Q301     -0.5170
     21  O3A       22.9750   -0.3190   28.3000 O.3   301  T3Q301     -0.2703
     22  PB        24.3860    0.3770   27.8760 P.3   301  T3Q301      0.2208
     23  O1B       24.8810    1.0140   29.1090 O.3   301  T3Q301     -0.4371
     24  O2B       24.2380    1.2130   26.5270 O.2   301  T3Q301     -0.5170
     25  O3B       25.2330   -0.9440   27.5700 O.3   301  T3Q301     -0.2858
     26  O4Q       27.4870   -4.2630   25.8520 O.3   301  T3Q301     -0.2189
     27  C4Q       26.9340   -3.8430   27.1170 C.3   301  T3Q301      0.1990
     28  C5Q       25.4240   -3.6350   27.0400 C.3   301  T3Q301      0.1497
     29  O5Q       24.9350   -3.1700   28.3180 O.3   301  T3Q301     -0.3282
     30  C6Q       24.7650   -5.0100   26.7910 C.3   301  T3Q301      0.0349
     31  C3Q       27.6440   -2.5590   27.5520 C.3   301  T3Q301      0.1598
     32  N3Q       29.0780   -2.9200   27.6480 N.3   301  T3Q301     -0.1273
     33  C2Q       26.9780   -2.0970   28.8630 C.3   301  T3Q301      0.2282
     34  O2Q       27.4530   -0.7720   29.1230 O.3   301  T3Q301     -0.2160
     35  C1Q       25.4630   -1.9010   28.6700 C.3   301  T3Q301      0.2729
@<TRIPOS>BOND
     1    26    27    1
     2    24    22    2
     3    30    28    1
     4    28    27    1
     5    28    29    1
     6    27    31    1
     7    31    32    1
     8    31    33    1
     9    25    22    1
    10    25    35    1
    11    20    18    2
    12    22    21    1
    13    22    23    1
    14    19    18    1
    15    21    18    1
    16    29    35    1
    17    18    17    1
    18    35    33    1
    19    33    34    1
    20    17    16    1
    21    16    15    1
    22    15    13    1
    23    15    11    1
    24    13    14    1
    25    13    12    1
    26    11    10    1
    27     7     6    1
    28    12    10    1
    29     8     6    2
    30     8     9    1
    31    10     9    1
    32     6     2    1
    33     9     4   am
    34     2     1    2
    35     2     3    2
    36     4     3    2
    37     4     5    2
