@<TRIPOS>MOLECULE
3px3_SAH_A_1.pdb
 26 28 0 0 0
SMALL
GASTEIGER

@<TRIPOS>ATOM
      1  N         35.0190   -1.2740   24.7770 N.3   264  SAH264     -0.1208
      2  CA        34.0410   -1.1970   23.6370 C.3   264  SAH264      0.1952
      3  CB        33.1480   -2.4340   23.7610 C.3   264  SAH264      0.0422
      4  CG        32.3690   -2.6630   25.0630 C.3   264  SAH264      0.0597
      5  SD        31.1510   -3.9320   24.7900 S.3   264  SAH264     -0.1375
      6  C         33.3120    0.1130   23.7060 C.2   264  SAH264      0.3819
      7  O         33.5280    0.8730   24.6640 O.co2 264  SAH264     -0.2441
      8  OXT       32.4390    0.4660   22.9080 O.co2 264  SAH264     -0.2441
      9  C5'       31.8780   -5.2900   25.6740 C.3   264  SAH264      0.0899
     10  C4'       33.0570   -5.8760   24.8620 C.3   264  SAH264      0.1630
     11  O4'       33.7920   -6.8070   25.6270 O.3   264  SAH264     -0.3153
     12  C3'       32.6540   -6.7020   23.6440 C.3   264  SAH264      0.2168
     13  O3'       33.4400   -6.3410   22.4900 O.3   264  SAH264     -0.2175
     14  C2'       32.9820   -8.1490   23.9740 C.3   264  SAH264      0.2569
     15  O2'       33.1300   -8.9520   22.8110 O.3   264  SAH264     -0.2130
     16  C1'       34.2360   -7.8490   24.7530 C.3   264  SAH264      0.3185
     17  N9        34.6240   -8.9750   25.6350 N.pl3 264  SAH264     -0.1439
     18  C8        33.8120   -9.7350   26.3870 C.3   264  SAH264      0.3377
     19  N7        34.5260  -10.6460   27.0900 N.2   264  SAH264     -0.2095
     20  C5        35.8200  -10.5040   26.7370 C.2   264  SAH264      0.2526
     21  C6        37.1060  -11.1360   27.0940 C.2   264  SAH264      0.4393
     22  N6        37.1060  -12.1260   28.0110 N.pl3 264  SAH264      0.2180
     23  N1        38.2090  -10.6230   26.4960 N.2   264  SAH264      0.0021
     24  C2        38.1450   -9.6620   25.5740 C.3   264  SAH264      0.5254
     25  N3        37.0460   -8.9970   25.1960 N.2   264  SAH264     -0.0055
     26  C4        35.8860   -9.3690   25.7780 C.2   264  SAH264      0.3518
@<TRIPOS>BOND
     1    13    12    1
     2    15    14    1
     3     8     6   ar
     4     2     6    1
     5     2     3    1
     6     2     1    1
     7    12    14    1
     8    12    10    1
     9     6     7   ar
    10     3     4    1
    11    14    16    1
    12    16    11    1
    13    16    17    1
    14     5     4    1
    15     5     9    1
    16    10    11    1
    17    10     9    1
    18    25    24    1
    19    25    26    2
    20    24    23    1
    21    17    26    1
    22    17    18    1
    23    26    20    1
    24    18    19    1
    25    23    21    2
    26    20    19    2
    27    20    21    1
    28    21    22    1
