@<TRIPOS>MOLECULE
3px4_DCT_A_1.pdb
 31 32 0 0 0
SMALL
GASTEIGER

@<TRIPOS>ATOM
      1  N1       136.6510  -39.0680   19.9670 N.am  203  DCT203     -0.1899
      2  C2       135.7560  -40.0700   19.6860 C.1   203  DCT203      0.2748
      3  N3       135.9000  -40.8550   18.5620 N.2   203  DCT203     -0.3066
      4  C4       136.9650  -40.6410   17.7090 C.2   203  DCT203      0.1840
      5  C5       137.8740  -39.6410   18.0000 C.2   203  DCT203      0.0061
      6  C6       137.7230  -38.8550   19.1310 C.2   203  DCT203      0.0162
      7  O2       134.8080  -40.2670   20.4380 O.2   203  DCT203     -0.1925
      8  N4       137.1070  -41.3890   16.6190 N.pl3 203  DCT203     -0.3326
      9  C1'      136.4950  -38.2500   21.1820 C.3   203  DCT203      0.2056
     10  C2'      137.0470  -39.0750   22.3400 C.3   203  DCT203      0.0545
     11  C3'      138.1700  -38.2480   22.9420 C.3   203  DCT203      0.0366
     12  C4'      138.1390  -36.9160   22.2160 C.3   203  DCT203      0.1472
     13  O4'      137.2710  -37.0640   21.0920 O.3   203  DCT203     -0.3367
     14  C5'      139.5840  -36.5340   21.8850 C.3   203  DCT203      0.1785
     15  O5'      139.9070  -36.6040   20.5160 O.3   203  DCT203     -0.3113
     16  PA       141.4550  -36.8130   20.0920 P.3   203  DCT203      0.2189
     17  O1A      141.5280  -37.2550   18.6470 O.2   203  DCT203     -0.5170
     18  O2A      142.1210  -37.8010   21.0240 O.3   203  DCT203     -0.4371
     19  O3A      142.1110  -35.3580   20.2960 O.3   203  DCT203     -0.2700
     20  PB       141.8920  -34.2360   19.1670 P.3   203  DCT203      0.2277
     21  O1B      142.0110  -34.8660   17.7980 O.2   203  DCT203     -0.5168
     22  O2B      142.8580  -33.0880   19.3370 O.3   203  DCT203     -0.4368
     23  O3B      140.3770  -33.7670   19.4030 O.3   203  DCT203     -0.2258
     24  PG       139.8910  -32.3540   18.8290 P.3   203  DCT203      0.5373
     25  O1G      141.0100  -31.3510   18.9840 O.3   203  DCT203     -0.1143
     26  O2G      139.5680  -32.5440   17.3640 O.2   203  DCT203     -0.2221
     27  O3G      138.6650  -31.8920   19.5810 O.3   203  DCT203     -0.1143
     28  H5       138.7190  -39.4700   17.3330 H     203  DCT203      0.0676
     29  H6       138.3740  -37.9960   19.2890 H     203  DCT203      0.0794
     30 HN41      136.4320  -42.1180   16.4130 H     203  DCT203      0.1447
     31 HN42      137.8870  -41.2260   15.9900 H     203  DCT203      0.1447
@<TRIPOS>BOND
     1    31     8    1
     2    30     8    1
     3     8     4    1
     4    28     5    1
     5    26    24    2
     6     4     5    1
     7     4     3    2
     8    21    20    2
     9     5     6    2
    10     3     2    2
    11    17    16    2
    12    24    25    1
    13    24    23    1
    14    24    27    1
    15     6    29    1
    16     6     1    1
    17    20    22    1
    18    20    23    1
    19    20    19    1
    20     2     1   am
    21     2     7    2
    22     1     9    1
    23    16    19    1
    24    16    15    1
    25    16    18    1
    26    15    14    1
    27    13     9    1
    28    13    12    1
    29     9    10    1
    30    14    12    1
    31    12    11    1
    32    10    11    1
