@<TRIPOS>MOLECULE
3px6_DCT_A_1.pdb
 29 30 0 0 0
SMALL
GASTEIGER

@<TRIPOS>ATOM
      1  N1       125.4610  -24.8440   38.4570 N.am  201  DCT201     -0.2091
      2  C2       124.7370  -23.8660   37.8170 C.1   201  DCT201      0.2709
      3  N3       123.9540  -22.9940   38.5120 N.2   201  DCT201     -0.3076
      4  C4       123.8920  -23.1040   39.8810 C.2   201  DCT201      0.2075
      5  C5       124.6110  -24.0950   40.5490 C.3   201  DCT201      0.0641
      6  C6       125.4100  -24.9800   39.8300 C.3   201  DCT201      0.0695
      7  O2       124.7780  -23.7280   36.6000 O.2   201  DCT201     -0.1929
      8  N4       123.1400  -22.2160   40.5180 N.pl3 201  DCT201     -0.0973
      9  C1'      126.3080  -25.7500   37.6720 C.3   201  DCT201      0.2017
     10  C2'      127.6300  -24.9720   37.5030 C.3   201  DCT201      0.0542
     11  C3'      128.5630  -25.5850   38.5470 C.3   201  DCT201      0.0366
     12  C4'      128.0170  -27.0140   38.6710 C.3   201  DCT201      0.1471
     13  O4'      126.6300  -26.8740   38.4230 O.3   201  DCT201     -0.3369
     14  C5'      128.3240  -27.6870   40.0090 C.3   201  DCT201      0.1785
     15  O5'      127.6130  -27.0590   41.0580 O.3   201  DCT201     -0.3113
     16  PA       128.4030  -26.6530   42.3970 P.3   201  DCT201      0.2189
     17  O1A      129.2590  -27.7260   42.9220 O.2   201  DCT201     -0.5170
     18  O2A      127.3660  -26.0190   43.3140 O.3   201  DCT201     -0.4371
     19  O3A      129.2070  -25.3690   41.8320 O.3   201  DCT201     -0.2700
     20  PB       130.8420  -25.2360   41.9210 P.3   201  DCT201      0.2277
     21  O1B      131.0870  -24.0050   41.0940 O.2   201  DCT201     -0.5168
     22  O2B      131.5750  -26.5170   41.6550 O.3   201  DCT201     -0.4368
     23  O3B      130.9580  -24.7360   43.4750 O.3   201  DCT201     -0.2258
     24  PG       131.8060  -25.3890   44.6930 P.3   201  DCT201      0.5373
     25  O1G      131.0250  -25.0230   45.9250 O.3   201  DCT201     -0.1143
     26  O2G      131.9090  -26.8820   44.5290 O.2   201  DCT201     -0.2221
     27  O3G      133.1850  -24.7150   44.6670 O.3   201  DCT201     -0.1143
     28  H5       124.5490  -24.1760   41.6340 H     201  DCT201      0.0416
     29  H6       125.7700  -25.8950   40.3010 H     201  DCT201      0.0535
@<TRIPOS>BOND
     1     7     2    2
     2    10     9    1
     3    10    11    1
     4     9    13    1
     5     9     1    1
     6     2     1   am
     7     2     3    2
     8    13    12    1
     9     1     6    1
    10     3     4    2
    11    11    12    1
    12    12    14    1
    13     6    29    1
    14     6     5    1
    15     4     8    1
    16     4     5    1
    17    14    15    1
    18     5    28    1
    19    15    16    1
    20    21    20    2
    21    22    20    1
    22    19    20    1
    23    19    16    1
    24    20    23    1
    25    16    17    2
    26    16    18    1
    27    23    24    1
    28    26    24    2
    29    27    24    1
    30    24    25    1
