@<TRIPOS>MOLECULE
3px7_NUC_B_1.pdb
 36 39 0 0 0
SMALL
GASTEIGER

@<TRIPOS>ATOM
      1  C5'      -40.7220   14.0200   48.5290 C.3     1  DT1         0.0347
      2  C4'      -40.7750   12.5640   48.9500 C.3     1  DT1         0.1447
      3  O4'      -42.1590   12.1590   49.1110 O.3     1  DT1        -0.3366
      4  C3'      -40.1780   11.5840   47.9480 C.3     1  DT1         0.1530
      5  O3'      -39.6530   10.4520   48.6280 O.3     1  DT1        -0.3139
      6  C2'      -41.3860   11.2140   47.0940 C.3     1  DT1         0.0844
      7  C1'      -42.4970   11.1880   48.1390 C.3     1  DT1         0.2088
      8  N1       -43.8390   11.5240   47.5860 N.am    1  DT1        -0.1794
      9  C2       -44.7390   12.2140   48.3690 C.1     1  DT1         0.2844
     10  O2       -44.4960   12.5730   49.5070 O.2     1  DT1        -0.1918
     11  N3       -45.9460   12.4740   47.7680 N.2     1  DT1        -0.2455
     12  C4       -46.3340   12.1180   46.4890 C.1     1  DT1         0.2134
     13  O4       -47.4390   12.3940   46.0320 O.2     1  DT1        -0.2088
     14  C5       -45.3400   11.4000   45.7340 C.2     1  DT1         0.0891
     15  C7       -45.6410   11.0520   44.2900 C.3     1  DT1         0.0462
     16  C6       -44.1570   11.1350   46.2990 C.2     1  DT1         0.0877
     17  P        -39.4830    8.9340   48.1240 P.3     2  DT2         0.2141
     18  OP1      -38.9080    8.0900   49.1960 O.3     2  DT2        -0.4373
     19  OP2      -38.8190    9.0040   46.8030 O.2     2  DT2        -0.5172
     20  O5'      -41.0060    8.5040   47.8870 O.3     2  DT2        -0.3114
     21  C5'      -41.4920    7.2800   48.4250 C.3     2  DT2         0.1812
     22  C4'      -41.9010    7.4540   49.8760 C.3     2  DT2         0.1773
     23  O4'      -42.9860    8.4120   49.9600 O.3     2  DT2        -0.3339
     24  C3'      -42.4170    6.1900   50.5520 C.3     2  DT2         0.1857
     25  O3'      -42.1270    6.2290   51.9430 O.3     2  DT2        -0.2203
     26  C2'      -43.9170    6.2730   50.2920 C.3     2  DT2         0.0874
     27  C1'      -44.1630    7.7730   50.4160 C.3     2  DT2         0.2090
     28  N1       -45.3090    8.2570   49.5960 N.am    2  DT2        -0.1794
     29  C2       -46.4050    8.8070   50.2250 C.1     2  DT2         0.2844
     30  O2       -46.4910    8.9230   51.4350 O.2     2  DT2        -0.1918
     31  N3       -47.4060    9.2220   49.3820 N.2     2  DT2        -0.2455
     32  C4       -47.4190    9.1420   48.0010 C.1     2  DT2         0.2134
     33  O4       -48.3620    9.5410   47.3250 O.2     2  DT2        -0.2088
     34  C5       -46.2400    8.5560   47.4190 C.2     2  DT2         0.0891
     35  C7       -46.1580    8.4450   45.9320 C.3     2  DT2         0.0462
     36  C6       -45.2520    8.1440   48.2210 C.2     2  DT2         0.0877
@<TRIPOS>BOND
     1    15    14    1
     2    14    16    2
     3    14    12    1
     4    35    34    1
     5    13    12    2
     6    16     8    1
     7    12    11    2
     8    19    17    2
     9     6     4    1
    10     6     7    1
    11    33    32    2
    12    34    32    1
    13    34    36    2
    14     8     7    1
    15     8     9   am
    16    11     9    2
    17    20    17    1
    18    20    21    1
    19     4     5    1
    20     4     2    1
    21    32    31    2
    22    17     5    1
    23    17    18    1
    24     7     3    1
    25    36    28    1
    26     9    10    2
    27    21    22    1
    28     1     2    1
    29     2     3    1
    30    31    29    2
    31    28    29   am
    32    28    27    1
    33    22    23    1
    34    22    24    1
    35    23    27    1
    36    29    30    2
    37    26    27    1
    38    26    24    1
    39    24    25    1
