@<TRIPOS>MOLECULE
3px8_JP2_X_1.pdb
 15 16 0 0 0
SMALL
GASTEIGER

@<TRIPOS>ATOM
      1  C1         2.7170    3.3470    8.4280 C.1     1  JP21        0.2617
      2  N1         3.7870    3.0330    9.1810 N.pl3   1  JP21       -0.0220
      3  O1        -0.7260    3.1600    8.4760 O.2     1  JP21       -0.2062
      4  C2         0.4810    3.4130    8.1150 C.1     1  JP21        0.2452
      5  N2         1.4880    3.0590    8.8930 N.2     1  JP21       -0.2474
      6  O2         2.6270    6.7300    3.2230 O.co2   1  JP21       -0.2379
      7  C3         0.6120    4.1400    6.8760 C.2     1  JP21        0.2585
      8  N3         2.9620    3.9920    7.2640 N.2     1  JP21       -0.2561
      9  O3         0.4800    6.9920    2.8640 O.co2   1  JP21       -0.2379
     10  C4         1.9460    4.4350    6.4460 C.1     1  JP21        0.1811
     11  N4         2.2430    5.1690    5.3630 N.2     1  JP21       -0.3331
     12  C5         1.1650    5.6570    4.6570 C.2     1  JP21        0.2250
     13  N5        -0.4560    4.5010    6.0610 N.2     1  JP21       -0.2400
     14  C6        -0.2060    5.2730    4.9930 C.3     1  JP21        0.1936
     15  C7         1.4120    6.4790    3.4980 C.2     1  JP21        0.4156
@<TRIPOS>BOND
     1     9    15   ar
     2     6    15   ar
     3    15    12    1
     4    12    14    1
     5    12    11    2
     6    14    13    1
     7    11    10    2
     8    13     7    2
     9    10     7    1
    10    10     8    2
    11     7     4    1
    12     8     1    2
    13     4     3    2
    14     4     5    2
    15     1     5    2
    16     1     2    1
