@<TRIPOS>MOLECULE
3px9_JP3_X_1.pdb
 21 23 0 0 0
SMALL
GASTEIGER

@<TRIPOS>ATOM
      1  C1         2.3470    3.3540    8.2080 C.1     1  JP31        0.2617
      2  N1         3.4230    3.0270    8.9430 N.pl3   1  JP31       -0.0220
      3  O1        -1.0910    3.0780    8.3460 O.2     1  JP31       -0.2062
      4  C2         0.0260    3.3730    7.9340 C.1     1  JP31        0.2452
      5  N2         1.1140    3.0350    8.6890 N.2     1  JP31       -0.2474
      6  O2         2.0710    6.4430    2.8140 O.2     1  JP31       -0.2658
      7  C3         0.2010    4.0560    6.6400 C.2     1  JP31        0.2585
      8  N3         2.5670    3.9670    7.0280 N.2     1  JP31       -0.2561
      9  O3         0.4960    9.8460    2.3590 O.2     1  JP31       -0.4529
     10  C4         1.5660    4.3670    6.2240 C.1     1  JP31        0.1811
     11  N4         1.7750    5.0150    5.0570 N.2     1  JP31       -0.3352
     12  C5         0.6870    5.3760    4.3060 C.2     1  JP31        0.2005
     13  N5        -0.8200    4.4160    5.8540 N.2     1  JP31       -0.2401
     14  C6        -0.6080    5.0930    4.7240 C.3     1  JP31        0.1914
     15  N6        -0.0900    6.7980    2.4580 N.am    1  JP31       -0.1914
     16  C7         0.9080    6.2020    3.1090 C.2     1  JP31        0.2937
     17  C8         0.1450    7.5230    1.1800 C.3     1  JP31        0.1795
     18  C9        -0.0420    9.0450    1.3420 C.ar    1  JP31        0.1449
     19  C10       -0.7670    9.8910    0.4730 C.ar    1  JP31        0.0380
     20  C11       -0.6740   11.1850    0.9860 C.ar    1  JP31        0.0435
     21  C12        0.1010   11.1670    2.1490 C.ar    1  JP31        0.1792
@<TRIPOS>BOND
     1    19    20   ar
     2    19    18   ar
     3    20    21   ar
     4    17    18    1
     5    17    15    1
     6    18     9   ar
     7    21     9   ar
     8    15    16   am
     9     6    16    2
    10    16    12    1
    11    12    14    1
    12    12    11    2
    13    14    13    1
    14    11    10    2
    15    13     7    2
    16    10     7    1
    17    10     8    2
    18     7     4    1
    19     8     1    2
    20     4     3    2
    21     4     5    2
    22     1     5    2
    23     1     2    1
