@<TRIPOS>MOLECULE
3pxe_III_F_1.pdb
 43 44 0 0 0
SMALL
GASTEIGER

@<TRIPOS>ATOM
      1  N         -6.5540    0.8700   -1.0490 N.3     5  SER5       -0.1204
      2  CA        -6.9960    1.5760   -2.2530 C.3     5  SER5        0.1977
      3  CB        -6.9200    3.0960   -2.0470 C.3     5  SER5        0.1820
      4  OG        -8.1880    3.6530   -1.7030 O.3     5  SER5       -0.2682
      5  C         -6.1750    1.1740   -3.4850 C.2     5  SER5        0.2460
      6  O         -4.9410    1.1580   -3.4250 O.2     5  SER5       -0.2732
      7  P         -8.0990    5.2370   -1.3380 P.3     5  SER5        0.5327
      8  O1P       -8.0000    6.0610   -2.7120 O.2     5  SER5       -0.2224
      9  O2P       -6.7850    5.5320   -0.4450 O.3     5  SER5       -0.1145
     10  O3P       -9.4320    5.6310   -0.5110 O.3     5  SER5       -0.1145
     11  N         -6.8600    0.8520   -4.6080 N.am    6  PRO6       -0.2717
     12  CA        -6.2220    0.3830   -5.8530 C.3     6  PRO6        0.1536
     13  C         -5.5860    1.4950   -6.6970 C.2     6  PRO6        0.2599
     14  O         -6.1090    2.6110   -6.7570 O.2     6  PRO6       -0.2715
     15  CB        -7.3860   -0.2590   -6.6390 C.3     6  PRO6        0.0310
     16  CG        -8.5390   -0.3590   -5.6680 C.3     6  PRO6        0.0237
     17  CD        -8.3300    0.7610   -4.6840 C.3     6  PRO6        0.0939
     18  N         -4.4740    1.1640   -7.3530 N.am    7  THR7       -0.1937
     19  CA        -3.7330    2.1000   -8.2040 C.3     7  THR7        0.2028
     20  C         -3.6180    1.6260   -9.6690 C.2     7  THR7        0.2642
     21  O         -3.4140    0.4390   -9.9320 O.2     7  THR7       -0.2714
     22  CB        -2.3150    2.3620   -7.6340 C.3     7  THR7        0.1808
     23  OG1       -1.6470    1.1140   -7.4080 O.3     7  THR7       -0.2208
     24  CG2       -2.3920    3.1230   -6.3160 C.3     7  THR7        0.0379
     25  N         -3.7380    2.5590  -10.6170 N.am    8  PHE8       -0.1959
     26  CA        -3.7000    2.2300  -12.0510 C.3     8  PHE8        0.1771
     27  C         -2.5210    2.8910  -12.7940 C.2     8  PHE8        0.2619
     28  O         -2.2820    4.0910  -12.6420 O.2     8  PHE8       -0.2715
     29  CB        -5.0190    2.6300  -12.7290 C.3     8  PHE8        0.0574
     30  CG        -6.2520    2.2130  -11.9720 C.ar    8  PHE8       -0.0200
     31  CD1       -6.6940    2.9530  -10.8810 C.ar    8  PHE8       -0.0042
     32  CD2       -6.9750    1.0930  -12.3570 C.ar    8  PHE8       -0.0042
     33  CE1       -7.8280    2.5770  -10.1800 C.ar    8  PHE8       -0.0003
     34  CE2       -8.1120    0.7120  -11.6630 C.ar    8  PHE8       -0.0003
     35  CZ        -8.5400    1.4530  -10.5730 C.ar    8  PHE8       -0.0000
     36  N         -1.8100    2.1070  -13.6110 N.am    9  ASN9       -0.1972
     37  CA        -0.6160    2.5790  -14.3310 C.3     9  ASN9        0.1688
     38  C         -0.5900    2.2370  -15.8290 C.2     9  ASN9        0.2292
     39  O         -1.6170    2.2330  -16.5070 O.2     9  ASN9       -0.2864
     40  CB         0.6650    2.0400  -13.6740 C.3     9  ASN9        0.1181
     41  CG         0.9390    2.6550  -12.3050 C.2     9  ASN9        0.2629
     42  OD1        0.0300    2.8590  -11.4990 O.2     9  ASN9       -0.2716
     43  ND2        2.2080    2.9530  -12.0400 N.am    9  ASN9       -0.0877
@<TRIPOS>BOND
     1    39    38    2
     2    38    37    1
     3    37    40    1
     4    37    36    1
     5    40    41    1
     6    36    27   am
     7    27    28    2
     8    27    26    1
     9    29    26    1
    10    29    30    1
    11    32    30   ar
    12    32    34   ar
    13    41    43   am
    14    41    42    2
    15    26    25    1
    16    30    31   ar
    17    34    35   ar
    18    31    33   ar
    19    25    20   am
    20    35    33   ar
    21    21    20    2
    22    20    19    1
    23    19    22    1
    24    19    18    1
    25    22    23    1
    26    22    24    1
    27    18    13   am
    28    14    13    2
    29    13    12    1
    30    15    12    1
    31    15    16    1
    32    12    11    1
    33    16    17    1
    34    17    11    1
    35    11     5   am
    36     5     6    2
    37     5     2    1
    38     8     7    2
    39     2     3    1
    40     2     1    1
    41     3     4    1
    42     4     7    1
    43     7    10    1
    44     7     9    1
