@<TRIPOS>MOLECULE
3pxf_2AN_A_1.pdb
 21 23 0 0 0
SMALL
GASTEIGER

@<TRIPOS>ATOM
      1  C1       122.8060  133.7390   64.7520 C.ar  304  2AN304      0.0717
      2  C2       123.1690  132.5480   64.0390 C.ar  304  2AN304      0.0165
      3  C3       122.1960  131.7260   63.4460 C.ar  304  2AN304      0.0013
      4  C4       120.8370  132.0570   63.5310 C.ar  304  2AN304      0.0001
      5  C5       120.3990  133.2200   64.2130 C.ar  304  2AN304      0.0025
      6  C6       119.0110  133.5290   64.2760 C.ar  304  2AN304      0.0001
      7  C7       118.5460  134.6700   64.9420 C.ar  304  2AN304      0.0013
      8  C8       119.4530  135.5370   65.5670 C.ar  304  2AN304      0.0189
      9  N        123.7480  134.4790   65.2890 N.pl3 304  2AN304     -0.2124
     10  S        121.8640  136.4760   66.3950 S.3   304  2AN304      0.0421
     11  C9       120.8460  135.2870   65.5420 C.ar  304  2AN304      0.1135
     12  C10      121.3810  134.1110   64.8550 C.ar  304  2AN304      0.0329
     13  C11      124.6910  134.0930   66.1350 C.ar  304  2AN304      0.0705
     14  C12      124.6230  132.8740   66.9080 C.ar  304  2AN304      0.0165
     15  C13      125.6750  132.5270   67.8100 C.ar  304  2AN304      0.0013
     16  C14      126.8000  133.3920   67.9490 C.ar  304  2AN304      0.0001
     17  C15      126.8720  134.5920   67.1900 C.ar  304  2AN304      0.0013
     18  C16      125.8240  134.9400   66.2910 C.ar  304  2AN304      0.0165
     19  O1       122.7930  137.0720   65.4610 O.3   304  2AN304     -0.0650
     20  O2       122.5480  135.7720   67.4650 O.3   304  2AN304     -0.0650
     21  O3       120.9010  137.6330   67.0540 O.3   304  2AN304     -0.0650
@<TRIPOS>BOND
     1     3     4   ar
     2     3     2   ar
     3     4     5   ar
     4     2     1   ar
     5     5     6   ar
     6     5    12   ar
     7     6     7   ar
     8     1    12   ar
     9     1     9    1
    10    12    11   ar
    11     7     8   ar
    12     9    13    1
    13    19    10    1
    14    11     8   ar
    15    11    10    1
    16    13    18   ar
    17    13    14   ar
    18    18    17   ar
    19    10    21    1
    20    10    20    1
    21    14    15   ar
    22    17    16   ar
    23    15    16   ar
