@<TRIPOS>MOLECULE
3pxk_PXK_A_1.pdb
 15 16 0 0 0
SMALL
GASTEIGER

@<TRIPOS>ATOM
      1  S1        -1.4330   -3.9410   20.7150 S.3   701  PXK701     -0.0950
      2  C2        -0.0820   -4.2580   19.6350 C.3   701  PXK701      0.1548
      3  C3        -0.2430   -3.4680   18.5070 C.1   701  PXK701      0.0213
      4  N4        -1.3320   -2.6980   18.5620 N.2   701  PXK701     -0.2106
      5  C5        -2.0850   -2.8180   19.6010 C.3   701  PXK701      0.1948
      6  N6         0.8210   -3.7540   17.6750 N.2   701  PXK701     -0.1963
      7  C7         1.5690   -4.7360   18.2720 C.2   701  PXK701      0.1035
      8  C8         1.0580   -5.0400   19.4790 C.2   701  PXK701      0.0121
      9  C9         1.5970   -6.0940   20.4380 C.3   701  PXK701      0.1014
     10  C10        0.5370   -6.6080   21.3360 C.1   701  PXK701     -0.0865
     11  C11       -0.3320   -6.9680   22.0390 C.1   701  PXK701     -0.0927
     12  C12       -1.4460   -7.3810   22.9130 C.3   701  PXK701      0.0541
     13  C13       -0.9120   -7.8660   24.2600 C.3   701  PXK701      0.0130
     14  C14       -2.3700   -6.1860   23.1490 C.3   701  PXK701      0.0130
     15  C15       -2.2550   -8.5020   22.2580 C.3   701  PXK701      0.0130
@<TRIPOS>BOND
     1     6     7    1
     2     6     3    2
     3     7     8    2
     4     3     4    2
     5     3     2    1
     6     4     5    1
     7     8     2    1
     8     8     9    1
     9     5     1    1
    10     2     1    1
    11     9    10    1
    12    10    11    3
    13    11    12    1
    14    15    12    1
    15    12    14    1
    16    12    13    1
