@<TRIPOS>MOLECULE
3pxl_MAN_A_1.pdb
 11 11 0 0 0
SMALL
GASTEIGER

@<TRIPOS>ATOM
      1  C1        18.0980    5.8890   37.4030 C.3   1513  MAN1513     0.1777
      2  C2        19.4650    6.4870   37.6790 C.3   1513  MAN1513     0.2141
      3  C3        20.3940    5.5230   38.3990 C.3   1513  MAN1513     0.2173
      4  C4        19.7430    4.9010   39.6400 C.3   1513  MAN1513     0.2142
      5  C5        18.3960    4.3020   39.2230 C.3   1513  MAN1513     0.1810
      6  C6        17.5360    3.6560   40.3480 C.3   1513  MAN1513     0.2141
      7  O2        19.2510    7.5720   38.5520 O.3   1513  MAN1513    -0.2176
      8  O3        21.5450    6.2080   38.8060 O.3   1513  MAN1513    -0.2175
      9  O4        20.5610    3.8930   40.1750 O.3   1513  MAN1513    -0.2176
     10  O5        17.6370    5.3580   38.6450 O.3   1513  MAN1513    -0.3481
     11  O6        17.4430    4.6490   41.3280 O.3   1513  MAN1513    -0.2176
@<TRIPOS>BOND
     1     1     2    1
     2     1    10    1
     3     2     3    1
     4     2     7    1
     5     3     8    1
     6     3     4    1
     7    10     5    1
     8     5     4    1
     9     5     6    1
    10     4     9    1
    11     6    11    1
