@<TRIPOS>MOLECULE
3pxn_ADP_A_1.pdb
 27 29 0 0 0
SMALL
GASTEIGER

@<TRIPOS>ATOM
      1  PB       -10.0240  -53.8750   26.8220 P.3   401  ADP401      0.5373
      2  O1B      -10.0440  -53.6180   28.2740 O.3   401  ADP401     -0.1143
      3  O2B      -10.7450  -52.6790   26.0540 O.2   401  ADP401     -0.2221
      4  O3B       -8.4040  -53.9350   26.3390 O.3   401  ADP401     -0.1143
      5  PA       -12.0080  -55.1730   25.5070 P.3   401  ADP401      0.2231
      6  O1A      -13.0060  -54.2380   26.0640 O.3   401  ADP401     -0.4370
      7  O2A      -11.4550  -54.6220   24.0770 O.2   401  ADP401     -0.5169
      8  O3A      -10.7490  -55.2880   26.5490 O.3   401  ADP401     -0.2261
      9  O5'      -12.6550  -56.5910   25.3650 O.3   401  ADP401     -0.3111
     10  C5'      -11.7070  -57.4900   24.7760 C.3   401  ADP401      0.1813
     11  C4'      -12.5120  -58.5430   24.0730 C.3   401  ADP401      0.1821
     12  O4'      -13.3440  -59.2430   25.0470 O.3   401  ADP401     -0.3135
     13  C3'      -13.4510  -57.9070   22.9870 C.3   401  ADP401      0.2184
     14  O3'      -13.8040  -58.8090   21.9730 O.3   401  ADP401     -0.2174
     15  C2'      -14.7730  -57.8260   23.8600 C.3   401  ADP401      0.2570
     16  O2'      -15.9480  -57.9080   23.0300 O.3   401  ADP401     -0.2130
     17  C1'      -14.7430  -59.1320   24.6990 C.3   401  ADP401      0.3186
     18  N9       -15.5200  -58.9600   25.9120 N.pl3 401  ADP401     -0.1439
     19  C8       -15.0890  -58.2770   27.0510 C.3   401  ADP401      0.3377
     20  N7       -16.0640  -58.1750   27.9290 N.2   401  ADP401     -0.2095
     21  C5       -17.0960  -58.9310   27.5040 C.2   401  ADP401      0.2526
     22  C6       -18.3910  -59.2180   28.0070 C.2   401  ADP401      0.4393
     23  N6       -18.7490  -58.7990   29.2770 N.pl3 401  ADP401      0.2180
     24  N1       -19.2650  -59.9090   27.2270 N.2   401  ADP401      0.0021
     25  C2       -18.8810  -60.4320   26.0630 C.3   401  ADP401      0.5254
     26  N3       -17.6790  -60.1670   25.5510 N.2   401  ADP401     -0.0055
     27  C4       -16.7870  -59.4190   26.1880 C.2   401  ADP401      0.3518
@<TRIPOS>BOND
     1    14    13    1
     2    13    15    1
     3    13    11    1
     4    16    15    1
     5    15    17    1
     6    11    10    1
     7    11    12    1
     8     7     5    2
     9    17    12    1
    10    17    18    1
    11    10     9    1
    12     9     5    1
    13     5     6    1
    14     5     8    1
    15    26    25    1
    16    26    27    2
    17    18    27    1
    18    18    19    1
    19     3     1    2
    20    25    24    1
    21    27    21    1
    22     4     1    1
    23     8     1    1
    24     1     2    1
    25    19    20    1
    26    24    22    2
    27    21    20    2
    28    21    22    1
    29    22    23    1
