@<TRIPOS>MOLECULE
3pxo_RET_A_1.pdb
 20 20 0 0 0
SMALL
GASTEIGER

@<TRIPOS>ATOM
      1  C1       -43.1370  -16.0910   34.5730 C.3   801  RET801      0.0037
      2  C2       -43.4030  -17.6320   34.6910 C.3   801  RET801      0.0003
      3  C3       -44.6310  -18.0910   34.0820 C.3   801  RET801      0.0000
      4  C4       -45.8490  -17.2950   34.3710 C.3   801  RET801      0.0003
      5  C5       -45.6410  -15.8130   34.2740 C.3   801  RET801      0.0040
      6  C6       -44.4460  -15.2690   34.5260 C.3   801  RET801      0.0220
      7  C7       -44.2660  -13.8120   34.7350 C.2   801  RET801     -0.0268
      8  C8       -44.9650  -13.0110   35.5230 C.2   801  RET801     -0.0088
      9  C9       -44.7490  -11.5770   35.6970 C.2   801  RET801     -0.0222
     10  C10      -45.3130  -10.9990   36.7650 C.2   801  RET801     -0.0043
     11  C11      -45.2820   -9.6350   37.1980 C.2   801  RET801     -0.0007
     12  C12      -46.0210   -9.2150   38.2470 C.2   801  RET801     -0.0046
     13  C13      -46.0840   -7.8860   38.8020 C.2   801  RET801     -0.0261
     14  C14      -46.9660   -7.6440   39.8060 C.2   801  RET801     -0.0300
     15  C15      -47.1830   -6.3860   40.4920 C.3   801  RET801      0.0304
     16  C16      -42.2510  -15.6720   33.4490 C.3   801  RET801      0.0003
     17  C17      -42.3980  -15.8980   35.8830 C.3   801  RET801      0.0003
     18  C18      -46.8700  -15.0380   33.8490 C.3   801  RET801      0.0003
     19  C19      -43.9150  -10.8600   34.6760 C.3   801  RET801      0.0310
     20  C20      -45.1640   -6.8370   38.2410 C.3   801  RET801      0.0307
@<TRIPOS>BOND
     1    16     1    1
     2    18     5    1
     3     3     4    1
     4     3     2    1
     5     5     4    1
     6     5     6    1
     7     6     1    1
     8     6     7    1
     9     1     2    1
    10     1    17    1
    11    19     9    1
    12     7     8    2
    13     8     9    1
    14     9    10    2
    15    10    11    1
    16    11    12    2
    17    20    13    1
    18    12    13    1
    19    13    14    2
    20    14    15    1
