@<TRIPOS>MOLECULE
3pxp_MYR_A_1.pdb
 16 15 0 0 0
SMALL
GASTEIGER

@<TRIPOS>ATOM
      1  C1        50.7620   -0.9720   20.7540 C.2   301  MYR301      0.3649
      2  O1        50.9700    0.2110   20.5260 O.co2 301  MYR301     -0.2457
      3  O2        49.6630   -1.1820   21.4530 O.co2 301  MYR301     -0.2457
      4  C2        51.6520   -2.1650   20.3380 C.3   301  MYR301      0.1141
      5  C3        52.6660   -1.7360   19.2580 C.3   301  MYR301      0.0118
      6  C4        54.1360   -2.1430   19.5500 C.3   301  MYR301      0.0006
      7  C5        54.7640   -2.6940   18.2330 C.3   301  MYR301      0.0000
      8  C6        56.1770   -2.1850   17.9270 C.3   301  MYR301      0.0000
      9  C7        56.5390   -2.5990   16.4890 C.3   301  MYR301      0.0000
     10  C8        58.0560   -2.7260   16.2870 C.3   301  MYR301      0.0000
     11  C9        58.4670   -4.1880   16.1220 C.3   301  MYR301      0.0000
     12  C10       59.9680   -4.3540   15.9280 C.3   301  MYR301      0.0000
     13  C11       60.4660   -5.8110   16.0350 C.3   301  MYR301      0.0000
     14  C12       59.4490   -6.9250   15.8850 C.3   301  MYR301      0.0000
     15  C13       60.1710   -8.2500   16.0500 C.3   301  MYR301      0.0000
     16  C14       60.5200   -8.4260   17.5140 C.3   301  MYR301      0.0000
@<TRIPOS>BOND
     1    14    13    1
     2    14    15    1
     3    12    13    1
     4    12    11    1
     5    15    16    1
     6    11    10    1
     7    10     9    1
     8     9     8    1
     9     8     7    1
    10     7     6    1
    11     5     6    1
    12     5     4    1
    13     4     1    1
    14     2     1   ar
    15     1     3   ar
