@<TRIPOS>MOLECULE
3pxq_2AN_A_1.pdb
 21 23 0 0 0
SMALL
GASTEIGER

@<TRIPOS>ATOM
      1  C1       104.9440   95.3900   28.9750 C.ar  300  2AN300      0.0717
      2  C2       103.9580   95.2590   30.0180 C.ar  300  2AN300      0.0165
      3  C3       103.7660   96.2760   30.9680 C.ar  300  2AN300      0.0013
      4  C4       104.5490   97.4480   30.9220 C.ar  300  2AN300      0.0001
      5  C5       105.5420   97.6360   29.9210 C.ar  300  2AN300      0.0025
      6  C6       106.3200   98.8230   29.9000 C.ar  300  2AN300      0.0001
      7  C7       107.3100   99.0300   28.9110 C.ar  300  2AN300      0.0013
      8  C8       107.5410   98.0600   27.9180 C.ar  300  2AN300      0.0189
      9  N        105.1300   94.4420   28.0950 N.pl3 300  2AN300     -0.2124
     10  S        107.1630   95.6970   26.5620 S.3   300  2AN300      0.0421
     11  C9       106.7920   96.8520   27.8900 C.ar  300  2AN300      0.1135
     12  C10      105.7630   96.6000   28.9060 C.ar  300  2AN300      0.0329
     13  C11      104.2520   93.6650   27.5200 C.ar  300  2AN300      0.0705
     14  C12      102.9390   94.1040   27.1400 C.ar  300  2AN300      0.0165
     15  C13      102.0440   93.2010   26.5030 C.ar  300  2AN300      0.0013
     16  C14      102.4440   91.8670   26.2350 C.ar  300  2AN300      0.0001
     17  C15      103.7360   91.4280   26.6020 C.ar  300  2AN300      0.0013
     18  C16      104.6380   92.3250   27.2420 C.ar  300  2AN300      0.0165
     19  O1       105.9730   95.5280   25.7480 O.3   300  2AN300     -0.0650
     20  O2       107.5590   94.3990   27.0900 O.3   300  2AN300     -0.0650
     21  O3       108.3760   96.2870   25.6400 O.3   300  2AN300     -0.0650
@<TRIPOS>BOND
     1    21    10    1
     2    19    10    1
     3    16    15   ar
     4    16    17   ar
     5    15    14   ar
     6    10    20    1
     7    10    11    1
     8    17    18   ar
     9    14    13   ar
    10    18    13   ar
    11    13     9    1
    12    11     8   ar
    13    11    12   ar
    14     8     7   ar
    15     9     1    1
    16    12     1   ar
    17    12     5   ar
    18     7     6   ar
    19     1     2   ar
    20     6     5   ar
    21     5     4   ar
    22     2     3   ar
    23     4     3   ar
