@<TRIPOS>MOLECULE
3pxs_HEC_A_1.pdb
 43 50 0 0 0
SMALL
GASTEIGER

@<TRIPOS>ATOM
      1 FE         25.6720   29.3550  -84.4260 Fe    500  HEC500      0.0000
      2  CHA       25.6200   30.1700  -81.1010 C.2   500  HEC500      0.0000
      3  CHB       22.8690   31.2690  -84.9960 C.2   500  HEC500      0.0000
      4  CHC       26.2930   29.2190  -87.8000 C.2   500  HEC500      0.0000
      5  CHD       28.0490   26.9430  -83.8640 C.2   500  HEC500      0.0000
      6  NA        24.4290   30.5340  -83.2290 N.ar  500  HEC500      0.0000
      7  C1A       24.5070   30.7270  -81.9060 C.ar  500  HEC500      0.0000
      8  C2A       23.3840   31.5270  -81.3440 C.ar  500  HEC500      0.0000
      9  C3A       22.6090   31.8410  -82.4500 C.ar  500  HEC500      0.0000
     10  C4A       23.3260   31.2070  -83.5900 C.ar  500  HEC500      0.0000
     11  CMA       21.3300   32.6390  -82.4910 C.3   500  HEC500      0.0000
     12  CAA       23.1410   31.9110  -79.8990 C.3   500  HEC500      0.0000
     13  CBA       22.1250   30.9560  -79.2780 C.3   500  HEC500      0.0000
     14  CGA       22.1140   31.0690  -77.7630 C.2   500  HEC500      0.0000
     15  O1A       21.2730   30.3980  -77.1330 O.co2 500  HEC500      0.0000
     16  O2A       22.9340   31.8190  -77.1820 O.co2 500  HEC500      0.0000
     17  NB        24.7040   30.0970  -86.1320 N.2   500  HEC500      0.0000
     18  C1B       23.6720   30.9540  -86.1930 C.2   500  HEC500      0.0000
     19  C2B       23.4080   31.4950  -87.5580 C.2   500  HEC500      0.0000
     20  C3B       24.3820   30.9020  -88.3530 C.2   500  HEC500      0.0000
     21  C4B       25.1430   30.0520  -87.4010 C.2   500  HEC500      0.0000
     22  CMB       22.3210   32.4630  -87.9600 C.3   500  HEC500      0.0000
     23  CAB       24.6400   31.0760  -89.8360 C.3   500  HEC500      0.0000
     24  CBB       25.2240   32.4540  -90.0860 C.3   500  HEC500      0.0000
     25  NC        26.9620   28.2320  -85.6390 N.ar  500  HEC500      0.0000
     26  C1C       27.0820   28.2870  -86.9710 C.ar  500  HEC500      0.0000
     27  C2C       28.0640   27.3300  -87.5420 C.ar  500  HEC500      0.0000
     28  C3C       28.5890   26.6810  -86.4330 C.ar  500  HEC500      0.0000
     29  C4C       27.8590   27.3020  -85.2870 C.ar  500  HEC500      0.0000
     30  CMC       28.3850   27.1500  -89.0040 C.3   500  HEC500      0.0000
     31  CAC       29.6130   25.5660  -86.3630 C.3   500  HEC500      0.0000
     32  CBC       30.9710   25.9620  -86.8940 C.3   500  HEC500      0.0000
     33  ND        26.6340   28.6110  -82.7300 N.2   500  HEC500      0.0000
     34  C1D       27.7080   27.8010  -82.7000 C.2   500  HEC500      0.0000
     35  C2D       28.4540   27.8270  -81.4120 C.2   500  HEC500      0.0000
     36  C3D       27.7540   28.7460  -80.6450 C.2   500  HEC500      0.0000
     37  C4D       26.6430   29.1880  -81.5190 C.2   500  HEC500      0.0000
     38  CMD       29.6910   27.0560  -81.0220 C.3   500  HEC500      0.0000
     39  CAD       28.0410   29.1990  -79.2360 C.3   500  HEC500      0.0000
     40  CBD       29.2360   30.1310  -79.2660 C.3   500  HEC500      0.0000
     41  CGD       29.3210   30.9200  -77.9850 C.2   500  HEC500      0.0000
     42  O1D       30.2940   31.6870  -77.8620 O.co2 500  HEC500      0.0000
     43  O2D       28.4370   30.7940  -77.1090 O.co2 500  HEC500      0.0000
@<TRIPOS>BOND
     1    24    23    1
     2    23    20    1
     3    30    27    1
     4    20    19    2
     5    20    21    1
     6    22    19    1
     7     4    21    2
     8     4    26    1
     9    19    18    1
    10    27    26   ar
    11    27    28   ar
    12    21    17    1
    13    26    25   ar
    14    32    31    1
    15    28    31    1
    16    28    29   ar
    17    18    17    2
    18    18     3    1
    19    17     1    1
    20    25    29   ar
    21    25     1    1
    22    29     5    1
    23     3    10    2
    24     1     6    1
    25     1    33    1
    26     5    34    2
    27    10     6   ar
    28    10     9   ar
    29     6     7   ar
    30    33    34    1
    31    33    37    2
    32    34    35    1
    33    11     9    1
    34     9     8   ar
    35     7     8   ar
    36     7     2    2
    37    37     2    1
    38    37    36    1
    39    35    38    1
    40    35    36    2
    41     8    12    1
    42    36    39    1
    43    12    13    1
    44    13    14    1
    45    40    39    1
    46    40    41    1
    47    41    42   ar
    48    41    43   ar
    49    14    16   ar
    50    14    15   ar
