@<TRIPOS>MOLECULE
3pxt_HEC_A_1.pdb
 43 50 0 0 0
SMALL
GASTEIGER

@<TRIPOS>ATOM
      1 FE         25.6730   29.3610  -84.3790 Fe    500  HEC500      0.0000
      2  CHA       25.5580   30.0820  -81.0040 C.2   500  HEC500      0.0000
      3  CHB       22.8310   31.2060  -84.9420 C.2   500  HEC500      0.0000
      4  CHC       26.3390   29.3120  -87.7730 C.2   500  HEC500      0.0000
      5  CHD       27.9590   26.8570  -83.8540 C.2   500  HEC500      0.0000
      6  NA        24.3930   30.4740  -83.1580 N.ar  500  HEC500      0.0000
      7  C1A       24.4410   30.6450  -81.8220 C.ar  500  HEC500      0.0000
      8  C2A       23.2930   31.4440  -81.2920 C.ar  500  HEC500      0.0000
      9  C3A       22.5420   31.7550  -82.4180 C.ar  500  HEC500      0.0000
     10  C4A       23.2790   31.1230  -83.5370 C.ar  500  HEC500      0.0000
     11  CMA       21.2620   32.5410  -82.5300 C.3   500  HEC500      0.0000
     12  CAA       23.0080   31.8390  -79.8620 C.3   500  HEC500      0.0000
     13  CBA       21.9740   30.8990  -79.2560 C.3   500  HEC500      0.0000
     14  CGA       21.9370   30.9750  -77.7370 C.2   500  HEC500      0.0000
     15  O1A       21.0190   30.3730  -77.1430 O.co2 500  HEC500      0.0000
     16  O2A       22.8060   31.6200  -77.1080 O.co2 500  HEC500      0.0000
     17  NB        24.7240   30.1320  -86.0860 N.2   500  HEC500      0.0000
     18  C1B       23.6390   30.9190  -86.1440 C.2   500  HEC500      0.0000
     19  C2B       23.3400   31.4420  -87.5040 C.2   500  HEC500      0.0000
     20  C3B       24.3320   30.9020  -88.3040 C.2   500  HEC500      0.0000
     21  C4B       25.1420   30.0840  -87.3680 C.2   500  HEC500      0.0000
     22  CMB       22.2080   32.3590  -87.9050 C.3   500  HEC500      0.0000
     23  CAB       24.5590   31.0820  -89.7900 C.3   500  HEC500      0.0000
     24  CBB       25.0850   32.4690  -90.1020 C.3   500  HEC500      0.0000
     25  NC        26.9640   28.2560  -85.6150 N.ar  500  HEC500      0.0000
     26  C1C       27.0740   28.3160  -86.9560 C.ar  500  HEC500      0.0000
     27  C2C       28.0200   27.3260  -87.5320 C.ar  500  HEC500      0.0000
     28  C3C       28.4960   26.6210  -86.4320 C.ar  500  HEC500      0.0000
     29  C4C       27.7900   27.2510  -85.2750 C.ar  500  HEC500      0.0000
     30  CMC       28.3220   27.1680  -88.9960 C.3   500  HEC500      0.0000
     31  CAC       29.4610   25.4460  -86.3680 C.3   500  HEC500      0.0000
     32  CBC       30.8790   25.7700  -86.7840 C.3   500  HEC500      0.0000
     33  ND        26.5870   28.5510  -82.6760 N.2   500  HEC500      0.0000
     34  C1D       27.6200   27.6820  -82.6580 C.2   500  HEC500      0.0000
     35  C2D       28.3500   27.6470  -81.3590 C.2   500  HEC500      0.0000
     36  C3D       27.6700   28.5590  -80.5600 C.2   500  HEC500      0.0000
     37  C4D       26.5710   29.0710  -81.4260 C.2   500  HEC500      0.0000
     38  CMD       29.5600   26.8240  -80.9930 C.3   500  HEC500      0.0000
     39  CAD       27.9810   28.9540  -79.1340 C.3   500  HEC500      0.0000
     40  CBD       29.1200   29.9680  -79.2160 C.3   500  HEC500      0.0000
     41  CGD       29.2790   30.7730  -77.9370 C.2   500  HEC500      0.0000
     42  O1D       30.3790   31.3310  -77.7500 O.co2 500  HEC500      0.0000
     43  O2D       28.3280   30.8770  -77.1250 O.co2 500  HEC500      0.0000
@<TRIPOS>BOND
     1    24    23    1
     2    23    20    1
     3    30    27    1
     4    20    19    2
     5    20    21    1
     6    22    19    1
     7     4    21    2
     8     4    26    1
     9    27    26   ar
    10    27    28   ar
    11    19    18    1
    12    21    17    1
    13    26    25   ar
    14    32    31    1
    15    28    31    1
    16    28    29   ar
    17    18    17    2
    18    18     3    1
    19    17     1    1
    20    25    29   ar
    21    25     1    1
    22    29     5    1
    23     3    10    2
    24     1     6    1
    25     1    33    1
    26     5    34    2
    27    10     6   ar
    28    10     9   ar
    29     6     7   ar
    30    33    34    1
    31    33    37    2
    32    34    35    1
    33    11     9    1
    34     9     8   ar
    35     7     8   ar
    36     7     2    2
    37    37     2    1
    38    37    36    1
    39    35    38    1
    40    35    36    2
    41     8    12    1
    42    36    39    1
    43    12    13    1
    44    13    14    1
    45    40    39    1
    46    40    41    1
    47    41    42   ar
    48    41    43   ar
    49    14    15   ar
    50    14    16   ar
