@<TRIPOS>MOLECULE
3pxu_COD_A_1.pdb
 44 46 0 0 0
SMALL
GASTEIGER

@<TRIPOS>ATOM
      1  N1       -21.2270   42.7210  -23.8210 N.2   201  COD201      0.0021
      2  C2       -22.2250   42.9560  -22.9490 C.3   201  COD201      0.5254
      3  N3       -22.7430   42.0340  -22.1200 N.2   201  COD201     -0.0055
      4  C4       -22.2540   40.7860  -22.1200 C.2   201  COD201      0.3518
      5  C5       -21.1520   40.4400  -23.0310 C.2   201  COD201      0.2526
      6  C6       -20.6480   41.5150  -23.9270 C.2   201  COD201      0.4393
      7  N7       -19.6470   41.3330  -24.8260 N.pl3 201  COD201      0.2180
      8  N8       -20.8990   39.1360  -22.8090 N.2   201  COD201     -0.2095
      9  C9       -21.7400   38.6940  -21.8300 C.3   201  COD201      0.3377
     10  N10      -22.5560   39.6980  -21.4270 N.pl3 201  COD201     -0.1439
     11  C11      -23.6300   39.6750  -20.3960 C.3   201  COD201      0.3186
     12  C12      -24.1340   38.2790  -20.0840 C.3   201  COD201      0.2570
     13  O13      -25.1920   37.9560  -20.9770 O.3   201  COD201     -0.2130
     14  C14      -24.7150   38.4730  -18.7100 C.3   201  COD201      0.2184
     15  O15      -25.9440   39.1900  -18.8490 O.3   201  COD201     -0.2174
     16  C16      -23.7460   39.4390  -18.0630 C.3   201  COD201      0.1821
     17  O17      -23.2170   40.2280  -19.1510 O.3   201  COD201     -0.3135
     18  C18      -22.6720   38.6430  -17.3070 C.3   201  COD201      0.1813
     19  O19      -22.0330   37.6450  -18.1370 O.3   201  COD201     -0.3112
     20  P20      -21.4560   36.2630  -17.5280 P.3   201  COD201      0.2189
     21  O21      -21.4760   35.2350  -18.6200 O.2   201  COD201     -0.5170
     22  O22      -20.1400   36.6320  -16.9180 O.3   201  COD201     -0.4371
     23  O23      -22.5470   35.8840  -16.3870 O.3   201  COD201     -0.2703
     24  P24      -23.6280   34.6550  -16.3500 P.3   201  COD201      0.2188
     25  O25      -24.3420   34.4720  -17.6690 O.2   201  COD201     -0.5170
     26  O26      -22.9340   33.4600  -15.7450 O.3   201  COD201     -0.4371
     27  O27      -24.7300   35.1330  -15.2680 O.3   201  COD201     -0.3138
     28  C28      -25.7110   34.2210  -14.7580 C.3   201  COD201      0.1519
     29  C29      -25.7710   34.2980  -13.2340 C.3   201  COD201      0.0645
     30  C30      -24.3500   34.1860  -12.7280 C.3   201  COD201      0.0056
     31  C31      -26.3830   35.5970  -12.7530 C.3   201  COD201      0.0056
     32  C32      -26.6370   33.1590  -12.7020 C.3   201  COD201      0.2312
     33  O33      -25.9230   31.9190  -12.7900 O.3   201  COD201     -0.2131
     34  C34      -27.0410   33.3970  -11.2720 C.2   201  COD201      0.2719
     35  O35      -27.5390   34.4620  -10.9650 O.2   201  COD201     -0.2706
     36  N36      -26.8430   32.3830  -10.4140 N.am  201  COD201     -0.2028
     37  C37      -26.8010   32.5330   -8.9660 C.3   201  COD201      0.1248
     38  C38      -27.6660   31.5260   -8.2040 C.3   201  COD201      0.1102
     39  C39      -29.1250   31.5760   -8.6410 C.2   201  COD201      0.2432
     40  O40      -29.9630   32.1610   -7.9790 O.2   201  COD201     -0.2733
     41  N41      -29.4700   30.9690   -9.7720 N.am  201  COD201     -0.2044
     42  C42      -30.7780   31.2360  -10.3640 C.3   201  COD201      0.1276
     43  C43      -30.7640   32.2640  -11.4900 C.3   201  COD201      0.0920
     44  S44      -32.4590   32.6410  -12.0460 S.3   201  COD201     -0.0802
@<TRIPOS>BOND
     1     7     6    1
     2     6     1    2
     3     6     5    1
     4     1     2    1
     5     5     8    2
     6     5     4    1
     7     2     3    1
     8     8     9    1
     9     3     4    2
    10     4    10    1
    11     9    10    1
    12    10    11    1
    13    13    12    1
    14    11    12    1
    15    11    17    1
    16    12    14    1
    17    17    16    1
    18    15    14    1
    19    14    16    1
    20    21    20    2
    21    19    20    1
    22    19    18    1
    23    16    18    1
    24    25    24    2
    25    20    22    1
    26    20    23    1
    27    23    24    1
    28    24    26    1
    29    24    27    1
    30    27    28    1
    31    28    29    1
    32    29    31    1
    33    29    30    1
    34    29    32    1
    35    33    32    1
    36    32    34    1
    37    44    43    1
    38    43    42    1
    39    34    35    2
    40    34    36   am
    41    36    37    1
    42    42    41    1
    43    41    39   am
    44    37    38    1
    45    39    38    1
    46    39    40    2
