@<TRIPOS>MOLECULE
3pxv_FMN_A_1.pdb
 31 33 0 0 0
SMALL
GASTEIGER

@<TRIPOS>ATOM
      1  N1        33.0210   62.8200   89.9190 N.2   200  FMN200     -0.2887
      2  C2        31.9950   62.9440   88.9880 C.1   200  FMN200      0.3669
      3  O2        32.1690   63.6240   87.9620 O.2   200  FMN200     -0.1744
      4  N3        30.7860   62.2990   89.2170 N.2   200  FMN200     -0.2300
      5  C4        30.6200   61.5490   90.3820 C.1   200  FMN200      0.2513
      6  O4        29.5280   60.9870   90.5550 O.2   200  FMN200     -0.2057
      7  C4A       31.6780   61.4340   91.3290 C.2   200  FMN200      0.2703
      8  N5        31.5590   60.6920   92.4950 N.2   200  FMN200     -0.3882
      9  C5A       32.6860   60.3860   93.2600 C.2   200  FMN200      0.1277
     10  C6        32.5990   59.4360   94.2840 C.3   200  FMN200      0.0820
     11  C7        33.7040   59.0950   95.0710 C.2   200  FMN200     -0.0408
     12  C7M       33.5940   58.0700   96.1600 C.3   200  FMN200      0.0265
     13  C8        34.8990   59.7270   94.8180 C.2   200  FMN200     -0.0280
     14  C8M       36.1010   59.3950   95.6230 C.3   200  FMN200      0.0304
     15  C9        34.9980   60.6820   93.7950 C.2   200  FMN200      0.0123
     16  C9A       33.9050   61.0260   93.0010 C.2   200  FMN200      0.0793
     17  N10       33.9630   61.9970   91.9680 N.pl3 200  FMN200     -0.2545
     18  C10       32.8900   62.0890   91.0730 C.2   200  FMN200      0.2449
     19  C1'       35.2550   62.6090   91.5340 C.3   200  FMN200      0.1336
     20  C2'       35.8260   63.6320   92.5060 C.3   200  FMN200      0.2048
     21  O2'       35.3680   64.9130   92.1420 O.3   200  FMN200     -0.2185
     22  C3'       37.3700   63.6190   92.4440 C.3   200  FMN200      0.2165
     23  O3'       37.9190   62.4460   93.0410 O.3   200  FMN200     -0.2175
     24  C4'       37.9560   64.8420   93.1350 C.3   200  FMN200      0.2147
     25  O4'       37.5360   66.0080   92.4480 O.3   200  FMN200     -0.2176
     26  C5'       39.4860   64.7650   93.2370 C.3   200  FMN200      0.1892
     27  O5'       40.0290   64.8890   91.9490 O.3   200  FMN200     -0.2674
     28  P         40.9510   63.7800   91.3450 P.3   200  FMN200      0.5327
     29  O1P       41.0360   64.1610   89.8830 O.2   200  FMN200     -0.2224
     30  O2P       40.2910   62.4260   91.3840 O.3   200  FMN200     -0.1145
     31  O3P       42.2930   63.8390   92.0530 O.3   200  FMN200     -0.1145
@<TRIPOS>BOND
     1     3     2    2
     2     2     4    2
     3     2     1    2
     4     4     5    2
     5    29    28    2
     6     1    18    2
     7     5     6    2
     8     5     7    1
     9    18     7    1
    10    18    17    1
    11     7     8    2
    12    28    30    1
    13    28    27    1
    14    28    31    1
    15    19    17    1
    16    19    20    1
    17    27    26    1
    18    17    16    1
    19    21    20    1
    20    22    20    1
    21    22    23    1
    22    22    24    1
    23    25    24    1
    24     8     9    2
    25    16     9    1
    26    16    15    2
    27    24    26    1
    28     9    10    1
    29    15    13    1
    30    10    11    1
    31    13    11    2
    32    13    14    1
    33    11    12    1
