@<TRIPOS>MOLECULE
3pxw_HEC_A_1.pdb
 43 50 0 0 0
SMALL
GASTEIGER

@<TRIPOS>ATOM
      1 FE         25.7150   29.4000  -84.3910 Fe    500  HEC500      0.0000
      2  CHA       25.5980   30.0620  -81.0480 C.2   500  HEC500      0.0000
      3  CHB       22.7960   31.1320  -84.9220 C.2   500  HEC500      0.0000
      4  CHC       26.4150   29.4830  -87.7260 C.2   500  HEC500      0.0000
      5  CHD       28.0430   26.9370  -83.9070 C.2   500  HEC500      0.0000
      6  NA        24.3820   30.4300  -83.1560 N.ar  500  HEC500      0.0000
      7  C1A       24.4600   30.6100  -81.8340 C.ar  500  HEC500      0.0000
      8  C2A       23.3260   31.4030  -81.2770 C.ar  500  HEC500      0.0000
      9  C3A       22.5490   31.7020  -82.3860 C.ar  500  HEC500      0.0000
     10  C4A       23.2660   31.0730  -83.5190 C.ar  500  HEC500      0.0000
     11  CMA       21.2670   32.4890  -82.4590 C.3   500  HEC500      0.0000
     12  CAA       23.0680   31.8100  -79.8410 C.3   500  HEC500      0.0000
     13  CBA       22.0360   30.8890  -79.2050 C.3   500  HEC500      0.0000
     14  CGA       22.0560   30.9810  -77.6860 C.2   500  HEC500      0.0000
     15  O1A       21.0980   30.5100  -77.0440 O.co2 500  HEC500      0.0000
     16  O2A       23.0220   31.5100  -77.1010 O.co2 500  HEC500      0.0000
     17  NB        24.7480   30.1910  -86.0700 N.2   500  HEC500      0.0000
     18  C1B       23.6080   30.8900  -86.1280 C.2   500  HEC500      0.0000
     19  C2B       23.2530   31.3640  -87.4970 C.2   500  HEC500      0.0000
     20  C3B       24.2840   30.8920  -88.2920 C.2   500  HEC500      0.0000
     21  C4B       25.1620   30.1600  -87.3420 C.2   500  HEC500      0.0000
     22  CMB       22.0460   32.1780  -87.9010 C.3   500  HEC500      0.0000
     23  CAB       24.5040   31.0540  -89.7880 C.3   500  HEC500      0.0000
     24  CBB       24.9220   32.4720  -90.1140 C.3   500  HEC500      0.0000
     25  NC        27.0580   28.3810  -85.6310 N.ar  500  HEC500      0.0000
     26  C1C       27.1380   28.4410  -86.9630 C.ar  500  HEC500      0.0000
     27  C2C       28.0180   27.4080  -87.5740 C.ar  500  HEC500      0.0000
     28  C3C       28.4900   26.6880  -86.4830 C.ar  500  HEC500      0.0000
     29  C4C       27.8520   27.3510  -85.3130 C.ar  500  HEC500      0.0000
     30  CMC       28.3020   27.2170  -89.0440 C.3   500  HEC500      0.0000
     31  CAC       29.4100   25.4860  -86.4350 C.3   500  HEC500      0.0000
     32  CBC       30.8160   25.8120  -86.8990 C.3   500  HEC500      0.0000
     33  ND        26.6450   28.5720  -82.7130 N.2   500  HEC500      0.0000
     34  C1D       27.6890   27.7310  -82.7060 C.2   500  HEC500      0.0000
     35  C2D       28.4100   27.6750  -81.4070 C.2   500  HEC500      0.0000
     36  C3D       27.7120   28.5580  -80.6050 C.2   500  HEC500      0.0000
     37  C4D       26.6260   29.0800  -81.4750 C.2   500  HEC500      0.0000
     38  CMD       29.6240   26.8540  -81.0490 C.3   500  HEC500      0.0000
     39  CAD       28.0110   28.9270  -79.1750 C.3   500  HEC500      0.0000
     40  CBD       29.1220   29.9670  -79.2520 C.3   500  HEC500      0.0000
     41  CGD       29.3130   30.6770  -77.9330 C.2   500  HEC500      0.0000
     42  O1D       30.4210   31.2220  -77.7450 O.co2 500  HEC500      0.0000
     43  O2D       28.3720   30.7180  -77.1040 O.co2 500  HEC500      0.0000
@<TRIPOS>BOND
     1    24    23    1
     2    23    20    1
     3    30    27    1
     4    20    19    2
     5    20    21    1
     6    22    19    1
     7     4    21    2
     8     4    26    1
     9    27    26   ar
    10    27    28   ar
    11    19    18    1
    12    21    17    1
    13    26    25   ar
    14    32    31    1
    15    28    31    1
    16    28    29   ar
    17    18    17    2
    18    18     3    1
    19    17     1    1
    20    25    29   ar
    21    25     1    1
    22    29     5    1
    23     3    10    2
    24     1     6    1
    25     1    33    1
    26     5    34    2
    27    10     6   ar
    28    10     9   ar
    29     6     7   ar
    30    33    34    1
    31    33    37    2
    32    34    35    1
    33    11     9    1
    34     9     8   ar
    35     7     8   ar
    36     7     2    2
    37    37     2    1
    38    37    36    1
    39    35    38    1
    40    35    36    2
    41     8    12    1
    42    36    39    1
    43    12    13    1
    44    40    39    1
    45    40    41    1
    46    13    14    1
    47    41    42   ar
    48    41    43   ar
    49    14    16   ar
    50    14    15   ar
