@<TRIPOS>MOLECULE
3pxx_NAD_A_1.pdb
 44 48 0 0 0
SMALL
GASTEIGER

@<TRIPOS>ATOM
      1  PA        37.4550    4.4190   50.8220 P.3   284  NAD284      0.2189
      2  O1A       36.1690    5.1970   51.1360 O.2   284  NAD284     -0.5170
      3  O2A       37.7090    3.1140   51.4810 O.3   284  NAD284     -0.4371
      4  O5B       38.6970    5.4110   51.0860 O.3   284  NAD284     -0.3112
      5  C5B       38.5790    6.8310   50.9900 C.3   284  NAD284      0.1813
      6  C4B       39.5140    7.3100   52.1070 C.3   284  NAD284      0.1821
      7  O4B       39.5990    8.7420   52.0390 O.3   284  NAD284     -0.3135
      8  C3B       38.8670    6.9730   53.4770 C.3   284  NAD284      0.2184
      9  O3B       39.8740    6.5440   54.4080 O.3   284  NAD284     -0.2174
     10  C2B       38.2400    8.2890   53.9090 C.3   284  NAD284      0.2570
     11  O2B       38.0570    8.3840   55.3630 O.3   284  NAD284     -0.2130
     12  C1B       39.2780    9.2610   53.3650 C.3   284  NAD284      0.3186
     13  N9A       38.7380   10.6310   53.1840 N.pl3 284  NAD284     -0.1439
     14  C8A       37.5470   10.9330   52.6330 C.3   284  NAD284      0.3377
     15  N7A       37.3950   12.2710   52.6180 N.2   284  NAD284     -0.2095
     16  C5A       38.5090   12.8220   53.1690 C.2   284  NAD284      0.2526
     17  C6A       38.9380   14.1200   53.3980 C.2   284  NAD284      0.4393
     18  N6A       38.1570   15.2000   53.0930 N.pl3 284  NAD284      0.2180
     19  N1A       40.1580   14.3100   53.9640 N.2   284  NAD284      0.0021
     20  C2A       40.9550   13.2840   54.2880 C.3   284  NAD284      0.5254
     21  N3A       40.5510   12.0240   54.0490 N.2   284  NAD284     -0.0055
     22  C4A       39.3600   11.7710   53.4920 C.2   284  NAD284      0.3518
     23  O3        37.3950    4.1480   49.2580 O.3   284  NAD284     -0.2703
     24  PN        38.5530    3.9710   48.1740 P.3   284  NAD284      0.2189
     25  O1N       37.9020    3.1460   47.0820 O.2   284  NAD284     -0.5170
     26  O2N       39.8580    3.5460   48.8380 O.3   284  NAD284     -0.4371
     27  O5D       38.6420    5.4710   47.6510 O.3   284  NAD284     -0.3112
     28  C5D       39.9200    6.0590   47.3770 C.3   284  NAD284      0.1813
     29  C4D       39.9250    6.8290   46.0710 C.3   284  NAD284      0.1799
     30  O4D       39.6710    5.9980   44.9240 O.3   284  NAD284     -0.3327
     31  C3D       38.8720    7.9480   46.0450 C.3   284  NAD284      0.2158
     32  O3D       39.4770    9.0810   45.4050 O.3   284  NAD284     -0.2175
     33  C2D       37.8380    7.4000   45.0850 C.3   284  NAD284      0.2309
     34  O2D       37.0040    8.4270   44.5010 O.3   284  NAD284     -0.2158
     35  C1D       38.6540    6.6240   44.0920 C.3   284  NAD284      0.2263
     36  N1N       37.8840    5.6410   43.2980 N.pl3 284  NAD284     -0.2787
     37  C2N       37.2300    4.5960   43.8890 C.3   284  NAD284      0.1244
     38  C3N       36.5360    3.6570   43.1070 C.2   284  NAD284      0.0544
     39  C7N       35.8160    2.4990   43.7440 C.2   284  NAD284      0.2818
     40  O7N       35.0700    1.8130   43.0350 O.2   284  NAD284     -0.2670
     41  N7N       35.9760    2.2260   45.0550 N.am  284  NAD284     -0.0839
     42  C4N       36.5030    3.8020   41.6870 C.2   284  NAD284      0.0033
     43  C5N       37.2330    4.8570   41.1070 C.2   284  NAD284      0.0157
     44  C6N       37.9220    5.7700   41.9280 C.2   284  NAD284      0.0633
@<TRIPOS>BOND
     1    43    42    1
     2    43    44    2
     3    42    38    2
     4    44    36    1
     5    40    39    2
     6    38    39    1
     7    38    37    1
     8    36    37    1
     9    36    35    1
    10    39    41   am
    11    35    30    1
    12    35    33    1
    13    34    33    1
    14    30    29    1
    15    33    31    1
    16    32    31    1
    17    31    29    1
    18    29    28    1
    19    25    24    2
    20    28    27    1
    21    27    24    1
    22    24    26    1
    23    24    23    1
    24    23     1    1
    25     1     4    1
    26     1     2    2
    27     1     3    1
    28     5     4    1
    29     5     6    1
    30     7     6    1
    31     7    12    1
    32     6     8    1
    33    15    14    1
    34    15    16    2
    35    14    13    1
    36    18    17    1
    37    16    17    1
    38    16    22    1
    39    13    12    1
    40    13    22    1
    41    12    10    1
    42    17    19    2
    43     8    10    1
    44     8     9    1
    45    22    21    2
    46    10    11    1
    47    19    20    1
    48    21    20    1
