@<TRIPOS>MOLECULE
3pxy_JWS_A_1.pdb
 17 18 0 0 0
SMALL
GASTEIGER

@<TRIPOS>ATOM
      1  N1        62.2180   81.5410  -82.3630 N.2   299  JWS299     -0.2413
      2  C2        63.2220   80.6550  -82.0750 C.1   299  JWS299      0.2622
      3  N3        63.3140   80.0940  -80.8500 N.pl3 299  JWS299     -0.0220
      4  N4        64.1460   80.3290  -83.0440 N.2   299  JWS299     -0.2575
      5  C5        64.0650   80.8850  -84.3020 C.1   299  JWS299      0.1664
      6  C6        65.0670   80.5150  -85.3490 C.ar  299  JWS299      0.1290
      7  C7        65.0210   81.0600  -86.7050 C.ar  299  JWS299      0.2072
      8  O8        64.0340   81.9470  -87.0430 O.3   299  JWS299     -0.2858
      9  C9        66.0080   80.6540  -87.6650 C.ar  299  JWS299      0.0459
     10  C10       67.0470   79.7180  -87.2980 C.ar  299  JWS299      0.0402
     11  C11       67.1310   79.1530  -85.9400 C.ar  299  JWS299      0.1397
     12  O12       68.1050   78.3130  -85.6710 O.3   299  JWS299     -0.4714
     13  C13       66.1060   79.5850  -84.9960 C.ar  299  JWS299      0.0522
     14  N14       63.0500   81.7720  -84.5740 N.2   299  JWS299     -0.2575
     15  C15       62.1300   82.1070  -83.6200 C.1   299  JWS299      0.2622
     16  N16       61.1570   82.9780  -83.9190 N.pl3 299  JWS299     -0.0220
     17  C17       69.1080   77.9040  -86.6280 C.3   299  JWS299      0.2525
@<TRIPOS>BOND
     1     9    10   ar
     2     9     7   ar
     3    10    11   ar
     4     8     7    1
     5     7     6   ar
     6    17    12    1
     7    11    12    1
     8    11    13   ar
     9     6    13   ar
    10     6     5    1
    11    14     5    2
    12    14    15    2
    13     5     4    2
    14    16    15    1
    15    15     1    2
    16     4     2    2
    17     1     2    2
    18     2     3    1
