@<TRIPOS>MOLECULE
3pxz_JWS_A_1.pdb
 17 18 0 0 0
SMALL
GASTEIGER

@<TRIPOS>ATOM
      1  N1       101.6020   93.9180   29.4980 N.2   301  JWS301     -0.2413
      2  C2       102.7310   93.8220   28.7100 C.1   301  JWS301      0.2622
      3  N3       102.8520   92.8460   27.7960 N.pl3 301  JWS301     -0.0220
      4  N4       103.7420   94.7390   28.8540 N.2   301  JWS301     -0.2575
      5  C5       103.6270   95.7510   29.7850 C.1   301  JWS301      0.1664
      6  C6       104.7090   96.7620   29.9230 C.ar  301  JWS301      0.1290
      7  C7       104.6080   97.8510   30.8790 C.ar  301  JWS301      0.2072
      8  O8       103.5030   97.9560   31.6850 O.3   301  JWS301     -0.2858
      9  C9       105.6770   98.8170   30.9550 C.ar  301  JWS301      0.0459
     10  C10      106.8070   98.7060   30.1070 C.ar  301  JWS301      0.0402
     11  C11      106.9420   97.6380   29.1440 C.ar  301  JWS301      0.1397
     12  O12      108.0130   97.6190   28.3920 O.3   301  JWS301     -0.4714
     13  C13      105.8570   96.6670   29.0820 C.ar  301  JWS301      0.0522
     14  N14      102.4980   95.8260   30.5640 N.2   301  JWS301     -0.2575
     15  C15      101.4920   94.9300   30.4310 C.1   301  JWS301      0.2622
     16  N16      100.4080   95.0470   31.2090 N.pl3 301  JWS301     -0.0220
     17  C17      109.0460   98.6150   28.4860 C.3   301  JWS301      0.2525
@<TRIPOS>BOND
     1     3     2    1
     2    12    17    1
     3    12    11    1
     4     2     4    2
     5     2     1    2
     6     4     5    2
     7    13    11   ar
     8    13     6   ar
     9    11    10   ar
    10     1    15    2
    11     5     6    1
    12     5    14    2
    13     6     7   ar
    14    10     9   ar
    15    15    14    2
    16    15    16    1
    17     7     9   ar
    18     7     8    1
