@<TRIPOS>MOLECULE
3pxz_2AN_A_1.pdb
 21 23 0 0 0
SMALL
GASTEIGER

@<TRIPOS>ATOM
      1  C1       123.0440   99.3240   28.7850 C.ar  299  2AN299      0.0717
      2  C2       123.4110   98.1310   28.0700 C.ar  299  2AN299      0.0165
      3  C3       122.4370   97.3040   27.4700 C.ar  299  2AN299      0.0013
      4  C4       121.0670   97.6070   27.5310 C.ar  299  2AN299      0.0001
      5  C5       120.6120   98.7680   28.2090 C.ar  299  2AN299      0.0025
      6  C6       119.2010   99.0980   28.2740 C.ar  299  2AN299      0.0001
      7  C7       118.7610  100.2470   28.9450 C.ar  299  2AN299      0.0013
      8  C8       119.6740  101.1100   29.5790 C.ar  299  2AN299      0.0189
      9  N        123.9770  100.0710   29.3280 N.pl3 299  2AN299     -0.2124
     10  S        122.0800  102.0550   30.4310 S.3   299  2AN299      0.0421
     11  C9       121.0700  100.8670   29.5670 C.ar  299  2AN299      0.1135
     12  C10      121.6230   99.6960   28.8850 C.ar  299  2AN299      0.0329
     13  C11      124.9300   99.6950   30.1620 C.ar  299  2AN299      0.0705
     14  C12      124.9050   98.4570   30.9010 C.ar  299  2AN299      0.0165
     15  C13      125.9710   98.1260   31.7880 C.ar  299  2AN299      0.0013
     16  C14      127.0600   99.0170   31.9480 C.ar  299  2AN299      0.0001
     17  C15      127.0920  100.2390   31.2260 C.ar  299  2AN299      0.0013
     18  C16      126.0350  100.5750   30.3400 C.ar  299  2AN299      0.0165
     19  O1       123.0360  102.6270   29.5170 O.3   299  2AN299     -0.0650
     20  O2       122.7400  101.3460   31.5090 O.3   299  2AN299     -0.0650
     21  O3       121.1560  103.2570   31.0650 O.3   299  2AN299     -0.0650
@<TRIPOS>BOND
     1     3     4   ar
     2     3     2   ar
     3     4     5   ar
     4     2     1   ar
     5     5     6   ar
     6     5    12   ar
     7     6     7   ar
     8     1    12   ar
     9     1     9    1
    10    12    11   ar
    11     7     8   ar
    12     9    13    1
    13    19    10    1
    14    11     8   ar
    15    11    10    1
    16    13    18   ar
    17    13    14   ar
    18    18    17   ar
    19    10    21    1
    20    10    20    1
    21    14    15   ar
    22    17    16   ar
    23    15    16   ar
