@<TRIPOS>MOLECULE
3py0_SU9_A_1.pdb
 18 20 0 0 0
SMALL
GASTEIGER

@<TRIPOS>ATOM
      1  N5'      -89.8660   82.2950   84.6310 N.2   301  SU9301     -0.2266
      2  C4'      -88.8190   82.6620   83.9150 C.2   301  SU9301      0.1943
      3  N3'      -88.7660   81.9930   82.7400 N.2   301  SU9301     -0.2436
      4  C2'      -89.8570   81.1500   82.7200 C.3   301  SU9301      0.1726
      5  C1'      -90.5300   81.3540   83.9130 C.2   301  SU9301      0.0861
      6  C6'      -91.7360   80.6270   84.2720 C.2   301  SU9301      0.0295
      7  C9       -92.5100   80.7020   85.4120 C.2   301  SU9301      0.0982
      8  C8       -92.3520   81.5810   86.6120 C.1   301  SU9301      0.2044
      9  O10      -91.5040   82.4490   86.8480 O.2   301  SU9301     -0.2093
     10  N7       -93.3500   81.2880   87.5190 N.2   301  SU9301     -0.3370
     11  C5       -94.1610   80.2770   86.9960 C.2   301  SU9301      0.1272
     12  C6       -95.2970   79.6550   87.5760 C.3   301  SU9301      0.0891
     13  C1       -95.9440   78.6400   86.8200 C.2   301  SU9301      0.0182
     14  C2       -95.5000   78.2250   85.5130 C.2   301  SU9301      0.1350
     15  O11      -96.2200   77.2280   84.8840 O.2   301  SU9301     -0.4717
     16  C12      -95.5890   76.4120   83.8990 C.3   301  SU9301      0.2525
     17  C3       -94.3440   78.8800   84.9680 C.2   301  SU9301      0.0396
     18  C4       -93.6840   79.8950   85.7040 C.2   301  SU9301      0.0416
@<TRIPOS>BOND
     1     4     3    1
     2     4     5    1
     3     3     2    2
     4    16    15    1
     5     5     6    1
     6     5     1    2
     7     2     1    1
     8     6     7    2
     9    15    14    1
    10    17    14    1
    11    17    18    2
    12     7    18    1
    13     7     8    1
    14    14    13    2
    15    18    11    1
    16     8     9    2
    17     8    10    2
    18    13    12    1
    19    11    10    2
    20    11    12    1
