@<TRIPOS>MOLECULE
3py1_2AN_A_1.pdb
 21 23 0 0 0
SMALL
GASTEIGER

@<TRIPOS>ATOM
      1  C1       -96.1140 -102.4140   28.2770 C.ar  301  2AN301      0.0717
      2  C2       -95.9500 -101.2700   27.4030 C.ar  301  2AN301      0.0165
      3  C3       -94.7000 -100.9520   26.8390 C.ar  301  2AN301      0.0013
      4  C4       -93.5740 -101.7550   27.1190 C.ar  301  2AN301      0.0001
      5  C5       -93.6800 -102.8950   27.9690 C.ar  301  2AN301      0.0025
      6  C6       -92.5510 -103.7020   28.2420 C.ar  301  2AN301      0.0001
      7  C7       -92.6310 -104.8400   29.0790 C.ar  301  2AN301      0.0013
      8  C8       -93.8550 -105.2100   29.6760 C.ar  301  2AN301      0.0189
      9  N        -97.2790 -102.6940   28.7910 N.pl3 301  2AN301     -0.2124
     10  S        -96.5340 -105.0270   30.2570 S.3   301  2AN301      0.0421
     11  C9       -95.0300 -104.4520   29.4500 C.ar  301  2AN301      0.1135
     12  C10      -94.9650 -103.2650   28.5820 C.ar  301  2AN301      0.0329
     13  C11      -98.2090 -101.8330   29.1460 C.ar  301  2AN301      0.0705
     14  C12      -97.9420 -100.7190   30.0130 C.ar  301  2AN301      0.0165
     15  C13      -98.9910  -99.8250   30.3680 C.ar  301  2AN301      0.0013
     16  C14     -100.3120 -100.0260   29.8760 C.ar  301  2AN301      0.0001
     17  C15     -100.6060 -101.1210   29.0210 C.ar  301  2AN301      0.0013
     18  C16      -99.5950 -102.0250   28.6450 C.ar  301  2AN301      0.0165
     19  O1       -97.5450 -105.3050   29.2580 O.3   301  2AN301     -0.0650
     20  O2       -97.0060 -103.9970   31.1700 O.3   301  2AN301     -0.0650
     21  O3       -96.2300 -106.4070   31.1280 O.3   301  2AN301     -0.0650
@<TRIPOS>BOND
     1     3     4   ar
     2     3     2   ar
     3     4     5   ar
     4     2     1   ar
     5     5     6   ar
     6     5    12   ar
     7     6     7   ar
     8     1    12   ar
     9     1     9    1
    10    12    11   ar
    11    18    17   ar
    12    18    13   ar
    13     9    13    1
    14    17    16   ar
    15     7     8   ar
    16    13    14   ar
    17    19    10    1
    18    11     8   ar
    19    11    10    1
    20    16    15   ar
    21    14    15   ar
    22    10    21    1
    23    10    20    1
