@<TRIPOS>MOLECULE
3py1_SU9_A_1.pdb
 18 20 0 0 0
SMALL
GASTEIGER

@<TRIPOS>ATOM
      1  N5'      -75.3620  -97.6910   29.6820 N.2   300  SU9300     -0.2266
      2  C4'      -74.2540  -96.9760   29.7320 C.2   300  SU9300      0.1943
      3  N3'      -74.3340  -95.8890   28.9310 N.2   300  SU9300     -0.2436
      4  C2'      -75.5800  -95.9280   28.3340 C.3   300  SU9300      0.1726
      5  C1'      -76.1990  -97.0590   28.8180 C.2   300  SU9300      0.0861
      6  C6'      -77.5510  -97.4300   28.3990 C.2   300  SU9300      0.0295
      7  C9       -78.3200  -98.5040   28.7670 C.2   300  SU9300      0.0982
      8  C8       -78.0230  -99.5640   29.6760 C.1   300  SU9300      0.2044
      9  O10      -77.0040  -99.7570   30.3470 O.2   300  SU9300     -0.2093
     10  N7       -79.0880 -100.4410   29.7370 N.2   300  SU9300     -0.3370
     11  C5       -80.0970  -99.9890   28.8850 C.2   300  SU9300      0.1272
     12  C6       -81.3820 -100.5480   28.5950 C.3   300  SU9300      0.0891
     13  C1       -82.2170  -99.8460   27.6640 C.2   300  SU9300      0.0182
     14  C2       -81.8140  -98.6180   27.0200 C.2   300  SU9300      0.1350
     15  O11      -82.7100  -98.0280   26.1480 O.2   300  SU9300     -0.4717
     16  C12      -82.3610  -96.8200   25.4930 C.3   300  SU9300      0.2525
     17  C3       -80.5110  -98.1100   27.3460 C.2   300  SU9300      0.0396
     18  C4       -79.6690  -98.7930   28.2680 C.2   300  SU9300      0.0416
@<TRIPOS>BOND
     1    16    15    1
     2    15    14    1
     3    14    17    1
     4    14    13    2
     5    17    18    2
     6    13    12    1
     7    18     7    1
     8    18    11    1
     9     4     5    1
    10     4     3    1
    11     6     7    2
    12     6     5    1
    13    12    11    1
    14     7     8    1
    15     5     1    2
    16    11    10    2
    17     3     2    2
    18     8    10    2
    19     8     9    2
    20     1     2    1
