@<TRIPOS>MOLECULE
3py4_HEM_A_1.pdb
 43 50 0 0 0
SMALL
GASTEIGER

@<TRIPOS>ATOM
      1  CHA        8.6800    0.2310   27.6430 C.2   605  HEM605      0.0000
      2  CHB        9.0460    4.8710   27.5460 C.2   605  HEM605      0.0000
      3  CHC       10.7320    4.4030   23.1930 C.2   605  HEM605      0.0000
      4  CHD       10.6140   -0.3350   23.2920 C.2   605  HEM605      0.0000
      5  C1A        8.6130    1.4840   28.0260 C.2   605  HEM605      0.0000
      6  C2A        8.0720    1.9400   29.3340 C.2   605  HEM605      0.0000
      7  C3A        8.1870    3.2520   29.3140 C.2   605  HEM605      0.0000
      8  C4A        8.7510    3.6080   28.0210 C.2   605  HEM605      0.0000
      9  CMA        7.7550    4.2060   30.4270 C.3   605  HEM605      0.0000
     10  CAA        7.5400    0.9780   30.4590 C.3   605  HEM605      0.0000
     11  CBA        8.5240    0.6360   31.5480 C.3   605  HEM605      0.0000
     12  CGA        8.0540   -0.5100   32.4460 C.2   605  HEM605      0.0000
     13  O1A        8.7170   -1.6070   32.4920 O.co2 605  HEM605      0.0000
     14  O2A        6.9820   -0.2840   33.1150 O.co2 605  HEM605      0.0000
     15  C1B        9.5020    5.1910   26.3070 C.ar  605  HEM605      0.0000
     16  C2B        9.6820    6.5020   25.7870 C.ar  605  HEM605      0.0000
     17  C3B       10.1420    6.3360   24.5330 C.ar  605  HEM605      0.0000
     18  C4B       10.2610    4.9430   24.3250 C.ar  605  HEM605      0.0000
     19  CMB        9.3980    7.8110   26.5060 C.3   605  HEM605      0.0000
     20  CAB       10.5210    7.4140   23.4670 C.2   605  HEM605      0.0000
     21  CBB       10.8040    8.7050   23.7980 C.2   605  HEM605      0.0000
     22  C1C       10.8850    3.0910   22.8190 C.2   605  HEM605      0.0000
     23  C2C       11.4630    2.6260   21.5500 C.2   605  HEM605      0.0000
     24  C3C       11.4300    1.2660   21.5740 C.2   605  HEM605      0.0000
     25  C4C       10.8380    0.9360   22.8500 C.2   605  HEM605      0.0000
     26  CMC       12.0450    3.5170   20.3770 C.3   605  HEM605      0.0000
     27  CAC       11.8930    0.2090   20.4970 C.2   605  HEM605      0.0000
     28  CBC       12.7310    0.3930   19.4680 C.2   605  HEM605      0.0000
     29  C1D       10.0200   -0.5980   24.5130 C.ar  605  HEM605      0.0000
     30  C2D        9.6380   -1.9010   24.8950 C.ar  605  HEM605      0.0000
     31  C3D        9.0230   -1.7670   26.2180 C.ar  605  HEM605      0.0000
     32  C4D        9.1380   -0.3240   26.4860 C.ar  605  HEM605      0.0000
     33  CMD        9.7450   -3.2520   24.2400 C.3   605  HEM605      0.0000
     34  CAD        8.4210   -3.0280   26.9930 C.3   605  HEM605      0.0000
     35  CBD        6.8310   -3.1430   26.7250 C.3   605  HEM605      0.0000
     36  CGD        6.0500   -4.2790   27.3910 C.2   605  HEM605      0.0000
     37  O1D        5.5890   -4.0540   28.5200 O.co2 605  HEM605      0.0000
     38  O2D        5.8680   -5.3810   26.7840 O.co2 605  HEM605      0.0000
     39  NA         9.0040    2.5040   27.2660 N.2   605  HEM605      0.0000
     40  NB         9.8660    4.2680   25.4000 N.ar  605  HEM605      0.0000
     41  NC        10.5170    2.0440   23.6010 N.2   605  HEM605      0.0000
     42  ND         9.7130    0.3230   25.4860 N.ar  605  HEM605      0.0000
     43 FE          9.8290    2.3140   25.5150 Fe    605  HEM605      0.0000
@<TRIPOS>BOND
     1    28    27    2
     2    26    23    1
     3    27    24    1
     4    23    24    2
     5    23    22    1
     6    24    25    1
     7    22     3    2
     8    22    41    1
     9    25     4    1
    10    25    41    2
    11     3    18    1
    12     4    29    2
    13    20    21    2
    14    20    17    1
    15    41    43    1
    16    33    30    1
    17    18    17   ar
    18    18    40   ar
    19    29    30   ar
    20    29    42   ar
    21    17    16   ar
    22    30    31   ar
    23    40    43    1
    24    40    15   ar
    25    42    43    1
    26    42    32   ar
    27    43    39    1
    28    16    15   ar
    29    16    19    1
    30    31    32   ar
    31    31    34    1
    32    15     2    1
    33    32     1    2
    34    35    34    1
    35    35    36    1
    36    38    36   ar
    37    39     8    1
    38    39     5    2
    39    36    37   ar
    40     2     8    2
    41     1     5    1
    42     8     7    1
    43     5     6    1
    44     7     6    2
    45     7     9    1
    46     6    10    1
    47    10    11    1
    48    11    12    1
    49    12    13   ar
    50    12    14   ar
