@<TRIPOS>MOLECULE
3py4_TYL_A_1.pdb
 11 11 0 0 0
SMALL
GASTEIGER

@<TRIPOS>ATOM
      1  C1         4.1060    4.1800   28.6250 C.ar  598  TYL598      0.0736
      2  C2         4.6020    4.8910   27.5390 C.ar  598  TYL598      0.0199
      3  C3         5.4230    4.2610   26.6110 C.ar  598  TYL598      0.0434
      4  C4         5.7480    2.9190   26.7690 C.ar  598  TYL598      0.1958
      5  C5         5.2520    2.2080   27.8540 C.ar  598  TYL598      0.0434
      6  C6         4.4310    2.8380   28.7830 C.ar  598  TYL598      0.0199
      7  N          3.3090    4.7920   29.5260 N.am  598  TYL598     -0.1792
      8  C          1.9890    4.6430   29.4560 C.2   598  TYL598      0.2461
      9  CM         1.2910    5.5030   28.4440 C.3   598  TYL598      0.0968
     10  O4         6.5520    2.3020   25.8590 O.3   598  TYL598     -0.2866
     11  O          1.3850    3.8580   30.1680 O.2   598  TYL598     -0.2730
@<TRIPOS>BOND
     1    10     4    1
     2     3     4   ar
     3     3     2   ar
     4     4     5   ar
     5     2     1   ar
     6     5     6   ar
     7     9     8    1
     8     1     6   ar
     9     1     7    1
    10     8     7   am
    11     8    11    2
