@<TRIPOS>MOLECULE
3py5_AMP_A_1.pdb
 23 25 0 0 0
SMALL
GASTEIGER

@<TRIPOS>ATOM
      1  P         10.4270  -10.9170  -14.3150 P.3   303  AMP303      0.5327
      2  O1P       11.3560  -12.1270  -14.5780 O.3   303  AMP303     -0.1145
      3  O2P       10.3990  -10.4380  -12.8730 O.3   303  AMP303     -0.1145
      4  O3P       10.6650   -9.6820  -15.1670 O.2   303  AMP303     -0.2224
      5  O5'        8.8720  -11.2980  -14.5560 O.3   303  AMP303     -0.2675
      6  C5'        8.2890  -12.5890  -14.6150 C.3   303  AMP303      0.1860
      7  C4'        7.0850  -12.4080  -15.5350 C.3   303  AMP303      0.1823
      8  O4'        6.7840  -13.6620  -16.1480 O.3   303  AMP303     -0.3135
      9  C3'        5.7990  -11.9580  -14.8410 C.3   303  AMP303      0.2184
     10  O3'        5.0030  -11.3180  -15.8290 O.3   303  AMP303     -0.2174
     11  C2'        5.1640  -13.2800  -14.4800 C.3   303  AMP303      0.2570
     12  O2'        3.7550  -13.1570  -14.2230 O.3   303  AMP303     -0.2130
     13  C1'        5.4770  -14.0620  -15.7340 C.3   303  AMP303      0.3186
     14  N9         5.5300  -15.5290  -15.6170 N.pl3 303  AMP303     -0.1439
     15  C8         5.5790  -16.2710  -14.4900 C.3   303  AMP303      0.3377
     16  N7         5.6200  -17.5790  -14.7960 N.2   303  AMP303     -0.2095
     17  C5         5.5780  -17.6680  -16.1470 C.2   303  AMP303      0.2526
     18  C6         5.5520  -18.7790  -17.1110 C.2   303  AMP303      0.4393
     19  N6         5.5950  -20.0810  -16.7420 N.pl3 303  AMP303      0.2180
     20  N1         5.4950  -18.4160  -18.4140 N.2   303  AMP303      0.0021
     21  C2         5.4380  -17.1240  -18.8240 C.3   303  AMP303      0.5254
     22  N3         5.4430  -16.0620  -17.9950 N.2   303  AMP303     -0.0055
     23  C4         5.5240  -16.3010  -16.6670 C.2   303  AMP303      0.3518
@<TRIPOS>BOND
     1    21    20    1
     2    21    22    1
     3    20    18    2
     4    22    23    2
     5    18    19    1
     6    18    17    1
     7    23    17    1
     8    23    14    1
     9     8    13    1
    10     8     7    1
    11    17    16    2
    12    10     9    1
    13    13    14    1
    14    13    11    1
    15    14    15    1
    16     7     9    1
    17     7     6    1
    18     4     1    2
    19     9    11    1
    20    16    15    1
    21     6     5    1
    22     2     1    1
    23     5     1    1
    24    11    12    1
    25     1     3    1
