@<TRIPOS>MOLECULE
3py6_5GP_A_1.pdb
 24 26 0 0 0
SMALL
GASTEIGER

@<TRIPOS>ATOM
      1  P         10.3640  -10.8940  -14.2690 P.3   303  5GP303      0.5327
      2  O1P       10.6120   -9.6660  -15.1260 O.2   303  5GP303     -0.2224
      3  O2P       10.3690  -10.4480  -12.8250 O.3   303  5GP303     -0.1145
      4  O3P       11.2980  -12.1020  -14.5500 O.3   303  5GP303     -0.1145
      5  O5'        8.8240  -11.2750  -14.5770 O.3   303  5GP303     -0.2675
      6  C5'        8.2610  -12.5740  -14.7000 C.3   303  5GP303      0.1859
      7  C4'        7.0190  -12.3520  -15.5630 C.3   303  5GP303      0.1801
      8  O4'        6.6960  -13.5660  -16.2220 O.3   303  5GP303     -0.3326
      9  C3'        5.7690  -11.9480  -14.8060 C.3   303  5GP303      0.2158
     10  O3'        4.9360  -11.2490  -15.7350 O.3   303  5GP303     -0.2175
     11  C2'        5.1540  -13.2970  -14.4830 C.3   303  5GP303      0.2310
     12  O2'        3.7490  -13.2330  -14.2210 O.3   303  5GP303     -0.2158
     13  C1'        5.4310  -14.0420  -15.7600 C.3   303  5GP303      0.2293
     14  N9         5.5700  -15.5050  -15.6730 N.pl3 303  5GP303     -0.2354
     15  C8         5.8490  -16.2700  -14.5940 C.3   303  5GP303      0.2246
     16  N7         5.8780  -17.5710  -14.9720 N.2   303  5GP303     -0.2322
     17  C5         5.6510  -17.5970  -16.3170 C.2   303  5GP303      0.2182
     18  C6         5.5340  -18.6160  -17.2600 C.1   303  5GP303      0.2372
     19  O6         5.6920  -19.8310  -16.9430 O.2   303  5GP303     -0.2069
     20  N1         5.2740  -18.2730  -18.5380 N.2   303  5GP303     -0.2485
     21  C2         5.0730  -16.9890  -18.9010 C.1   303  5GP303      0.2531
     22  N2         4.7750  -16.6640  -20.1880 N.pl3 303  5GP303     -0.0226
     23  N3         5.1720  -15.9760  -18.0100 N.2   303  5GP303     -0.3074
     24  C4         5.4500  -16.2780  -16.7250 C.2   303  5GP303      0.2300
@<TRIPOS>BOND
     1    22    21    1
     2    21    20    2
     3    21    23    2
     4    20    18    2
     5    23    24    2
     6    18    19    2
     7    18    17    1
     8    24    17    1
     9    24    14    1
    10    17    16    2
    11     8    13    1
    12     8     7    1
    13    13    14    1
    14    13    11    1
    15    10     9    1
    16    14    15    1
    17     7     9    1
    18     7     6    1
    19     2     1    2
    20    16    15    1
    21     9    11    1
    22     6     5    1
    23     5     1    1
    24     4     1    1
    25    11    12    1
    26     1     3    1
