@<TRIPOS>MOLECULE
3py7_MLR_A_1.pdb
 34 36 0 0 0
SMALL
GASTEIGER

@<TRIPOS>ATOM
      1  C1A       38.3220   38.5330   11.0260 C.3   701  MLR701      0.3023
      2  C2A       36.8220   38.4240   10.7890 C.3   701  MLR701      0.2433
      3  C3A       36.2320   37.2360   11.5380 C.3   701  MLR701      0.2168
      4  C4A       37.0310   35.9680   11.2650 C.3   701  MLR701      0.1804
      5  C5A       38.5240   36.2090   11.4550 C.3   701  MLR701      0.1804
      6  C6A       39.3240   34.9770   11.0570 C.3   701  MLR701      0.2141
      7  O1X       38.5710   38.8050   12.4070 O.3   701  MLR701     -0.1869
      8  O2A       36.1870   39.6290   11.2230 O.3   701  MLR701     -0.2148
      9  O3A       34.8750   37.0470   11.1280 O.3   701  MLR701     -0.2175
     10  O4A       36.6120   34.9380   12.1570 O.3   701  MLR701     -0.3257
     11  O5A       38.9510   37.3100   10.6590 O.3   701  MLR701     -0.3237
     12  O6A       40.6020   35.0150   11.6970 O.3   701  MLR701     -0.2176
     13  C1B       35.6540   34.0560   11.5780 C.3   701  MLR701      0.2695
     14  C2B       34.5470   33.7990   12.5860 C.3   701  MLR701      0.2404
     15  C3B       35.1570   33.2240   13.8550 C.3   701  MLR701      0.2167
     16  C4B       35.9460   31.9640   13.5240 C.3   701  MLR701      0.1804
     17  C5B       36.9220   32.2000   12.3750 C.3   701  MLR701      0.1803
     18  C6B       37.5300   30.8760   11.9250 C.3   701  MLR701      0.2141
     19  O2B       33.8640   35.0210   12.8780 O.3   701  MLR701     -0.2149
     20  O3B       34.1250   32.9160   14.7950 O.3   701  MLR701     -0.2175
     21  O4B       36.6710   31.5440   14.6770 O.3   701  MLR701     -0.3257
     22  O5B       36.2720   32.8120   11.2600 O.3   701  MLR701     -0.3257
     23  O6B       38.7310   31.1170   11.1870 O.3   701  MLR701     -0.2176
     24  C1C       36.1010   30.3900   15.2900 C.3   701  MLR701      0.2695
     25  C2C       35.9820   30.6150   16.7900 C.3   701  MLR701      0.2406
     26  C3C       37.3590   30.8760   17.3860 C.3   701  MLR701      0.2198
     27  C4C       38.3180   29.7600   16.9970 C.3   701  MLR701      0.2144
     28  C5C       38.2880   29.5140   15.4940 C.3   701  MLR701      0.1835
     29  C6C       39.1590   28.3220   15.1230 C.3   701  MLR701      0.2142
     30  O2C       35.1200   31.7270   17.0450 O.3   701  MLR701     -0.2149
     31  O3C       37.2680   30.9520   18.8100 O.3   701  MLR701     -0.2174
     32  O4C       39.6450   30.1140   17.3970 O.3   701  MLR701     -0.2176
     33  O5C       36.9500   29.2680   15.0670 O.3   701  MLR701     -0.3256
     34  O6C       39.6840   28.5150   13.8070 O.3   701  MLR701     -0.2176
@<TRIPOS>BOND
     1    11     1    1
     2    11     5    1
     3     2     1    1
     4     2     8    1
     5     2     3    1
     6     1     7    1
     7     6     5    1
     8     6    12    1
     9     9     3    1
    10    23    18    1
    11    22    13    1
    12    22    17    1
    13     4     5    1
    14     4     3    1
    15     4    10    1
    16    13    10    1
    17    13    14    1
    18    18    17    1
    19    17    16    1
    20    14    19    1
    21    14    15    1
    22    16    15    1
    23    16    21    1
    24    34    29    1
    25    15    20    1
    26    21    24    1
    27    33    24    1
    28    33    28    1
    29    29    28    1
    30    24    25    1
    31    28    27    1
    32    25    30    1
    33    25    26    1
    34    27    26    1
    35    27    32    1
    36    26    31    1
