@<TRIPOS>MOLECULE
3py8_DCT_A_1.pdb
 27 28 0 0 0
SMALL
GASTEIGER

@<TRIPOS>ATOM
      1  N1        19.3070  -19.6480   -7.2510 N.am  113  DCT113     -0.1803
      2  C2        18.9490  -19.9590   -5.9530 C.1   113  DCT113      0.2756
      3  N3        19.0880  -19.0190   -4.9070 N.2   113  DCT113     -0.3024
      4  C4        19.5710  -17.7730   -5.1820 C.2   113  DCT113      0.2346
      5  C5        19.9370  -17.4260   -6.5210 C.2   113  DCT113      0.0687
      6  C6        19.8020  -18.3710   -7.5370 C.2   113  DCT113      0.0835
      7  O2        18.4710  -21.2110   -5.7020 O.2   113  DCT113     -0.1925
      8  N4        19.7080  -16.8250   -4.1310 N.pl3 113  DCT113     -0.0921
      9  C1'       19.1370  -20.6340   -8.2930 C.3   113  DCT113      0.2063
     10  C2'       17.7170  -20.5510   -8.7440 C.3   113  DCT113      0.0545
     11  C3'       17.8160  -19.7060   -9.9690 C.3   113  DCT113      0.0366
     12  C4'       19.1360  -20.1640  -10.4910 C.3   113  DCT113      0.1472
     13  O4'       19.9400  -20.3970   -9.3860 O.3   113  DCT113     -0.3366
     14  C5'       19.7010  -19.1340  -11.4240 C.3   113  DCT113      0.1785
     15  O5'       20.0980  -18.0040  -10.7370 O.3   113  DCT113     -0.3113
     16  PA        19.6610  -16.5790  -11.1930 P.3   113  DCT113      0.2189
     17  O1A       20.3850  -15.4650  -10.4900 O.3   113  DCT113     -0.4371
     18  O2A       20.0210  -16.2910  -12.6290 O.2   113  DCT113     -0.5170
     19  O3A       18.1270  -16.4860  -10.9170 O.3   113  DCT113     -0.2700
     20  PB        17.0640  -16.1450  -12.0150 P.3   113  DCT113      0.2277
     21  O1B       15.7520  -16.6040  -11.4490 O.3   113  DCT113     -0.4368
     22  O2B       17.2220  -17.0100  -13.2420 O.2   113  DCT113     -0.5168
     23  O3B       17.0920  -14.5880  -12.2010 O.3   113  DCT113     -0.2258
     24  PG        17.3200  -13.7970  -13.5360 P.3   113  DCT113      0.5373
     25  O1G       18.3410  -14.4150  -14.4450 O.2   113  DCT113     -0.2221
     26  O2G       16.0650  -13.6160  -14.3340 O.3   113  DCT113     -0.1143
     27  O3G       17.8060  -12.3980  -13.3070 O.3   113  DCT113     -0.1143
@<TRIPOS>BOND
     1    25    24    2
     2    26    24    1
     3    24    27    1
     4    24    23    1
     5    22    20    2
     6    18    16    2
     7    23    20    1
     8    20    21    1
     9    20    19    1
    10    14    15    1
    11    14    12    1
    12    16    19    1
    13    16    15    1
    14    16    17    1
    15    12    11    1
    16    12    13    1
    17    11    10    1
    18    13     9    1
    19    10     9    1
    20     9     1    1
    21     6     1    1
    22     6     5    2
    23     1     2   am
    24     5     4    1
    25     2     7    2
    26     2     3    2
    27     4     3    2
    28     4     8    1
