@<TRIPOS>MOLECULE
3pya_AG8_A_1.pdb
 29 28 0 0 0
SMALL
GASTEIGER

@<TRIPOS>ATOM
      1  C01       24.4610   21.1750   12.4800 C.3   901  AG8901      0.0942
      2  C02       23.5750   21.6340   11.3600 C.2   901  AG8901     -0.0224
      3  C03       22.2590   21.6630   11.5890 C.2   901  AG8901     -0.0473
      4  C04       21.2920   22.1030   10.5280 C.3   901  AG8901      0.0217
      5  C05       20.1000   22.8500   11.1280 C.3   901  AG8901      0.0043
      6  C06       19.0890   21.9020   11.7070 C.3   901  AG8901      0.0003
      7  C07       17.7910   21.8950   11.3780 C.3   901  AG8901      0.0003
      8  C08       16.9460   20.7900   11.9490 C.3   901  AG8901      0.0046
      9  C09       15.5310   21.2470   12.2900 C.3   901  AG8901      0.0254
     10  C10       14.6920   20.0100   12.4370 C.2   901  AG8901     -0.0346
     11  C11       14.3650   19.4930   13.6340 C.2   901  AG8901     -0.0481
     12  C12       13.5380   18.2450   13.6920 C.3   901  AG8901      0.0231
     13  C13       14.4800   17.0380   13.7250 C.3   901  AG8901      0.0217
     14  C14       13.6960   15.7710   13.4140 C.3   901  AG8901      0.0725
     15  N15       14.5410   14.5970   13.4110 N.3   901  AG8901     -0.2703
     16  C16       21.7770   21.2520   12.9420 C.3   901  AG8901      0.0260
     17  C17       17.3330   22.5920   10.1360 C.3   901  AG8901      0.0000
     18  C18       14.8200   20.1380   14.9080 C.3   901  AG8901      0.0260
     19  C19       15.2900   14.5210   14.6380 C.3   901  AG8901      0.0897
     20  C20       15.4410   14.6280   12.2870 C.3   901  AG8901      0.0897
     21  S21       25.9360   22.2180   12.6540 S.3   901  AG8901     -0.0237
     22  P22       25.9530   23.8030   14.0560 P.3   901  AG8901      0.4273
     23  O23       24.8720   24.9150   13.6040 O.3   901  AG8901     -0.1955
     24  P24       25.3510   26.4110   13.2190 P.3   901  AG8901      0.5394
     25  O25       26.4340   26.3310   12.2110 O.2   901  AG8901     -0.2220
     26  O26       27.3140   24.4100   14.0640 O.2   901  AG8901     -0.2431
     27  O27       25.6260   23.3030   15.4090 O.3   901  AG8901     -0.1309
     28  O28       24.1950   27.1570   12.6440 O.3   901  AG8901     -0.1143
     29  O29       25.8530   27.1190   14.4180 O.3   901  AG8901     -0.1143
@<TRIPOS>BOND
     1    17     7    1
     2     4     5    1
     3     4     3    1
     4     5     6    1
     5     2     3    2
     6     2     1    1
     7     7     6    1
     8     7     8    1
     9     3    16    1
    10     8     9    1
    11    25    24    2
    12    20    15    1
    13     9    10    1
    14    10    11    2
    15     1    21    1
    16    28    24    1
    17    21    22    1
    18    24    23    1
    19    24    29    1
    20    15    14    1
    21    15    19    1
    22    14    13    1
    23    23    22    1
    24    11    12    1
    25    11    18    1
    26    12    13    1
    27    22    26    2
    28    22    27    1
