@<TRIPOS>MOLECULE
3pyb_A3C_A_1.pdb
 29 30 0 0 0
SMALL
GASTEIGER

@<TRIPOS>ATOM
      1  C01      -15.5680  -26.3670   -2.3770 C.3   901  A3C901      0.1664
      2  O01      -16.7710  -25.7310   -2.7280 O.3   901  A3C901     -0.3123
      3  C02      -15.4700  -26.5260   -0.8630 C.3   901  A3C901      0.1051
      4  P02      -17.1690  -25.3140   -4.2390 P.3   901  A3C901      0.2230
      5  N03      -15.5490  -25.2400   -0.2140 N.3   901  A3C901     -0.2694
      6  O03      -17.2590  -26.6760   -5.1100 O.3   901  A3C901     -0.2261
      7  P04      -18.1180  -27.8820   -4.4450 P.3   901  A3C901      0.5373
      8  O05      -18.5540  -28.8170   -5.5110 O.2   901  A3C901     -0.2221
      9  O06      -16.1840  -24.3400   -4.7970 O.2   901  A3C901     -0.5169
     10  O07      -18.5140  -24.6870   -4.2210 O.3   901  A3C901     -0.4370
     11  O08      -19.3020  -27.4190   -3.6790 O.3   901  A3C901     -0.1143
     12  O09      -17.2630  -28.7280   -3.5540 O.3   901  A3C901     -0.1143
     13  C11      -14.4930  -24.4640   -0.8040 C.3   901  A3C901      0.0725
     14  C12      -13.2030  -25.0310   -0.2200 C.3   901  A3C901      0.0213
     15  C13      -16.8370  -24.5870   -0.2690 C.3   901  A3C901      0.0897
     16  C21      -11.8750  -24.3650   -0.6160 C.3   901  A3C901      0.0197
     17  C22      -12.0220  -23.2240   -1.5960 C.2   901  A3C901     -0.0445
     18  C23      -10.6770  -23.0810   -2.2200 C.3   901  A3C901      0.0220
     19  C24       -9.4320  -23.1180   -1.3230 C.3   901  A3C901      0.0043
     20  C25       -9.5030  -24.0800   -0.1270 C.3   901  A3C901      0.0006
     21  C26       -8.2780  -23.9300    0.7800 C.3   901  A3C901      0.0000
     22  C27       -8.6820  -24.5180    2.1300 C.3   901  A3C901      0.0000
     23  C28       -9.6710  -25.6650    1.9780 C.3   901  A3C901      0.0000
     24  C29      -11.0460  -25.1450    1.5800 C.3   901  A3C901      0.0003
     25  C30      -10.8930  -24.0550    0.5180 C.3   901  A3C901      0.0035
     26  C31      -12.9470  -22.3370   -2.0050 C.2   901  A3C901     -0.0091
     27  C32       -7.8810  -22.4720    0.9760 C.3   901  A3C901      0.0000
     28  C33       -7.0700  -24.6900    0.2360 C.3   901  A3C901      0.0000
     29  C34      -11.4200  -22.8190    1.2480 C.3   901  A3C901      0.0003
@<TRIPOS>BOND
     1     8     7    2
     2     6     7    1
     3     6     4    1
     4     9     4    2
     5     7    11    1
     6     7    12    1
     7     4    10    1
     8     4     2    1
     9     2     1    1
    10     1     3    1
    11    18    17    1
    12    18    19    1
    13    26    17    2
    14    17    16    1
    15    19    20    1
    16     3     5    1
    17    13    14    1
    18    13     5    1
    19    16    14    1
    20    16    25    1
    21    15     5    1
    22    20    25    1
    23    20    21    1
    24    28    21    1
    25    25    29    1
    26    25    24    1
    27    21    27    1
    28    21    22    1
    29    24    23    1
    30    23    22    1
