@<TRIPOS>MOLECULE
3pye_CDM_A_1.pdb
 33 34 0 0 0
SMALL
GASTEIGER

@<TRIPOS>ATOM
      1  N1       -20.6820  -19.6530   16.0110 N.3   307  CDM307     -0.1791
      2  C2       -20.9710  -20.6680   17.0390 C.3   307  CDM307      0.4343
      3  N3       -19.7980  -21.2250   17.7080 N.2   307  CDM307     -0.0139
      4  C4       -18.6490  -20.5790   17.7860 C.2   307  CDM307      0.3919
      5  C5       -18.4550  -19.4170   17.1280 C.3   307  CDM307      0.1433
      6  C6       -19.4210  -18.8930   16.0850 C.3   307  CDM307      0.0938
      7  O2       -21.8870  -21.6480   16.5660 O.3   307  CDM307     -0.1489
      8  N4       -17.6820  -21.0920   18.5260 N.pl3 307  CDM307      0.2107
      9  C1'      -21.6450  -19.2780   14.9710 C.3   307  CDM307      0.2147
     10  C2'      -22.6900  -18.6870   15.9040 C.3   307  CDM307      0.2273
     11  O2'      -23.8960  -19.4380   15.8610 O.3   307  CDM307     -0.2161
     12  C3'      -22.8350  -17.2430   15.4720 C.3   307  CDM307      0.2155
     13  C4'      -22.0230  -17.0990   14.1900 C.3   307  CDM307      0.1796
     14  O4'      -21.1890  -18.2500   14.0440 O.3   307  CDM307     -0.3353
     15  O3'      -24.1910  -16.8300   15.2790 O.3   307  CDM307     -0.2176
     16  C5'      -21.1980  -15.8410   14.3850 C.3   307  CDM307      0.1813
     17  O5'      -21.4500  -15.3060   15.7030 O.3   307  CDM307     -0.3112
     18  PA       -20.3070  -14.5210   16.5570 P.3   307  CDM307      0.2189
     19  O1A      -20.1010  -13.1470   15.9550 O.2   307  CDM307     -0.5170
     20  O2A      -20.6570  -14.6280   18.0250 O.3   307  CDM307     -0.4371
     21  O3A      -18.9590  -15.3860   16.2380 O.3   307  CDM307     -0.2703
     22  PB       -17.9170  -14.9970   15.0530 P.3   307  CDM307      0.2189
     23  O1B      -17.2510  -13.7150   15.5060 O.3   307  CDM307     -0.4371
     24  O2B      -18.5670  -15.0290   13.6820 O.2   307  CDM307     -0.5170
     25  O3B      -16.8320  -16.2130   15.0630 O.3   307  CDM307     -0.3111
     26  C1M      -16.9380  -17.3460   14.1810 C.3   307  CDM307      0.1845
     27  C2M      -15.6000  -17.8770   13.6180 C.3   307  CDM307      0.2120
     28  O2M      -14.8050  -16.7950   13.0870 O.3   307  CDM307     -0.2177
     29  C3M      -14.7840  -18.8020   14.5600 C.3   307  CDM307      0.1873
     30  C4M      -13.8170  -19.6880   13.7510 C.3   307  CDM307      0.2148
     31  C5M      -14.0560  -18.0240   15.6720 C.3   307  CDM307      0.0384
     32  O3M      -15.7030  -19.7130   15.1990 O.3   307  CDM307     -0.2202
     33  O4M      -12.5820  -19.0300   13.4020 O.3   307  CDM307     -0.2176
@<TRIPOS>BOND
     1    28    27    1
     2    33    30    1
     3    27    26    1
     4    27    29    1
     5    24    22    2
     6    30    29    1
     7    14    13    1
     8    14     9    1
     9    26    25    1
    10    13    16    1
    11    13    12    1
    12    16    17    1
    13    29    32    1
    14    29    31    1
    15     9    10    1
    16     9     1    1
    17    22    25    1
    18    22    23    1
    19    22    21    1
    20    15    12    1
    21    12    10    1
    22    17    18    1
    23    11    10    1
    24    19    18    2
    25     1     6    1
    26     1     2    1
    27     6     5    1
    28    21    18    1
    29    18    20    1
    30     7     2    1
    31     2     3    1
    32     5     4    1
    33     3     4    2
    34     4     8    1
