@<TRIPOS>MOLECULE
3pyf_ANP_A_1.pdb
 31 33 0 0 0
SMALL
GASTEIGER

@<TRIPOS>ATOM
      1  PG       -10.8030  -15.4730   10.1420 P.3   307  ANP307      0.4884
      2  O1G      -10.4690  -14.4740   11.3020 O.3   307  ANP307     -0.1240
      3  O2G      -10.1930  -16.8560   10.4140 O.3   307  ANP307     -0.1240
      4  O3G      -12.2950  -15.4570    9.7420 O.2   307  ANP307     -0.2331
      5  PB       -10.0900  -13.6690    7.6680 P.3   307  ANP307      0.4669
      6  O1B      -11.0100  -12.7430    8.4720 O.3   307  ANP307     -0.1253
      7  O2B      -10.6790  -14.1000    6.2730 O.2   307  ANP307     -0.2351
      8  N3B       -9.8800  -15.0030    8.6880 N.3   307  ANP307     -0.0163
      9  PA        -9.2290  -11.3350    7.1040 P.3   307  ANP307      0.2220
     10  O1A       -9.4340  -10.6180    8.5050 O.3   307  ANP307     -0.4370
     11  O2A       -8.6840  -10.7550    5.8370 O.2   307  ANP307     -0.5170
     12  O3A       -8.7220  -12.8540    7.4160 O.3   307  ANP307     -0.2360
     13  O5'      -10.7870  -11.5930    6.5680 O.3   307  ANP307     -0.3111
     14  C5'      -11.7390  -10.6750    5.8950 C.3   307  ANP307      0.1813
     15  C4'      -13.0500  -10.4730    6.7160 C.3   307  ANP307      0.1821
     16  O4'      -12.6640   -9.9240    8.0110 O.3   307  ANP307     -0.3135
     17  C3'      -13.9830   -9.3930    6.1150 C.3   307  ANP307      0.2184
     18  O3'      -15.3870   -9.4700    6.4850 O.3   307  ANP307     -0.2174
     19  C2'      -13.2920   -8.0920    6.5880 C.3   307  ANP307      0.2570
     20  O2'      -14.1000   -6.9070    6.6900 O.3   307  ANP307     -0.2130
     21  C1'      -12.5930   -8.4630    7.9090 C.3   307  ANP307      0.3186
     22  N9       -11.2210   -7.7880    7.9550 N.pl3 307  ANP307     -0.1439
     23  C8       -10.2140   -7.7230    7.0270 C.3   307  ANP307      0.3377
     24  N7        -9.1240   -6.9730    7.4450 N.2   307  ANP307     -0.2095
     25  C5        -9.3920   -6.5110    8.6910 C.2   307  ANP307      0.2526
     26  C6        -8.6220   -5.6870    9.7230 C.2   307  ANP307      0.4393
     27  N6        -7.2280   -5.0470    9.5580 N.pl3 307  ANP307      0.2180
     28  N1        -9.5680   -5.6550   10.8410 N.2   307  ANP307      0.0021
     29  C2       -10.8320   -6.2560   11.1190 C.3   307  ANP307      0.5254
     30  N3       -11.4640   -6.9020   10.2050 N.2   307  ANP307     -0.0055
     31  C4       -10.7930   -7.0750    9.0120 C.2   307  ANP307      0.3518
@<TRIPOS>BOND
     1    11     9    2
     2    14    13    1
     3    14    15    1
     4    17    18    1
     5    17    19    1
     6    17    15    1
     7     7     5    2
     8    13     9    1
     9    19    20    1
    10    19    21    1
    11    15    16    1
    12    23    24    1
    13    23    22    1
    14     9    12    1
    15     9    10    1
    16    12     5    1
    17    24    25    2
    18     5     6    1
    19     5     8    1
    20    21    22    1
    21    21    16    1
    22    22    31    1
    23     8     1    1
    24    25    31    1
    25    25    26    1
    26    31    30    2
    27    27    26    1
    28    26    28    2
    29     4     1    2
    30     1     3    1
    31     1     2    1
    32    30    29    1
    33    28    29    1
