@<TRIPOS>MOLECULE
3pyg_ADP_A_1.pdb
 27 29 0 0 0
SMALL
GASTEIGER

@<TRIPOS>ATOM
      1  PB       -10.9730  -13.7350    8.0360 P.3   307  ADP307      0.5373
      2  O1B      -11.8180  -14.5890    7.0950 O.2   307  ADP307     -0.2221
      3  O2B      -11.7280  -12.8390    8.9960 O.3   307  ADP307     -0.1143
      4  O3B       -9.9830  -14.5900    8.8100 O.3   307  ADP307     -0.1143
      5  PA        -9.5000  -11.4110    7.5160 P.3   307  ADP307      0.2231
      6  O1A       -8.5450  -12.3770    8.1220 O.3   307  ADP307     -0.4370
      7  O2A       -9.0590  -10.5140    6.3740 O.2   307  ADP307     -0.5169
      8  O3A      -10.4890  -12.5650    7.0420 O.3   307  ADP307     -0.2261
      9  O5'      -10.2180  -10.4910    8.6370 O.3   307  ADP307     -0.3111
     10  C5'      -10.0750  -10.5340   10.0610 C.3   307  ADP307      0.1813
     11  C4'      -11.5030  -10.4210   10.5780 C.3   307  ADP307      0.1821
     12  O4'      -11.6790  -10.6460   11.9830 O.3   307  ADP307     -0.3135
     13  C3'      -12.3080   -9.1400   10.2820 C.3   307  ADP307      0.2184
     14  O3'      -12.7610   -8.9980    8.9210 O.3   307  ADP307     -0.2174
     15  C2'      -13.5280   -9.3920   11.1460 C.3   307  ADP307      0.2570
     16  O2'      -14.6240   -9.7650   10.2900 O.3   307  ADP307     -0.2130
     17  C1'      -13.1280  -10.6070   12.0000 C.3   307  ADP307      0.3186
     18  N9       -13.8640  -10.7410   13.3050 N.pl3 307  ADP307     -0.1439
     19  C8       -13.3370  -10.8140   14.5560 C.3   307  ADP307      0.3377
     20  N7       -14.3210  -10.9590   15.4930 N.2   307  ADP307     -0.2095
     21  C5       -15.5190  -10.9970   14.8350 C.2   307  ADP307      0.2526
     22  C6       -16.9710  -11.1330   15.1830 C.2   307  ADP307      0.4393
     23  N6       -17.3560  -11.2680   16.4740 N.pl3 307  ADP307      0.2180
     24  N1       -17.9020  -11.1250   14.1870 N.2   307  ADP307      0.0021
     25  C2       -17.5550  -10.9950   12.8910 C.3   307  ADP307      0.5254
     26  N3       -16.2660  -10.8640   12.5010 N.2   307  ADP307     -0.0055
     27  C4       -15.2150  -10.8580   13.3930 C.2   307  ADP307      0.3518
@<TRIPOS>BOND
     1     7     5    2
     2     8     5    1
     3     8     1    1
     4     2     1    2
     5     5     6    1
     6     5     9    1
     7     1     4    1
     8     1     3    1
     9     9    10    1
    10    14    13    1
    11    10    11    1
    12    13    11    1
    13    13    15    1
    14    16    15    1
    15    11    12    1
    16    15    17    1
    17    12    17    1
    18    17    18    1
    19    26    25    1
    20    26    27    2
    21    25    24    1
    22    18    27    1
    23    18    19    1
    24    27    21    1
    25    24    22    2
    26    19    20    1
    27    21    22    1
    28    21    20    2
    29    22    23    1
