@<TRIPOS>MOLECULE
3pyh_3YH_A_1.pdb
 33 36 0 0 0
SMALL
GASTEIGER

@<TRIPOS>ATOM
      1  N1       -15.0980   14.9340    4.4110 N.pl3 481  3YH481      0.2047
      2  C2       -13.8130   14.9850    4.7570 C.2   481  3YH481      0.4766
      3  N3       -13.1230   13.9300    4.8430 N.pl3 481  3YH481      0.2047
      4  C4       -13.1780   16.3110    5.0370 C.ar  481  3YH481      0.0975
      5  C5       -13.8430   17.4930    4.7140 C.ar  481  3YH481      0.0080
      6  C6       -13.2380   18.7230    4.9600 C.ar  481  3YH481      0.0003
      7  C7       -11.9670   18.7640    5.5480 C.ar  481  3YH481      0.0016
      8  C8       -11.3190   17.5820    5.8910 C.ar  481  3YH481      0.0213
      9  C9       -11.9170   16.3540    5.6220 C.ar  481  3YH481      0.0096
     10  C10       -9.9570   17.5770    6.4870 C.ar  481  3YH481      0.1275
     11  C11       -9.5150   17.7500    7.9090 C.ar  481  3YH481      0.1164
     12  C12      -10.4320   18.0120    9.0730 C.2   481  3YH481      0.2737
     13  O13      -11.5750   18.4170    8.8810 O.2   481  3YH481     -0.2678
     14  N14       -9.9310   17.7980   10.2970 N.am  481  3YH481     -0.1753
     15  C15      -10.6720   17.8750   11.4420 C.ar  481  3YH481      0.0737
     16  C16      -11.2470   19.0910   11.8170 C.ar  481  3YH481      0.0166
     17  C17      -11.9920   19.2000   12.9930 C.ar  481  3YH481      0.0014
     18  C18      -12.1530   18.0970   13.8260 C.ar  481  3YH481      0.0014
     19  C19      -11.5780   16.8810   13.4620 C.ar  481  3YH481      0.0014
     20  C20      -10.8270   16.7720   12.2860 C.ar  481  3YH481      0.0166
     21  C21      -12.9700   18.2030   15.0760 C.ar  481  3YH481      0.0187
     22  C22      -14.2790   17.7090   14.9990 C.ar  481  3YH481      0.0013
     23  C23      -15.1370   17.7500   16.0970 C.ar  481  3YH481      0.0001
     24  C24      -14.6770   18.2860   17.2920 C.ar  481  3YH481      0.0014
     25  C25      -13.3760   18.7710   17.3750 C.ar  481  3YH481      0.0200
     26  C26      -12.5090   18.7410   16.2820 C.ar  481  3YH481      0.1250
     27  S27      -11.0370   19.3520   16.5130 S.O2  481  3YH481      0.0935
     28  O28      -10.0280   18.5990   15.8180 O.2   481  3YH481     -0.1503
     29  O29      -10.7990   19.3110   17.9250 O.2   481  3YH481     -0.1503
     30  N30      -10.9890   20.8830   16.0510 N.3   481  3YH481      0.0392
     31  N39       -8.8360   17.3450    5.7620 N.ar  481  3YH481     -0.0767
     32  O40       -7.8050   17.3840    6.6170 O.2   481  3YH481     -0.3500
     33  C41       -8.1310   17.6270    7.9280 C.ar  481  3YH481      0.2183
@<TRIPOS>BOND
     1     1     2    2
     2     5     6   ar
     3     5     4   ar
     4     2     3    1
     5     2     4    1
     6     6     7   ar
     7     4     9   ar
     8     7     8   ar
     9     9     8   ar
    10    31    10   ar
    11    31    32   ar
    12     8    10    1
    13    10    11   ar
    14    32    33   ar
    15    11    33   ar
    16    11    12    1
    17    13    12    2
    18    12    14   am
    19    14    15    1
    20    15    16   ar
    21    15    20   ar
    22    16    17   ar
    23    20    19   ar
    24    17    18   ar
    25    19    18   ar
    26    18    21    1
    27    22    21   ar
    28    22    23   ar
    29    21    26   ar
    30    28    27    2
    31    30    27    1
    32    23    24   ar
    33    26    27    1
    34    26    25   ar
    35    27    29    2
    36    24    25   ar
