@<TRIPOS>MOLECULE
3pyk_SRX_A_1.pdb
 40 43 0 0 0
SMALL
GASTEIGER

@<TRIPOS>ATOM
      1  S         15.2340    1.6820   16.9760 S.O2  263  SRX263      0.0000
      2 CL         20.1700   10.7340    9.4390 Cl    263  SRX263      0.0000
      3 RU         19.5730   10.6980   11.8280 Ru    263  SRX263      0.0000
      4  C1        15.7730    2.9940   16.1690 C.ar  263  SRX263      0.0000
      5  N1        15.7980    0.4120   16.3040 N.3   263  SRX263      0.0000
      6  O1        15.7320    1.8080   18.3210 O.2   263  SRX263      0.0000
      7  C2        16.9990    3.0730   15.5260 C.ar  263  SRX263      0.0000
      8  N2        17.7810    6.8210   13.3640 N.am  263  SRX263      0.0000
      9  O2        13.8060    1.7490   16.8560 O.2   263  SRX263      0.0000
     10  C3        17.5070    4.2590   14.9560 C.ar  263  SRX263      0.0000
     11  N3        20.3750    8.8980   11.9190 N.pl3 263  SRX263      0.0000
     12  O3        17.1790    7.7680   15.2870 O.2   263  SRX263      0.0000
     13  C4        16.7580    5.4390   15.0720 C.ar  263  SRX263      0.0000
     14  N4        17.9180    9.8350   11.2150 N.pl3 263  SRX263      0.0000
     15  C5        15.5400    5.3960   15.7410 C.ar  263  SRX263      0.0000
     16  C6        15.0720    4.2040   16.2730 C.ar  263  SRX263      0.0000
     17  C7        17.2250    6.7790   14.5510 C.2   263  SRX263      0.0000
     18  C8        18.3170    7.9060   12.7650 C.3   263  SRX263      0.0000
     19  C9        19.7350    7.7850   12.3390 C.3   263  SRX263      0.0000
     20  C10       20.3580    6.5330   12.3590 C.2   263  SRX263      0.0000
     21  C11       21.6540    8.7700   11.4930 C.2   263  SRX263      0.0000
     22  C12       22.3290    7.5480   11.5070 C.2   263  SRX263      0.0000
     23  C13       21.6720    6.4020   11.9400 C.2   263  SRX263      0.0000
     24  C14       17.5180    8.6290   11.7140 C.3   263  SRX263      0.0000
     25  C15       17.1750   10.4060   10.2440 C.2   263  SRX263      0.0000
     26  C16       16.0070    9.8140    9.7510 C.2   263  SRX263      0.0000
     27  C17       15.5890    8.5870   10.2400 C.2   263  SRX263      0.0000
     28  C18       16.3570    7.9910   11.2310 C.2   263  SRX263      0.0000
     29  C19       20.8510   12.5000   12.2740 C.2   263  SRX263      0.0000
     30  C20       21.0480   11.6070   13.2770 C.3   263  SRX263      0.0000
     31  C21       19.9920   11.1560   14.0020 C.2   263  SRX263      0.0000
     32  C22       18.7530   11.5960   13.7190 C.2   263  SRX263      0.0000
     33  C23       18.5760   12.4860   12.7270 C.3   263  SRX263      0.0000
     34  C24       19.6080   12.9300   11.9940 C.2   263  SRX263      0.0000
     35  C25       17.1960   13.0360   12.3640 C.3   263  SRX263      0.0000
     36  C26       17.5260   11.1500   14.5210 C.3   263  SRX263      0.0000
     37  C27       20.1280   10.1640   15.1330 C.3   263  SRX263      0.0000
     38  C28       22.4540   11.0820   13.5930 C.3   263  SRX263      0.0000
     39  C29       22.0220   12.9880   11.4260 C.3   263  SRX263      0.0000
     40  C30       19.5650   13.9240   10.8310 C.3   263  SRX263      0.0000
@<TRIPOS>BOND
     1    26    27    1
     2    26    25    2
     3    27    28    2
     4    25    14    1
     5    40    34    1
     6    14    24    1
     7    14     3    1
     8    28    24    1
     9    39    29    1
    10    21    22    2
    11    21    11    1
    12    22    23    1
    13    24    18    1
    14     3    11    1
    15     3    33    1
    16    11    19    1
    17    23    20    2
    18    34    29    2
    19    34    33    1
    20    29    30    1
    21    19    20    1
    22    19    18    1
    23    35    33    1
    24    33    32    1
    25    18     8    1
    26    30    38    1
    27    30    31    1
    28     8    17   am
    29    32    31    2
    30    32    36    1
    31    31    37    1
    32    17    13    1
    33    17    12    2
    34    10    13   ar
    35    10     7   ar
    36    13    15   ar
    37     7     4   ar
    38    15    16   ar
    39     4    16   ar
    40     4     1    1
    41     5     1    1
    42     9     1    2
    43     1     6    2
