@<TRIPOS>MOLECULE
3pym_NAD_A_1.pdb
 44 48 0 0 0
SMALL
GASTEIGER

@<TRIPOS>ATOM
      1  PA        42.2770   24.8420   31.5530 P.3   333  NAD333      0.2189
      2  O1A       42.9430   25.2680   32.8080 O.3   333  NAD333     -0.4371
      3  O2A       42.7610   25.5080   30.3510 O.2   333  NAD333     -0.5170
      4  O5B       40.6690   24.9210   31.7560 O.3   333  NAD333     -0.3112
      5  C5B       40.0270   24.5870   32.9820 C.3   333  NAD333      0.1813
      6  C4B       38.9190   25.6240   33.1970 C.3   333  NAD333      0.1821
      7  O4B       37.9240   25.2050   34.1190 O.3   333  NAD333     -0.3135
      8  C3B       39.4760   26.9620   33.6900 C.3   333  NAD333      0.2184
      9  O3B       39.1040   27.9890   32.7990 O.3   333  NAD333     -0.2174
     10  C2B       38.7760   27.1950   35.0090 C.3   333  NAD333      0.2570
     11  O2B       38.4740   28.5620   35.1540 O.3   333  NAD333     -0.2130
     12  C1B       37.5260   26.3210   34.8860 C.3   333  NAD333      0.3186
     13  N9A       36.9970   25.8360   36.1760 N.pl3 333  NAD333     -0.1439
     14  C8A       37.7280   25.4650   37.2840 C.3   333  NAD333      0.3377
     15  N7A       36.8690   25.0680   38.2460 N.2   333  NAD333     -0.2095
     16  C5A       35.6040   25.1830   37.7780 C.2   333  NAD333      0.2526
     17  C6A       34.3670   24.9200   38.3600 C.2   333  NAD333      0.4393
     18  N6A       34.2730   24.7970   39.6910 N.pl3 333  NAD333      0.2180
     19  N1A       33.2330   25.1340   37.6050 N.2   333  NAD333      0.0021
     20  C2A       33.3050   25.6160   36.3020 C.3   333  NAD333      0.5254
     21  N3A       34.5470   25.8860   35.7500 N.2   333  NAD333     -0.0055
     22  C4A       35.6710   25.6680   36.4720 C.2   333  NAD333      0.3518
     23  O3        42.5670   23.2610   31.3940 O.3   333  NAD333     -0.2703
     24  PN        42.3450   22.4130   30.0230 P.3   333  NAD333      0.2189
     25  O1N       43.6910   22.2010   29.3990 O.3   333  NAD333     -0.4371
     26  O2N       41.1430   22.9580   29.3200 O.2   333  NAD333     -0.5170
     27  O5D       41.9060   20.9670   30.6210 O.3   333  NAD333     -0.3112
     28  C5D       40.5840   20.7560   31.0900 C.3   333  NAD333      0.1813
     29  C4D       40.4050   19.2550   31.2260 C.3   333  NAD333      0.1799
     30  O4D       40.6330   18.6750   29.9450 O.3   333  NAD333     -0.3327
     31  C3D       41.4550   18.6910   32.1730 C.3   333  NAD333      0.2158
     32  O3D       40.8810   17.6430   32.9120 O.3   333  NAD333     -0.2175
     33  C2D       42.4970   18.1510   31.2190 C.3   333  NAD333      0.2309
     34  O2D       43.2360   17.0700   31.7320 O.3   333  NAD333     -0.2158
     35  C1D       41.6510   17.6960   30.0370 C.3   333  NAD333      0.2263
     36  N1N       42.4400   17.6070   28.7920 N.pl3 333  NAD333     -0.2787
     37  C2N       43.2740   18.6450   28.4330 C.3   333  NAD333      0.1244
     38  C3N       44.0220   18.5700   27.2470 C.2   333  NAD333      0.0544
     39  C7N       44.9770   19.6710   26.8540 C.2   333  NAD333      0.2818
     40  O7N       46.0890   19.3190   26.0670 O.2   333  NAD333     -0.2670
     41  N7N       44.7540   20.9370   27.2310 N.am  333  NAD333     -0.0839
     42  C4N       43.9050   17.4320   26.4430 C.2   333  NAD333      0.0033
     43  C5N       43.0600   16.3850   26.8250 C.2   333  NAD333      0.0157
     44  C6N       42.3250   16.4840   28.0050 C.2   333  NAD333      0.0633
@<TRIPOS>BOND
     1    40    39    2
     2    42    43    1
     3    42    38    2
     4    43    44    2
     5    39    41   am
     6    39    38    1
     7    38    37    1
     8    44    36    1
     9    37    36    1
    10    36    35    1
    11    26    24    2
    12    25    24    1
    13    30    35    1
    14    30    29    1
    15    24    27    1
    16    24    23    1
    17    35    33    1
    18     3     1    2
    19    27    28    1
    20    28    29    1
    21    33    34    1
    22    33    31    1
    23    29    31    1
    24    23     1    1
    25     1     4    1
    26     1     2    1
    27     4     5    1
    28    31    32    1
    29     9     8    1
    30     5     6    1
    31     6     8    1
    32     6     7    1
    33     8    10    1
    34     7    12    1
    35    12    10    1
    36    12    13    1
    37    10    11    1
    38    21    20    1
    39    21    22    2
    40    13    22    1
    41    13    14    1
    42    20    19    1
    43    22    16    1
    44    14    15    1
    45    19    17    2
    46    16    15    2
    47    16    17    1
    48    17    18    1
