@<TRIPOS>MOLECULE
3pyx_12T_B_1.pdb
 13 13 0 0 0
SMALL
GASTEIGER

@<TRIPOS>ATOM
      1  NAA       24.8650   41.5490   32.3530 N.pl3 371  12T371     -0.1278
      2  OAB       24.2090   43.9870   27.9090 O.co2 371  12T371     -0.2406
      3  OAC       23.2430   38.0210   31.6450 O.co2 371  12T371     -0.2405
      4  OAD       25.3760   42.6070   26.6840 O.co2 371  12T371     -0.2406
      5  OAE       24.9480   38.9070   32.6950 O.co2 371  12T371     -0.2405
      6  CAF       24.2340   40.5470   28.3870 C.ar  371  12T371      0.0069
      7  CAG       24.0860   39.5780   29.3630 C.ar  371  12T371      0.0082
      8  CAH       24.8020   42.1790   30.0780 C.ar  371  12T371      0.0248
      9  CAI       24.7400   42.8840   27.7090 C.2   371  12T371      0.3878
     10  CAJ       24.1480   38.8800   31.7510 C.2   371  12T371      0.3891
     11  CAK       24.6580   41.2130   31.0560 C.ar  371  12T371      0.0956
     12  CAL       24.5870   41.8370   28.7560 C.ar  371  12T371      0.0811
     13  CAM       24.3000   39.9230   30.6930 C.ar  371  12T371      0.0965
@<TRIPOS>BOND
     1     4     9   ar
     2     9     2   ar
     3     9    12    1
     4     6    12   ar
     5     6     7   ar
     6    12     8   ar
     7     7    13   ar
     8     8    11   ar
     9    13    11   ar
    10    13    10    1
    11    11     1    1
    12     3    10   ar
    13    10     5   ar
