@<TRIPOS>MOLECULE
3pyx_NAP_A_1.pdb
 48 52 0 0 0
SMALL
GASTEIGER

@<TRIPOS>ATOM
      1  PA         2.9680   15.5240   49.9650 P.3   367  NAP367      0.2189
      2  O1A        2.7130   14.7600   48.7120 O.2   367  NAP367     -0.5170
      3  O2A        4.3970   15.7200   50.2970 O.3   367  NAP367     -0.4371
      4  O5B        2.2700   14.7100   51.1730 O.3   367  NAP367     -0.3112
      5  C5B        0.9630   14.2070   51.0540 C.3   367  NAP367      0.1813
      6  C4B        0.4900   13.8230   52.4570 C.3   367  NAP367      0.1820
      7  O4B       -0.9050   13.5550   52.3870 O.3   367  NAP367     -0.3136
      8  C3B        1.1480   12.5570   52.9960 C.3   367  NAP367      0.2157
      9  O3B        1.2730   12.6440   54.4140 O.3   367  NAP367     -0.2175
     10  C2B        0.1230   11.4940   52.6460 C.3   367  NAP367      0.2314
     11  O2B        0.2010   10.3560   53.4660 O.3   367  NAP367     -0.2630
     12  C1B       -1.1500   12.2690   52.9180 C.3   367  NAP367      0.3158
     13  N9A       -2.3220   11.6170   52.3300 N.pl3 367  NAP367     -0.1439
     14  C8A       -2.5730   11.3650   51.0000 C.3   367  NAP367      0.3377
     15  N7A       -3.7710   10.7410   50.9160 N.2   367  NAP367     -0.2095
     16  C5A       -4.2760   10.5940   52.1630 C.2   367  NAP367      0.2526
     17  C6A       -5.4480   10.0320   52.6430 C.2   367  NAP367      0.4393
     18  N6A       -6.3200    9.5080   51.7920 N.pl3 367  NAP367      0.2180
     19  N1A       -5.7000   10.0340   54.0010 N.2   367  NAP367      0.0021
     20  C2A       -4.7900   10.5920   54.8830 C.3   367  NAP367      0.5254
     21  N3A       -3.6210   11.1440   54.4000 N.2   367  NAP367     -0.0055
     22  C4A       -3.3740   11.1420   53.0670 C.2   367  NAP367      0.3518
     23  O3         2.1300   16.9080   49.9220 O.3   367  NAP367     -0.2703
     24  PN         2.3840   18.3620   50.6240 P.3   367  NAP367      0.2189
     25  O1N        3.2250   19.2510   49.7690 O.2   367  NAP367     -0.5170
     26  O2N        2.8170   18.1440   52.0240 O.3   367  NAP367     -0.4371
     27  O5D        0.9070   19.0110   50.5560 O.3   367  NAP367     -0.3112
     28  C5D       -0.1590   18.6590   51.4180 C.3   367  NAP367      0.1813
     29  C4D       -1.2810   19.6990   51.3060 C.3   367  NAP367      0.1799
     30  O4D       -0.8190   20.9820   51.7110 O.3   367  NAP367     -0.3327
     31  C3D       -1.8240   19.8730   49.8920 C.3   367  NAP367      0.2158
     32  O3D       -3.2140   20.0370   50.0170 O.3   367  NAP367     -0.2175
     33  C2D       -1.2210   21.1840   49.4180 C.3   367  NAP367      0.2309
     34  O2D       -2.0070   21.8820   48.4700 O.3   367  NAP367     -0.2158
     35  C1D       -1.1030   21.9600   50.7240 C.3   367  NAP367      0.2263
     36  N1N       -0.0570   22.9960   50.6790 N.pl3 367  NAP367     -0.2787
     37  C2N        1.2230   22.6870   50.2770 C.3   367  NAP367      0.1244
     38  C3N        2.1900   23.6850   50.2490 C.2   367  NAP367      0.0544
     39  C7N        3.6230   23.3670   49.9750 C.2   367  NAP367      0.2818
     40  O7N        4.5050   24.4780   49.8790 O.2   367  NAP367     -0.2670
     41  N7N        4.0050   22.0850   49.8420 N.am  367  NAP367     -0.0839
     42  C4N        1.8620   24.9850   50.6260 C.2   367  NAP367      0.0033
     43  C5N        0.5650   25.2820   51.0270 C.2   367  NAP367      0.0157
     44  C6N       -0.3900   24.2710   51.0450 C.2   367  NAP367      0.0633
     45  P2B        0.9430    8.9930   52.9940 P.3   367  NAP367      0.5328
     46  O1X        0.3940    7.9210   53.9050 O.3   367  NAP367     -0.1145
     47  O2X        0.5900    8.7330   51.5470 O.2   367  NAP367     -0.2224
     48  O3X        2.4370    9.1730   53.1850 O.3   367  NAP367     -0.1145
@<TRIPOS>BOND
     1    34    33    1
     2     2     1    2
     3    33    31    1
     4    33    35    1
     5    25    24    2
     6    41    39   am
     7    40    39    2
     8    31    32    1
     9    31    29    1
    10    23     1    1
    11    23    24    1
    12     1     3    1
    13     1     4    1
    14    39    38    1
    15    38    37    1
    16    38    42    2
    17    37    36    1
    18    27    24    1
    19    27    28    1
    20    24    26    1
    21    42    43    1
    22    36    35    1
    23    36    44    1
    24    35    30    1
    25    15    14    1
    26    15    16    2
    27    14    13    1
    28    43    44    2
    29     5     4    1
    30     5     6    1
    31    29    28    1
    32    29    30    1
    33    47    45    2
    34    18    17    1
    35    16    17    1
    36    16    22    1
    37    13    12    1
    38    13    22    1
    39     7     6    1
    40     7    12    1
    41     6     8    1
    42    17    19    2
    43    10    12    1
    44    10     8    1
    45    10    11    1
    46    45    48    1
    47    45    11    1
    48    45    46    1
    49     8     9    1
    50    22    21    2
    51    19    20    1
    52    21    20    1
