@<TRIPOS>MOLECULE
3pyy_STI_A_1.pdb
 37 41 0 0 0
SMALL
GASTEIGER

@<TRIPOS>ATOM
      1  C1        11.6660    2.9630  -10.8940 C.ar    3  STI3        0.0208
      2  C6        12.0170    1.6830  -10.5260 C.ar    3  STI3        0.0057
      3  C5        13.2850    1.4330  -10.0450 C.ar    3  STI3        0.0497
      4  C4        14.1480    2.5070   -9.9800 C.ar    3  STI3        0.1014
      5  N3        13.8490    3.7680  -10.3190 N.ar    3  STI3       -0.2422
      6  C2        12.6050    3.9620  -10.7690 C.ar    3  STI3        0.0989
      7  C7        13.7070    0.0960   -9.6780 C.2     3  STI3        0.1472
      8  C12       12.8450   -0.9750   -9.7400 C.2     3  STI3        0.0546
      9  C11       13.3540   -2.2010   -9.3930 C.2     3  STI3        0.1144
     10  N10       14.6270   -2.3840   -9.0240 N.2     3  STI3       -0.1683
     11  C9        15.3910   -1.2880   -9.0000 C.1     3  STI3        0.1696
     12  N8        14.9830   -0.0510   -9.2990 N.2     3  STI3       -0.3361
     13  N13       16.7300   -1.4190   -8.6070 N.pl3   3  STI3       -0.1360
     14  C14       17.3460   -2.6440   -8.3190 C.ar    3  STI3        0.0799
     15  C19       17.2790   -3.1210   -7.0260 C.ar    3  STI3       -0.0057
     16  C18       17.8860   -4.3080   -6.6910 C.ar    3  STI3       -0.0016
     17  C17       18.5670   -5.0210   -7.6500 C.ar    3  STI3        0.0164
     18  C16       18.6420   -4.5560   -8.9410 C.ar    3  STI3        0.0750
     19  C15       18.0320   -3.3610   -9.2830 C.ar    3  STI3        0.0336
     20  N21       19.3710   -5.3460   -9.8480 N.am    3  STI3       -0.1754
     21  C22       19.6690   -4.9660  -11.1330 C.2     3  STI3        0.2690
     22  C23       20.7180   -5.7680  -11.7940 C.ar    3  STI3        0.0554
     23  C25       21.3110   -5.2380  -12.9110 C.ar    3  STI3        0.0043
     24  C26       22.2850   -5.9510  -13.5740 C.ar    3  STI3       -0.0028
     25  C27       22.6750   -7.1920  -13.1230 C.ar    3  STI3       -0.0061
     26  C28       22.0730   -7.7150  -11.9990 C.ar    3  STI3       -0.0028
     27  C29       21.0900   -7.0090  -11.3300 C.ar    3  STI3        0.0043
     28  C46       23.7430   -7.9340  -13.8670 C.3     3  STI3        0.0992
     29  N48       23.3580   -9.3330  -14.2110 N.3     3  STI3       -0.2665
     30  C53       22.1160   -9.4170  -15.0130 C.3     3  STI3        0.0899
     31  C52       21.6730  -10.8610  -14.9800 C.3     3  STI3        0.0897
     32  N51       22.7690  -11.6590  -15.5840 N.3     3  STI3       -0.2691
     33  C54       22.3650  -13.0680  -15.7870 C.3     3  STI3        0.0897
     34  C50       24.0450  -11.5520  -14.8270 C.3     3  STI3        0.0897
     35  C49       24.4640  -10.0990  -14.8370 C.3     3  STI3        0.0899
     36  O29       19.1350   -4.0600  -11.7620 O.2     3  STI3       -0.2680
     37  C20       16.5460   -2.3560   -5.9780 C.3     3  STI3        0.0324
@<TRIPOS>BOND
     1    33    32    1
     2    32    31    1
     3    32    34    1
     4    30    31    1
     5    30    29    1
     6    35    34    1
     7    35    29    1
     8    29    28    1
     9    28    25    1
    10    24    25   ar
    11    24    23   ar
    12    25    26   ar
    13    23    22   ar
    14    26    27   ar
    15    22    27   ar
    16    22    21    1
    17    36    21    2
    18    21    20   am
    19     1     6   ar
    20     1     2   ar
    21     6     5   ar
    22     2     3   ar
    23     5     4   ar
    24     3     4   ar
    25     3     7    1
    26    20    18    1
    27     8     7    1
    28     8     9    2
    29     7    12    2
    30     9    10    1
    31    12    11    2
    32    19    18   ar
    33    19    14   ar
    34    10    11    2
    35    11    13    1
    36    18    17   ar
    37    13    14    1
    38    14    15   ar
    39    17    16   ar
    40    15    16   ar
    41    15    37    1
