@<TRIPOS>MOLECULE
3pyy_3YY_A_1.pdb
 25 28 0 0 0
SMALL
GASTEIGER

@<TRIPOS>ATOM
      1  C1        18.1090   11.8270  -38.0900 C.ar  538  3YY538      0.0001
      2  C2        16.7900   11.5600  -38.3780 C.ar  538  3YY538      0.0015
      3  C3        18.7680   11.1360  -37.0980 C.ar  538  3YY538      0.0015
      4  C4        15.6560    5.0160  -33.7600 C.ar  538  3YY538      0.0038
      5  C5        17.3200    6.4920  -32.8980 C.ar  538  3YY538      0.0038
      6  C6        16.1170   10.5900  -37.6700 C.ar  538  3YY538      0.0191
      7  C7        18.1050   10.1660  -36.3810 C.ar  538  3YY538      0.0191
      8  C8        16.0930    4.0380  -32.8930 C.ar  538  3YY538      0.0297
      9  C9        17.7540    5.5080  -32.0270 C.ar  538  3YY538      0.0297
     10  C10       14.7680    8.7890  -35.8810 C.ar  538  3YY538      0.1006
     11  C11       16.2680    6.2470  -33.7640 C.ar  538  3YY538      0.0193
     12  C12       14.5540    7.7250  -35.0330 C.ar  538  3YY538      0.0561
     13  C13       16.7930    9.9100  -36.6890 C.ar  538  3YY538      0.0828
     14  C14       17.1380    4.2780  -32.0300 C.ar  538  3YY538      0.1401
     15  C15       15.8540    7.2950  -34.6530 C.ar  538  3YY538      0.1017
     16  C16       12.6630    6.2580  -35.6600 C.1   538  3YY538      0.2198
     17  C17       11.2160    7.9820  -35.5040 C.1   538  3YY538      0.3076
     18  C18       13.2470    7.1860  -34.6250 C.3   538  3YY538      0.2597
     19  N19       16.8040    8.0430  -35.2290 N.ar  538  3YY538     -0.1653
     20  N20       16.1220    8.9300  -35.9620 N.ar  538  3YY538     -0.2284
     21  N21       11.5100    6.8060  -36.1320 N.2   538  3YY538     -0.2445
     22  N22       12.2590    8.2460  -34.6560 N.2   538  3YY538     -0.1548
     23  O23       13.1240    5.1740  -35.9740 O.2   538  3YY538     -0.2110
     24  O24       10.2160    8.6570  -35.6920 O.2   538  3YY538     -0.1881
     25  F25       17.5460    3.3010  -31.1790 F     538  3YY538     -0.2042
@<TRIPOS>BOND
     1     2     1   ar
     2     2     6   ar
     3     1     3   ar
     4     6    13   ar
     5     3     7   ar
     6    13     7   ar
     7    13    20    1
     8    21    16    2
     9    21    17    2
    10    23    16    2
    11    20    10   ar
    12    20    19   ar
    13    10    12   ar
    14    24    17    2
    15    16    18    1
    16    17    22    2
    17    19    15   ar
    18    12    15   ar
    19    12    18    1
    20    22    18    1
    21    15    11    1
    22    11     4   ar
    23    11     5   ar
    24     4     8   ar
    25     5     9   ar
    26     8    14   ar
    27    14     9   ar
    28    14    25    1
