@<TRIPOS>MOLECULE
3pyz_ANP_A_1.pdb
 31 33 0 0 0
SMALL
GASTEIGER

@<TRIPOS>ATOM
      1  PG        -7.4680   23.4470  -18.8300 P.3   601  ANP601      0.4884
      2  O1G       -8.0570   24.9180  -18.7540 O.2   601  ANP601     -0.2331
      3  O2G       -6.1990   23.2070  -17.8320 O.3   601  ANP601     -0.1240
      4  O3G       -8.5680   22.4350  -18.5220 O.3   601  ANP601     -0.1240
      5  PB        -6.1800   21.6060  -20.7760 P.3   601  ANP601      0.4669
      6  O1B       -5.6250   21.9060  -22.1690 O.2   601  ANP601     -0.2351
      7  O2B       -5.1360   21.5110  -19.5530 O.3   601  ANP601     -0.1253
      8  N3B       -6.9520   23.1250  -20.4520 N.3   601  ANP601     -0.0163
      9  PA        -7.7650   19.2990  -19.9860 P.3   601  ANP601      0.2220
     10  O1A       -7.1830   17.9060  -20.2630 O.2   601  ANP601     -0.5170
     11  O2A       -7.7530   19.7980  -18.4930 O.3   601  ANP601     -0.4370
     12  O3A       -7.3420   20.5020  -20.9610 O.3   601  ANP601     -0.2360
     13  O5'       -9.2890   19.1630  -20.4470 O.3   601  ANP601     -0.3111
     14  C5'      -10.1070   20.3280  -20.2950 C.3   601  ANP601      0.1813
     15  C4'      -11.4690   20.1070  -20.9760 C.3   601  ANP601      0.1821
     16  O4'      -11.3240   20.2420  -22.4170 O.3   601  ANP601     -0.3135
     17  C3'      -12.0540   18.7410  -20.7200 C.3   601  ANP601      0.2184
     18  O3'      -12.9210   18.7670  -19.5430 O.3   601  ANP601     -0.2174
     19  C2'      -12.9090   18.5680  -21.9030 C.3   601  ANP601      0.2570
     20  O2'      -14.0880   19.4260  -21.7200 O.3   601  ANP601     -0.2130
     21  C1'      -12.1180   19.1700  -23.0520 C.3   601  ANP601      0.3186
     22  N9       -11.1120   18.3740  -23.7740 N.pl3 601  ANP601     -0.1439
     23  C8        -9.9990   17.7580  -23.3400 C.3   601  ANP601      0.3377
     24  N7        -9.3400   17.1940  -24.3710 N.2   601  ANP601     -0.2095
     25  C5       -10.0740   17.4640  -25.4860 C.2   601  ANP601      0.2526
     26  C6        -9.9240   17.1510  -26.8270 C.2   601  ANP601      0.4393
     27  N6        -8.8660   16.4110  -27.3590 N.pl3 601  ANP601      0.2180
     28  N1       -10.8670   17.5980  -27.6540 N.2   601  ANP601      0.0021
     29  C2       -11.9380   18.3390  -27.2230 C.3   601  ANP601      0.5254
     30  N3       -12.1130   18.6340  -25.9300 N.2   601  ANP601     -0.0055
     31  C4       -11.1690   18.1900  -25.0750 C.2   601  ANP601      0.3518
@<TRIPOS>BOND
     1    28    29    1
     2    28    26    2
     3    27    26    1
     4    29    30    1
     5    26    25    1
     6    30    31    2
     7    25    31    1
     8    25    24    2
     9    31    22    1
    10    24    23    1
    11    22    23    1
    12    22    21    1
    13    21    16    1
    14    21    19    1
    15    16    15    1
    16     6     5    2
    17    19    20    1
    18    19    17    1
    19    15    17    1
    20    15    14    1
    21    12     5    1
    22    12     9    1
    23     5     8    1
    24     5     7    1
    25    17    18    1
    26     8     1    1
    27    13    14    1
    28    13     9    1
    29    10     9    2
    30     9    11    1
    31     1     2    2
    32     1     4    1
    33     1     3    1
