@<TRIPOS>MOLECULE
3pz1_3PZ_B_1.pdb
 38 42 0 0 0
SMALL
GASTEIGER

@<TRIPOS>ATOM
      1  C1         2.9880   19.8490   27.5190 C.ar    1  3PZ1        0.0455
      2  N1         5.9050   21.0360   27.2070 N.3     1  3PZ1       -0.1504
      3  O1         6.6160   22.1000   29.4000 O.2     1  3PZ1       -0.1528
      4  S1         6.5070   20.7580   28.7570 S.O2    1  3PZ1        0.0636
      5  C2         3.3490   21.1820   27.6450 C.ar    1  3PZ1        0.0095
      6  N2         3.7410   18.9610   26.8720 N.pl3   1  3PZ1       -0.3011
      7  O2         7.8510   20.1140   28.6770 O.2     1  3PZ1       -0.1528
      8  C3         2.5020   22.0840   28.2830 C.ar    1  3PZ1        0.0086
      9  N3         1.1570   16.5370   24.6630 N.ar    1  3PZ1       -0.2226
     10  O3         3.0040   17.4440   32.1090 O.3     1  3PZ1       -0.4714
     11  C4         1.2790   21.6620   28.8070 C.ar    1  3PZ1        0.0683
     12  N4         2.4670   15.5450   26.0420 N.ar    1  3PZ1       -0.3089
     13  C5         0.9040   20.3240   28.6850 C.ar    1  3PZ1        0.0115
     14  N5        -0.1890   23.4220   29.9800 N.1     1  3PZ1       -0.1908
     15  C6         1.7510   19.4100   28.0350 C.ar    1  3PZ1        0.0149
     16  C7         4.6380   21.8520   27.1430 C.3     1  3PZ1        0.1233
     17  C8         5.9850   19.8600   26.3160 C.3     1  3PZ1        0.1039
     18  C9         4.6170   19.4080   25.7840 C.3     1  3PZ1        0.1091
     19  C10        3.6880   17.5140   27.1190 C.3     1  3PZ1        0.1368
     20  C11        2.6940   16.8550   26.1690 C.ar    1  3PZ1        0.0778
     21  C12        1.8800   17.4640   25.2990 C.ar    1  3PZ1        0.1150
     22  C13        1.5320   15.3440   25.1320 C.ar    1  3PZ1        0.1784
     23  C14        3.1510   14.4450   26.8110 C.3     1  3PZ1        0.1318
     24  C15        6.9700   20.1280   25.1570 C.3     1  3PZ1        0.0458
     25  C16        5.8360   23.4920   22.6740 C.ar    1  3PZ1       -0.0000
     26  C17        6.3850   23.7150   23.9370 C.ar    1  3PZ1       -0.0003
     27  C18        6.7530   22.6370   24.7410 C.ar    1  3PZ1       -0.0042
     28  C19        6.5720   21.3300   24.2850 C.ar    1  3PZ1       -0.0207
     29  C20        6.0300   21.1100   23.0230 C.ar    1  3PZ1       -0.0042
     30  C21        5.6630   22.1880   22.2180 C.ar    1  3PZ1       -0.0003
     31  C22        3.8250   18.1990   31.3280 C.ar    1  3PZ1        0.1388
     32  C23        3.6790   19.5830   31.3100 C.ar    1  3PZ1        0.0383
     33  C24        4.5090   20.3660   30.5230 C.ar    1  3PZ1        0.0230
     34  C25        5.4840   19.7570   29.7420 C.ar    1  3PZ1        0.1224
     35  C26        5.6460   18.3720   29.7570 C.ar    1  3PZ1        0.0230
     36  C27        4.8080   17.5920   30.5520 C.ar    1  3PZ1        0.0383
     37  C28        1.6100   17.6560   31.7920 C.3     1  3PZ1        0.2525
     38  C29        0.4440   22.6280   29.4630 C.1     1  3PZ1        0.1004
@<TRIPOS>BOND
     1    30    25   ar
     2    30    29   ar
     3    25    26   ar
     4    29    28   ar
     5    26    27   ar
     6    28    27   ar
     7    28    24    1
     8     9    22   ar
     9     9    21   ar
    10    22    12   ar
    11    24    17    1
    12    21    20   ar
    13    18    17    1
    14    18     6    1
    15    12    20   ar
    16    12    23    1
    17    20    19    1
    18    17     2    1
    19     6    19    1
    20     6     1    1
    21    16     2    1
    22    16     5    1
    23     2     4    1
    24     1     5   ar
    25     1    15   ar
    26     5     8   ar
    27    15    13   ar
    28     8    11   ar
    29     7     4    2
    30    13    11   ar
    31     4     3    2
    32     4    34    1
    33    11    38    1
    34    38    14    3
    35    34    35   ar
    36    34    33   ar
    37    35    36   ar
    38    33    32   ar
    39    36    31   ar
    40    32    31   ar
    41    31    10    1
    42    37    10    1
