@<TRIPOS>MOLECULE
3pz2_3PZ_B_1.pdb
 38 42 0 0 0
SMALL
GASTEIGER

@<TRIPOS>ATOM
      1  C1         3.9350   18.4490   27.6120 C.ar  333  3PZ333      0.0455
      2  N1         6.7390   19.8380   27.0830 N.3   333  3PZ333     -0.1504
      3  O1         7.6270   21.0200   29.0960 O.2   333  3PZ333     -0.1528
      4  S1         7.4080   19.6340   28.5900 S.O2  333  3PZ333      0.0636
      5  C2         4.2130   19.8110   27.6360 C.ar  333  3PZ333      0.0095
      6  N2         4.6880   17.5680   26.9850 N.pl3 333  3PZ333     -0.3011
      7  O2         8.7300   18.9520   28.4090 O.2   333  3PZ333     -0.1528
      8  C3         3.3350   20.7050   28.2530 C.ar  333  3PZ333      0.0086
      9  N3         2.1770   15.0090   24.8320 N.ar  333  3PZ333     -0.2226
     10  O3         4.1990   16.2330   32.1400 O.3   333  3PZ333     -0.4714
     11  C4         2.1730   20.2300   28.8220 C.ar  333  3PZ333      0.0683
     12  N4         3.7020   14.0990   26.0930 N.ar  333  3PZ333     -0.3089
     13  C5         1.8810   18.8710   28.7790 C.ar  333  3PZ333      0.0115
     14  N5         0.5270   21.8520   29.9420 N.1   333  3PZ333     -0.1908
     15  C6         2.7550   17.9690   28.1730 C.ar  333  3PZ333      0.0149
     16  C7         5.4310   20.5440   27.0420 C.3   333  3PZ333      0.1233
     17  C8         6.8920   18.6590   26.2460 C.3   333  3PZ333      0.1039
     18  C9         5.5550   18.0050   25.8450 C.3   333  3PZ333      0.1091
     19  C10        4.6640   16.1190   27.2670 C.3   333  3PZ333      0.1368
     20  C11        3.7440   15.4090   26.2840 C.ar  333  3PZ333      0.0778
     21  C12        2.8240   15.9610   25.4910 C.ar  333  3PZ333      0.1150
     22  C13        2.7450   13.8380   25.1920 C.ar  333  3PZ333      0.1784
     23  C14        4.5690   13.0930   26.8220 C.3   333  3PZ333      0.1318
     24  C15        7.7860   19.0400   25.0250 C.3   333  3PZ333      0.0458
     25  C16        6.3910   22.3540   22.5810 C.ar  333  3PZ333     -0.0000
     26  C17        7.0700   22.6000   23.7680 C.ar  333  3PZ333     -0.0003
     27  C18        7.5140   21.5350   24.5600 C.ar  333  3PZ333     -0.0042
     28  C19        7.2870   20.2090   24.1690 C.ar  333  3PZ333     -0.0207
     29  C20        6.6330   19.9820   22.9580 C.ar  333  3PZ333     -0.0042
     30  C21        6.1900   21.0470   22.1700 C.ar  333  3PZ333     -0.0003
     31  C22        4.9030   17.1120   31.3620 C.ar  333  3PZ333      0.1388
     32  C23        4.7430   18.5050   31.4020 C.ar  333  3PZ333      0.0383
     33  C24        5.5120   19.3090   30.5630 C.ar  333  3PZ333      0.0230
     34  C25        6.4290   18.7120   29.6910 C.ar  333  3PZ333      0.1224
     35  C26        6.5940   17.3430   29.6780 C.ar  333  3PZ333      0.0230
     36  C27        5.8270   16.5550   30.5030 C.ar  333  3PZ333      0.0383
     37  C28        3.1460   16.8800   32.9060 C.3   333  3PZ333      0.2525
     38  C29        1.2640   21.1430   29.4470 C.1   333  3PZ333      0.1004
@<TRIPOS>BOND
     1    30    25   ar
     2    30    29   ar
     3    25    26   ar
     4    29    28   ar
     5    26    27   ar
     6    28    27   ar
     7    28    24    1
     8     9    22   ar
     9     9    21   ar
    10    24    17    1
    11    22    12   ar
    12    21    20   ar
    13    18    17    1
    14    18     6    1
    15    12    20   ar
    16    12    23    1
    17    17     2    1
    18    20    19    1
    19     6    19    1
    20     6     1    1
    21    16     2    1
    22    16     5    1
    23     2     4    1
    24     1     5   ar
    25     1    15   ar
    26     5     8   ar
    27    15    13   ar
    28     8    11   ar
    29     7     4    2
    30     4     3    2
    31     4    34    1
    32    13    11   ar
    33    11    38    1
    34    38    14    3
    35    35    34   ar
    36    35    36   ar
    37    34    33   ar
    38    36    31   ar
    39    33    32   ar
    40    31    32   ar
    41    31    10    1
    42    10    37    1
