@<TRIPOS>MOLECULE
3pz2_GRG_B_1.pdb
 29 28 0 0 0
SMALL
GASTEIGER

@<TRIPOS>ATOM
      1  C20        3.5180   25.0080   18.2230 C.3   334  GRG334      0.0260
      2  C19        4.9420   27.1400   17.6040 C.3   334  GRG334      0.0260
      3  C18        4.8720   25.6960   18.1410 C.2   334  GRG334     -0.0478
      4  C17        5.9890   24.9630   18.5470 C.2   334  GRG334     -0.0342
      5  C16        7.3490   25.2720   18.6190 C.3   334  GRG334      0.0297
      6  C14        9.2900   23.1960   20.5270 C.3   334  GRG334      0.0260
      7  C13        8.5300   22.9840   19.1920 C.2   334  GRG334     -0.0478
      8  C15        8.2420   24.0990   18.1370 C.3   334  GRG334      0.0263
      9  C12        8.0970   21.7170   18.8880 C.2   334  GRG334     -0.0342
     10  C11        8.2530   20.5450   19.6050 C.3   334  GRG334      0.0297
     11  C9         7.8730   19.4090   18.6440 C.3   334  GRG334      0.0263
     12  C8         7.8340   18.0480   19.2860 C.2   334  GRG334     -0.0478
     13  C10        9.1600   17.3690   19.5140 C.3   334  GRG334      0.0260
     14  C7         6.6050   17.4490   19.5900 C.2   334  GRG334     -0.0342
     15  C6         6.3100   16.1990   20.1560 C.3   334  GRG334      0.0297
     16  C5         5.5770   16.3140   21.5160 C.3   334  GRG334      0.0264
     17  C3         5.2750   14.9100   22.0380 C.2   334  GRG334     -0.0454
     18  C4         3.8940   14.3580   21.8480 C.3   334  GRG334      0.0261
     19  C2         6.2980   14.1880   22.6520 C.2   334  GRG334     -0.0024
     20  C1         6.2840   12.8840   23.1680 C.3   334  GRG334      0.1747
     21  O1         6.8480   11.9710   22.1420 O.3   334  GRG334     -0.3089
     22  PA         7.3920   10.5830   22.5730 P.3   334  GRG334      0.2233
     23  O1A        8.4940   10.7490   23.5550 O.3   334  GRG334     -0.4370
     24  O3A        6.1720    9.9890   23.2940 O.3   334  GRG334     -0.2261
     25  O2A        7.6410    9.7770   21.3940 O.2   334  GRG334     -0.5169
     26  PB         4.9360    9.3360   22.5860 P.3   334  GRG334      0.5373
     27  O1B        3.8940   10.5210   22.1400 O.3   334  GRG334     -0.1143
     28  O2B        4.3480    8.6250   23.9350 O.3   334  GRG334     -0.1143
     29  O3B        5.2010    8.4240   21.4370 O.2   334  GRG334     -0.2221
@<TRIPOS>BOND
     1     2     3    1
     2     8     5    1
     3     8     7    1
     4     3     1    1
     5     3     4    2
     6     4     5    1
     7    11    12    1
     8    11    10    1
     9     9     7    2
    10     9    10    1
    11     7     6    1
    12    12    13    1
    13    12    14    2
    14    14    15    1
    15    15    16    1
    16    25    22    2
    17    29    26    2
    18    16    17    1
    19    18    17    1
    20    17    19    2
    21    27    26    1
    22    21    22    1
    23    21    20    1
    24    22    24    1
    25    22    23    1
    26    26    24    1
    27    26    28    1
    28    19    20    1
