@<TRIPOS>MOLECULE
3pz4_3PZ_B_1.pdb
 38 42 0 0 0
SMALL
GASTEIGER

@<TRIPOS>ATOM
      1  C1        50.9050  -51.1910    5.1060 C.ar  429  3PZ429      0.0455
      2  N1        52.0640  -51.6440    2.2590 N.3   429  3PZ429     -0.1504
      3  O1        50.3420  -52.9800    0.4590 O.2   429  3PZ429     -0.1528
      4  S1        50.4420  -51.7140    1.3070 S.O2  429  3PZ429      0.0636
      5  C2        51.5220  -52.3400    4.6190 C.ar  429  3PZ429      0.0095
      6  N2        51.1800  -49.9790    4.6000 N.pl3 429  3PZ429     -0.3011
      7  O2        50.3480  -50.5290    0.3730 O.2   429  3PZ429     -0.1528
      8  C3        51.3130  -53.5590    5.2040 C.ar  429  3PZ429      0.0086
      9  N3        51.4840  -47.6490    7.9130 N.ar  429  3PZ429     -0.2226
     10  O3        45.6770  -51.5490    4.6630 O.3   429  3PZ429     -0.4714
     11  C4        50.4790  -53.6520    6.2950 C.ar  429  3PZ429      0.0683
     12  N4        50.0400  -47.0670    6.4660 N.ar  429  3PZ429     -0.3089
     13  C5        49.8760  -52.4970    6.8140 C.ar  429  3PZ429      0.0115
     14  N5        50.2220  -56.0290    7.2730 N.1   429  3PZ429     -0.1908
     15  C6        50.0910  -51.2620    6.2380 C.ar  429  3PZ429      0.0149
     16  C7        52.4260  -52.4760    3.4400 C.3   429  3PZ429      0.1233
     17  C8        52.4770  -50.2250    2.4970 C.3   429  3PZ429      0.1039
     18  C9        52.4920  -49.7650    3.9600 C.3   429  3PZ429      0.1091
     19  C10       50.3190  -48.8340    4.7020 C.3   429  3PZ429      0.1368
     20  C11       50.6540  -48.1530    6.0180 C.ar  429  3PZ429      0.0778
     21  C12       51.5570  -48.5120    6.9160 C.ar  429  3PZ429      0.1150
     22  C13       50.5390  -46.7430    7.6390 C.ar  429  3PZ429      0.1784
     23  C14       48.9190  -46.3650    5.7270 C.3   429  3PZ429      0.1318
     24  C15       53.8100  -49.9640    1.7690 C.3   429  3PZ429      0.0458
     25  C16       57.4560  -51.8270    3.1850 C.ar  429  3PZ429     -0.0000
     26  C17       56.6160  -52.4980    2.2950 C.ar  429  3PZ429     -0.0003
     27  C18       55.4410  -51.9050    1.8340 C.ar  429  3PZ429     -0.0042
     28  C19       55.0750  -50.6440    2.2810 C.ar  429  3PZ429     -0.0207
     29  C20       55.9150  -49.9620    3.1510 C.ar  429  3PZ429     -0.0042
     30  C21       57.1090  -50.5440    3.6100 C.ar  429  3PZ429     -0.0003
     31  C22       46.7760  -51.6000    3.8610 C.ar  429  3PZ429      0.1388
     32  C23       47.3970  -52.8140    3.6150 C.ar  429  3PZ429      0.0383
     33  C24       48.5140  -52.8770    2.8050 C.ar  429  3PZ429      0.0230
     34  C25       49.0200  -51.6850    2.2890 C.ar  429  3PZ429      0.1224
     35  C26       48.4020  -50.4620    2.5180 C.ar  429  3PZ429      0.0230
     36  C27       47.2780  -50.4160    3.3250 C.ar  429  3PZ429      0.0383
     37  C28       46.0560  -50.9100    5.9570 C.3   429  3PZ429      0.2525
     38  C29       50.2930  -54.9620    6.8600 C.1   429  3PZ429      0.1004
@<TRIPOS>BOND
     1     7     4    2
     2     3     4    2
     3     4     2    1
     4     4    34    1
     5    24    28    1
     6    24    17    1
     7    27    28   ar
     8    27    26   ar
     9     2    17    1
    10     2    16    1
    11    28    29   ar
    12    34    35   ar
    13    34    33   ar
    14    26    25   ar
    15    17    18    1
    16    35    36   ar
    17    33    32   ar
    18    29    30   ar
    19    25    30   ar
    20    36    31   ar
    21    16     5    1
    22    32    31   ar
    23    31    10    1
    24    18     6    1
    25     6    19    1
    26     6     1    1
    27     5     1   ar
    28     5     8   ar
    29    10    37    1
    30    19    20    1
    31     1    15   ar
    32     8    11   ar
    33    23    12    1
    34    20    12   ar
    35    20    21   ar
    36    15    13   ar
    37    11    13   ar
    38    11    38    1
    39    12    22   ar
    40    38    14    3
    41    21     9   ar
    42    22     9   ar
