@<TRIPOS>MOLECULE
3pz4_FPP_B_1.pdb
 24 23 0 0 0
SMALL
GASTEIGER

@<TRIPOS>ATOM
      1  C1        52.2500  -44.1990    4.0380 C.3   428  FPP428      0.1747
      2  O1        52.1590  -43.0660    3.1170 O.3   428  FPP428     -0.3089
      3  C2        53.3600  -45.0200    3.8210 C.2   428  FPP428     -0.0024
      4  C3        54.1040  -45.6560    4.7940 C.2   428  FPP428     -0.0454
      5  C4        53.7440  -45.5260    6.2560 C.3   428  FPP428      0.0261
      6  C5        55.2950  -46.5110    4.3960 C.3   428  FPP428      0.0264
      7  C6        56.6260  -45.7580    4.4730 C.3   428  FPP428      0.0297
      8  C7        57.7220  -46.5870    4.2020 C.2   428  FPP428     -0.0342
      9  C8        58.3390  -46.9070    2.9890 C.2   428  FPP428     -0.0478
     10  C10       57.8170  -46.3620    1.6870 C.3   428  FPP428      0.0260
     11  C9        59.5280  -47.8330    3.0400 C.3   428  FPP428      0.0263
     12  C11       59.6310  -48.8240    1.9250 C.3   428  FPP428      0.0297
     13  C12       60.7980  -49.6230    2.0620 C.2   428  FPP428     -0.0342
     14  C13       61.2470  -50.6570    1.2140 C.2   428  FPP428     -0.0478
     15  C14       60.4620  -51.0710   -0.0410 C.3   428  FPP428      0.0260
     16  C15       62.5570  -51.4080    1.5130 C.3   428  FPP428      0.0260
     17  PA        51.0400  -41.9880    3.5360 P.3   428  FPP428      0.2233
     18  O1A       49.7030  -42.6030    3.6930 O.3   428  FPP428     -0.4370
     19  O2A       51.2270  -40.7900    2.7010 O.2   428  FPP428     -0.5169
     20  O3A       51.5660  -41.8360    5.0320 O.3   428  FPP428     -0.2261
     21  PB        51.8380  -40.4680    5.7650 P.3   428  FPP428      0.5373
     22  O1B       52.9180  -39.6370    5.0000 O.2   428  FPP428     -0.2221
     23  O2B       52.6670  -41.0220    7.0230 O.3   428  FPP428     -0.1143
     24  O3B       50.5540  -39.8370    6.0910 O.3   428  FPP428     -0.1143
@<TRIPOS>BOND
     1    15    14    1
     2    14    16    1
     3    14    13    2
     4    10     9    1
     5    12    13    1
     6    12    11    1
     7    19    17    2
     8     9    11    1
     9     9     8    2
    10     2    17    1
    11     2     1    1
    12    17    18    1
    13    17    20    1
    14     3     1    1
    15     3     4    2
    16     8     7    1
    17     6     7    1
    18     6     4    1
    19     4     5    1
    20    22    21    2
    21    20    21    1
    22    21    24    1
    23    21    23    1
