@<TRIPOS>MOLECULE
3pzb_NAP_A_1.pdb
 48 52 0 0 0
SMALL
GASTEIGER

@<TRIPOS>ATOM
      1  PA         3.0370   15.8150   50.1310 P.3   368  NAP368      0.2189
      2  O1A        2.8000   15.0450   48.8890 O.2   368  NAP368     -0.5170
      3  O2A        4.4840   15.9950   50.3790 O.3   368  NAP368     -0.4371
      4  O5B        2.3330   15.0740   51.3790 O.3   368  NAP368     -0.3112
      5  C5B        1.0220   14.5570   51.2950 C.3   368  NAP368      0.1813
      6  C4B        0.6100   14.0090   52.6590 C.3   368  NAP368      0.1820
      7  O4B       -0.7720   13.7000   52.6670 O.3   368  NAP368     -0.3136
      8  C3B        1.3490   12.7270   53.0200 C.3   368  NAP368      0.2157
      9  O3B        1.7710   12.8210   54.3600 O.3   368  NAP368     -0.2175
     10  C2B        0.3010   11.6430   52.8780 C.3   368  NAP368      0.2314
     11  O2B        0.4980   10.5610   53.7620 O.3   368  NAP368     -0.2630
     12  C1B       -0.9810   12.3970   53.1780 C.3   368  NAP368      0.3158
     13  N9A       -2.1560   11.7490   52.5670 N.pl3 368  NAP368     -0.1439
     14  C8A       -2.3710   11.5060   51.2330 C.3   368  NAP368      0.3377
     15  N7A       -3.5690   10.8910   51.0980 N.2   368  NAP368     -0.2095
     16  C5A       -4.1210   10.7400   52.3220 C.2   368  NAP368      0.2526
     17  C6A       -5.3220   10.1820   52.7520 C.2   368  NAP368      0.4393
     18  N6A       -6.1740    9.6670   51.8710 N.pl3 368  NAP368      0.2180
     19  N1A       -5.6280   10.1690   54.1000 N.2   368  NAP368      0.0021
     20  C2A       -4.7430   10.7070   55.0170 C.3   368  NAP368      0.5254
     21  N3A       -3.5490   11.2570   54.5830 N.2   368  NAP368     -0.0055
     22  C4A       -3.2430   11.2760   53.2580 C.2   368  NAP368      0.3518
     23  O3         2.2860   17.2420   50.0570 O.3   368  NAP368     -0.2703
     24  PN         2.5710   18.6240   50.8460 P.3   368  NAP368      0.2189
     25  O1N        3.5310   19.4370   50.0620 O.2   368  NAP368     -0.5170
     26  O2N        2.8840   18.2930   52.2520 O.3   368  NAP368     -0.4371
     27  O5D        1.1570   19.3990   50.7720 O.3   368  NAP368     -0.3112
     28  C5D       -0.0210   18.9420   51.4060 C.3   368  NAP368      0.1813
     29  C4D       -1.1230   19.9970   51.2740 C.3   368  NAP368      0.1799
     30  O4D       -0.6810   21.2510   51.7730 O.3   368  NAP368     -0.3327
     31  C3D       -1.5550   20.2150   49.8280 C.3   368  NAP368      0.2158
     32  O3D       -2.9590   20.1520   49.7500 O.3   368  NAP368     -0.2175
     33  C2D       -1.0780   21.6140   49.4810 C.3   368  NAP368      0.2309
     34  O2D       -1.9900   22.3040   48.6560 O.3   368  NAP368     -0.2158
     35  C1D       -0.9310   22.2890   50.8380 C.3   368  NAP368      0.2263
     36  N1N        0.1540   23.2950   50.8450 N.pl3 368  NAP368     -0.2787
     37  C2N        1.4320   22.9640   50.4600 C.3   368  NAP368      0.1244
     38  C3N        2.4440   23.9230   50.4740 C.2   368  NAP368      0.0544
     39  C7N        3.8510   23.5660   50.0910 C.2   368  NAP368      0.2818
     40  O7N        4.8030   24.6020   49.9560 O.2   368  NAP368     -0.2670
     41  N7N        4.1710   22.2850   49.8880 N.am  368  NAP368     -0.0839
     42  C4N        2.1490   25.2220   50.8810 C.2   368  NAP368      0.0033
     43  C5N        0.8520   25.5520   51.2660 C.2   368  NAP368      0.0157
     44  C6N       -0.1390   24.5740   51.2450 C.2   368  NAP368      0.0633
     45  P2B        1.1280    9.1710   53.2340 P.3   368  NAP368      0.5328
     46  O1X        0.6160    8.0670   54.1260 O.3   368  NAP368     -0.1145
     47  O2X        0.7050    8.9080   51.8080 O.2   368  NAP368     -0.2224
     48  O3X        2.6350    9.2240   53.3130 O.3   368  NAP368     -0.1145
@<TRIPOS>BOND
     1    34    33    1
     2     2     1    2
     3    33    31    1
     4    33    35    1
     5    32    31    1
     6    31    29    1
     7    41    39   am
     8    40    39    2
     9    23     1    1
    10    23    24    1
    11    25    24    2
    12    39    38    1
    13     1     3    1
    14     1     4    1
    15    37    38    1
    16    37    36    1
    17    38    42    2
    18    27    24    1
    19    27    28    1
    20    35    36    1
    21    35    30    1
    22    36    44    1
    23    24    26    1
    24    42    43    1
    25    15    14    1
    26    15    16    2
    27    14    13    1
    28    44    43    2
    29    29    28    1
    30    29    30    1
    31     5     4    1
    32     5     6    1
    33    47    45    2
    34    18    17    1
    35    16    17    1
    36    16    22    1
    37    13    12    1
    38    13    22    1
    39     6     7    1
    40     6     8    1
    41     7    12    1
    42    17    19    2
    43    10     8    1
    44    10    12    1
    45    10    11    1
    46     8     9    1
    47    45    48    1
    48    45    11    1
    49    45    46    1
    50    22    21    2
    51    19    20    1
    52    21    20    1
