@<TRIPOS>MOLECULE
3pzc_COA_B_1.pdb
 35 37 0 0 0
SMALL
GASTEIGER

@<TRIPOS>ATOM
      1  N1A      115.4840   17.6080   14.9570 N.2   1001  COA1001     0.0021
      2  C2A      115.9830   16.8660   13.9060 C.3   1001  COA1001     0.5254
      3  N3A      117.0800   17.3220   13.2180 N.2   1001  COA1001    -0.0055
      4  C4A      117.6470   18.4930   13.5700 C.2   1001  COA1001     0.3518
      5  C5A      117.1540   19.2500   14.6180 C.2   1001  COA1001     0.2526
      6  C6A      116.0550   18.7970   15.3210 C.2   1001  COA1001     0.4393
      7  N6A      115.4830   19.5590   16.2570 N.pl3 1001  COA1001     0.2180
      8  N7A      117.9250   20.3590   14.7360 N.2   1001  COA1001    -0.2095
      9  C8A      118.8820   20.3190   13.7820 C.3   1001  COA1001     0.3377
     10  N9A      118.7140   19.1670   13.0540 N.pl3 1001  COA1001    -0.1439
     11  C1B      119.4910   18.7090   11.8970 C.3   1001  COA1001     0.3185
     12  C2B      120.0880   19.8950   11.1470 C.3   1001  COA1001     0.2543
     13  O2B      119.6700   19.8770    9.8050 O.3   1001  COA1001    -0.2131
     14  C3B      121.5810   19.6540   11.2070 C.3   1001  COA1001     0.1928
     15  O3B      122.2330   19.8830    9.9940 O.3   1001  COA1001    -0.2673
     16  P3B      123.4110   20.9490   10.0610 P.3   1001  COA1001     0.5327
     17  O7A      122.7970   22.3210    9.9570 O.3   1001  COA1001    -0.1145
     18  O8A      124.3260   20.7120    8.8850 O.2   1001  COA1001    -0.2224
     19  O9A      124.1400   20.8270   11.3740 O.3   1001  COA1001    -0.1145
     20  C4B      121.7280   18.2080   11.6120 C.3   1001  COA1001     0.1795
     21  O4B      120.5630   17.9050   12.3600 O.3   1001  COA1001    -0.3136
     22  C5B      123.0180   18.0530   12.3990 C.3   1001  COA1001     0.1812
     23  O5B      122.9590   16.8780   13.1610 O.3   1001  COA1001    -0.3112
     24  P1A      123.7930   15.5970   12.6740 P.3   1001  COA1001     0.2189
     25  O1A      125.2730   15.7640   12.9180 O.3   1001  COA1001    -0.4371
     26  O2A      123.4890   15.3000   11.2190 O.2   1001  COA1001    -0.5170
     27  O3A      123.1670   14.4910   13.6490 O.3   1001  COA1001    -0.2703
     28  P2A      121.8550   13.7200   13.1640 P.3   1001  COA1001     0.2188
     29  O4A      121.3120   14.3470   11.9040 O.2   1001  COA1001    -0.5170
     30  O5A      120.8220   13.7040   14.2630 O.3   1001  COA1001    -0.4371
     31  O6A      122.4210   12.2590   12.7940 O.3   1001  COA1001    -0.3139
     32  CBP      121.8740   10.0720   11.9570 C.3   1001  COA1001     0.0301
     33  CCP      121.8720   11.5700   11.6960 C.3   1001  COA1001     0.1491
     34  CDP      120.4500    9.5460   11.8140 C.3   1001  COA1001     0.0026
     35  CEP      122.4450    9.7480   13.3350 C.3   1001  COA1001     0.0026
@<TRIPOS>BOND
     1    18    16    2
     2    13    12    1
     3    17    16    1
     4    15    16    1
     5    15    14    1
     6    16    19    1
     7    12    14    1
     8    12    11    1
     9    14    20    1
    10    26    24    2
    11    20    21    1
    12    20    22    1
    13    33    32    1
    14    33    31    1
    15    34    32    1
    16    11    21    1
    17    11    10    1
    18    29    28    2
    19    32    35    1
    20    22    23    1
    21    24    25    1
    22    24    23    1
    23    24    27    1
    24    31    28    1
    25    10     4    1
    26    10     9    1
    27    28    27    1
    28    28    30    1
    29     3     4    2
    30     3     2    1
    31     4     5    1
    32     9     8    1
    33     2     1    1
    34     5     8    2
    35     5     6    1
    36     1     6    2
    37     6     7    1
