@<TRIPOS>MOLECULE
3pzc_GAP_A_1.pdb
 27 29 0 0 0
SMALL
GASTEIGER

@<TRIPOS>ATOM
      1  N         90.7060   29.5060   10.7600 N.3   1001  GAP1001    -0.1188
      2  CA        91.1850   30.5380    9.7980 C.3   1001  GAP1001     0.2185
      3  C         90.4100   30.4530    8.5040 C.2   1001  GAP1001     0.3406
      4  O         89.2600   30.0260    8.4920 O.2   1001  GAP1001    -0.2482
      5  PA        90.6480   32.1790    6.4470 P.3   1001  GAP1001     0.2723
      6  O1A       89.6740   33.0200    7.2430 O.3   1001  GAP1001    -0.4273
      7  O2A       90.3520   31.8320    5.0090 O.2   1001  GAP1001    -0.5082
      8  O3A       91.0430   30.8420    7.2530 O.3   1001  GAP1001    -0.4090
      9  C5'       92.3810   33.6340    7.6900 C.3   1001  GAP1001     0.1823
     10  O5'       92.0360   32.9870    6.4680 O.3   1001  GAP1001    -0.3024
     11  C4'       93.2470   34.8500    7.3760 C.3   1001  GAP1001     0.1822
     12  O4'       94.5440   34.4710    6.8790 O.3   1001  GAP1001    -0.3135
     13  C3'       92.6440   35.7620    6.3210 C.3   1001  GAP1001     0.2184
     14  O3'       91.7960   36.7420    6.9240 O.3   1001  GAP1001    -0.2174
     15  C2'       93.8690   36.4290    5.7410 C.3   1001  GAP1001     0.2570
     16  O2'       94.1460   37.6210    6.4790 O.3   1001  GAP1001    -0.2130
     17  C1'       94.9910   35.4040    5.8920 C.3   1001  GAP1001     0.3186
     18  N9        95.1300   34.6970    4.5980 N.pl3 1001  GAP1001    -0.1439
     19  C8        94.3140   33.7290    4.1330 C.3   1001  GAP1001     0.3377
     20  N7        94.7240   33.3070    2.9130 N.2   1001  GAP1001    -0.2095
     21  C5        95.8160   34.0200    2.5800 C.2   1001  GAP1001     0.2526
     22  C6        96.7450   34.0820    1.4330 C.2   1001  GAP1001     0.4393
     23  N6        96.5840   33.2720    0.3640 N.pl3 1001  GAP1001     0.2180
     24  N1        97.7630   34.9650    1.4910 N.2   1001  GAP1001     0.0021
     25  C2        97.9480   35.7690    2.5530 C.3   1001  GAP1001     0.5254
     26  N3        97.1410   35.7730    3.6290 N.2   1001  GAP1001    -0.0055
     27  C4        96.0820   34.9320    3.7000 C.2   1001  GAP1001     0.3518
@<TRIPOS>BOND
     1    23    22    1
     2    22    24    2
     3    22    21    1
     4    24    25    1
     5    25    26    1
     6    21    20    2
     7    21    27    1
     8    20    19    1
     9    26    27    2
    10    27    18    1
    11    19    18    1
    12    18    17    1
    13     7     5    2
    14    15    17    1
    15    15    13    1
    16    15    16    1
    17    17    12    1
    18    13    14    1
    19    13    11    1
    20     5    10    1
    21     5     6    1
    22     5     8    1
    23    10     9    1
    24    12    11    1
    25     8     3    1
    26    11     9    1
    27     4     3    2
    28     3     2    1
    29     2     1    1
