@<TRIPOS>MOLECULE
3pze_CFK_A_1.pdb
 18 19 0 0 0
SMALL
GASTEIGER

@<TRIPOS>ATOM
      1  C1        23.5360   14.2810   31.5220 C.ar    1  CFK1        0.0000
      2  C2        22.1550   14.2380   31.7380 C.ar    1  CFK1        0.0000
      3  C3        21.5100   13.0090   31.8560 C.ar    1  CFK1        0.0005
      4  C4        22.2540   11.8100   31.7580 C.ar    1  CFK1        0.0060
      5  C5        23.6520   11.8720   31.5680 C.ar    1  CFK1        0.0005
      6  C6        24.2810   13.1050   31.4380 C.ar    1  CFK1        0.0000
      7  C7        21.5680   10.5020   31.9220 C.ar    1  CFK1        0.0309
      8  C8        22.0470    9.2850   31.5490 C.ar    1  CFK1        0.0238
      9  C9        21.2260    8.2030   31.8230 C.ar    1  CFK1        0.0860
     10  C10       20.0570    8.5370   32.4900 C.ar    1  CFK1        0.1014
     11  S11       20.0240   10.2850   32.7310 S.2     1  CFK1       -0.0810
     12  C12       19.0250    7.6410   32.9030 C.2     1  CFK1        0.2915
     13  O13       19.1190    6.4500   32.6920 O.2     1  CFK1       -0.2661
     14  N14       17.8990    8.0870   33.5020 N.am    1  CFK1       -0.0832
     15  N15       21.5960    6.8660   31.5700 N.am    1  CFK1       -0.1589
     16  C16       22.5250    6.4240   30.6860 C.2     1  CFK1        0.3632
     17  O17       23.1370    7.1730   29.9430 O.2     1  CFK1       -0.2471
     18  N18       22.7730    5.1010   30.6280 N.am    1  CFK1       -0.0676
@<TRIPOS>BOND
     1    17    16    2
     2    18    16   am
     3    16    15   am
     4     6     1   ar
     5     6     5   ar
     6     1     2   ar
     7     8     9   ar
     8     8     7   ar
     9     5     4   ar
    10    15     9    1
    11     2     3   ar
    12     4     3   ar
    13     4     7    1
    14     9    10   ar
    15     7    11   ar
    16    10    11   ar
    17    10    12    1
    18    13    12    2
    19    12    14   am
