@<TRIPOS>MOLECULE
3pzh_EMO_A_1.pdb
 20 22 0 0 0
SMALL
GASTEIGER

@<TRIPOS>ATOM
      1  C1        22.4420    8.3740   16.4120 C.ar    1  EMO1        0.2020
      2  O1        21.7200    9.5240   16.5620 O.3     1  EMO1       -0.2864
      3  C2        23.0480    8.1000   15.1850 C.ar    1  EMO1        0.0841
      4  C3        23.7780    6.9240   15.0250 C.ar    1  EMO1        0.1990
      5  O3        24.3670    6.6480   13.8320 O.3     1  EMO1       -0.2865
      6  C4        23.8990    6.0280   16.0870 C.ar    1  EMO1        0.0455
      7  C5        23.2920    6.3020   17.3140 C.ar    1  EMO1        0.0483
      8  C6        23.4130    5.4070   18.3820 C.2     1  EMO1        0.1960
      9  O6        24.0630    4.3660   18.2550 O.2     1  EMO1       -0.2866
     10  C7        22.7990    5.6770   19.6110 C.ar    1  EMO1        0.0448
     11  C8        22.9250    4.7610   20.6610 C.ar    1  EMO1       -0.0008
     12  C9        22.3270    5.0120   21.8930 C.ar    1  EMO1       -0.0186
     13  C10       22.4750    4.0040   23.0440 C.3     1  EMO1        0.0311
     14  C16       21.5840    6.1730   22.0800 C.ar    1  EMO1        0.0379
     15  C17       21.4510    7.0890   21.0430 C.ar    1  EMO1        0.1985
     16  O17       20.7150    8.2150   21.2770 O.3     1  EMO1       -0.2865
     17  C18       22.0580    6.8470   19.7890 C.ar    1  EMO1        0.0810
     18  C19       21.9380    7.7460   18.7120 C.2     1  EMO1        0.2019
     19  O19       21.2900    8.7890   18.8500 O.2     1  EMO1       -0.2864
     20  C20       22.5580    7.4760   17.4770 C.ar    1  EMO1        0.0812
@<TRIPOS>BOND
     1     5     4    1
     2     4     3   ar
     3     4     6   ar
     4     3     1   ar
     5     6     7   ar
     6     1     2    1
     7     1    20   ar
     8     7    20   ar
     9     7     8    1
    10    20    18    1
    11     9     8    2
    12     8    10    1
    13    18    19    2
    14    18    17    1
    15    10    17   ar
    16    10    11   ar
    17    17    15   ar
    18    11    12   ar
    19    15    16    1
    20    15    14   ar
    21    12    14   ar
    22    12    13    1
