@<TRIPOS>MOLECULE
3pzi_BGC_A_1.pdb
 12 12 0 0 0
SMALL
GASTEIGER

@<TRIPOS>ATOM
      1  C2        -3.1960   25.2070  -19.1480 C.3     1  BGC1        0.2434
      2  C3        -4.5940   25.8370  -19.3600 C.3     1  BGC1        0.2199
      3  C4        -4.4720   27.3720  -19.4440 C.3     1  BGC1        0.2144
      4  C5        -3.4740   27.7620  -20.5260 C.3     1  BGC1        0.1836
      5  C6        -2.9850   29.2970  -20.5800 C.3     1  BGC1        0.2142
      6  C1        -2.1910   25.7310  -20.1600 C.3     1  BGC1        0.3024
      7  O1        -0.8790   25.3770  -19.7610 O.3     1  BGC1       -0.1869
      8  O2        -3.2000   23.7760  -19.0590 O.3     1  BGC1       -0.2148
      9  O3        -5.4360   25.3960  -18.2650 O.3     1  BGC1       -0.2174
     10  O4        -5.7160   27.9770  -19.8070 O.3     1  BGC1       -0.2176
     11  O5        -2.2240   27.1660  -20.2260 O.3     1  BGC1       -0.3236
     12  O6        -1.7310   29.3100  -21.3440 O.3     1  BGC1       -0.2176
@<TRIPOS>BOND
     1    12     5    1
     2     5     4    1
     3     4    11    1
     4     4     3    1
     5    11     6    1
     6     6     7    1
     7     6     1    1
     8    10     3    1
     9     3     2    1
    10     2     1    1
    11     2     9    1
    12     1     8    1
