@<TRIPOS>MOLECULE
3pzn_CIT_A_1.pdb
 13 12 0 0 0
SMALL
GASTEIGER

@<TRIPOS>ATOM
      1  C1        -6.7040   20.1290  -42.3720 C.2     1  CIT1        0.3680
      2  O1        -7.3940   19.6310  -43.2900 O.co2   1  CIT1       -0.2455
      3  O2        -5.8900   19.4150  -41.7870 O.co2   1  CIT1       -0.2455
      4  C2        -6.8970   21.5580  -41.9770 C.3     1  CIT1        0.1560
      5  C3        -6.3670   22.5040  -43.0380 C.3     1  CIT1        0.2402
      6  O7        -4.9440   22.2780  -43.1000 O.3     1  CIT1       -0.2129
      7  C4        -6.7720   23.9920  -42.7290 C.3     1  CIT1        0.1560
      8  C5        -6.0970   25.0090  -43.6630 C.2     1  CIT1        0.3680
      9  O3        -6.3960   26.2110  -43.4420 O.co2   1  CIT1       -0.2455
     10  O4        -5.2590   24.7690  -44.6450 O.co2   1  CIT1       -0.2455
     11  C6        -6.9100   22.1570  -44.4350 C.2     1  CIT1        0.3927
     12  O5        -8.1430   22.1400  -44.6680 O.co2   1  CIT1       -0.2429
     13  O6        -6.0740   21.8730  -45.3100 O.co2   1  CIT1       -0.2429
@<TRIPOS>BOND
     1    13    11   ar
     2    12    11   ar
     3    10     8   ar
     4    11     5    1
     5     8     9   ar
     6     8     7    1
     7     2     1   ar
     8     6     5    1
     9     5     7    1
    10     5     4    1
    11     1     4    1
    12     1     3   ar
