@<TRIPOS>MOLECULE
3pzo_MAL_A_1.pdb
 23 24 0 0 0
SMALL
GASTEIGER

@<TRIPOS>ATOM
      1  C1       -16.0870   -5.0730   13.8890 C.3   403  MAL403      0.2695
      2  C2       -16.2360   -4.4790   15.3340 C.3   403  MAL403      0.2406
      3  C3       -15.8500   -5.5150   16.4440 C.3   403  MAL403      0.2198
      4  C4       -16.2400   -6.9870   16.1500 C.3   403  MAL403      0.2144
      5  C5       -15.9840   -7.4240   14.6980 C.3   403  MAL403      0.1835
      6  C6       -16.4690   -8.8710   14.4470 C.3   403  MAL403      0.2142
      7  O1       -14.6580   -5.1390   13.6100 O.3   403  MAL403     -0.3257
      8  O2       -15.4190   -3.2670   15.5160 O.3   403  MAL403     -0.2149
      9  O3       -16.2050   -5.1310   17.8090 O.3   403  MAL403     -0.2174
     10  O4       -15.4910   -7.8480   17.0080 O.3   403  MAL403     -0.2176
     11  O5       -16.6140   -6.4530   13.7770 O.3   403  MAL403     -0.3256
     12  O6       -17.9010   -8.8030   14.4660 O.3   403  MAL403     -0.2176
     13  C1'      -11.9530   -4.4770   10.5930 C.3   403  MAL403      0.3023
     14  C2'      -12.2540   -3.3270   11.5530 C.3   403  MAL403      0.2433
     15  C3'      -12.9220   -3.7750   12.8660 C.3   403  MAL403      0.2168
     16  C4'      -14.1550   -4.5510   12.4190 C.3   403  MAL403      0.1804
     17  C5'      -13.8910   -5.7000   11.3800 C.3   403  MAL403      0.1804
     18  C6'      -15.2260   -6.3590   10.9720 C.3   403  MAL403      0.2141
     19  O1'      -11.1030   -5.3840   11.3470 O.3   403  MAL403     -0.1869
     20  O2'      -11.0160   -2.7850   11.9660 O.3   403  MAL403     -0.2148
     21  O3'      -13.4030   -2.6910   13.7130 O.3   403  MAL403     -0.2175
     22  O5'      -13.1210   -5.2600   10.2180 O.3   403  MAL403     -0.3237
     23  O6'      -15.0180   -7.5080   10.1190 O.3   403  MAL403     -0.2176
@<TRIPOS>BOND
     1    23    18    1
     2    22    13    1
     3    22    17    1
     4    13    19    1
     5    13    14    1
     6    18    17    1
     7    17    16    1
     8    14    20    1
     9    14    15    1
    10    16    15    1
    11    16     7    1
    12    15    21    1
    13     7     1    1
    14    11     1    1
    15    11     5    1
    16     1     2    1
    17     6    12    1
    18     6     5    1
    19     5     4    1
    20     2     8    1
    21     2     3    1
    22     4     3    1
    23     4    10    1
    24     3     9    1
