@<TRIPOS>MOLECULE
3pzp_DTP_A_1.pdb
 30 32 0 0 0
SMALL
GASTEIGER

@<TRIPOS>ATOM
      1  PG        47.1410   18.0220   70.6100 P.3     1  DTP1        0.5373
      2  O1G       46.0750   16.9920   70.3640 O.2     1  DTP1       -0.2221
      3  O2G       46.5830   19.2310   71.2890 O.3     1  DTP1       -0.1143
      4  O3G       48.4050   17.5250   71.2450 O.3     1  DTP1       -0.1143
      5  PB        47.0870   17.7320   67.7990 P.3     1  DTP1        0.2277
      6  O1B       46.7960   16.2730   68.0130 O.3     1  DTP1       -0.4368
      7  O2B       48.0170   18.1060   66.6880 O.2     1  DTP1       -0.5168
      8  O3B       47.6090   18.4730   69.1360 O.3     1  DTP1       -0.2258
      9  PA        44.2080   17.9480   67.6120 P.3     1  DTP1        0.2189
     10  O1A       44.1030   16.6990   68.4340 O.3     1  DTP1       -0.4371
     11  O2A       43.3200   19.1380   67.8840 O.2     1  DTP1       -0.5170
     12  O3A       45.7080   18.5190   67.6050 O.3     1  DTP1       -0.2700
     13  O5'       44.0250   17.6550   66.0580 O.3     1  DTP1       -0.3112
     14  C5'       44.6370   16.5290   65.4690 C.3     1  DTP1        0.1813
     15  C4'       45.2780   16.8690   64.1340 C.3     1  DTP1        0.1795
     16  O4'       44.2930   17.2990   63.1970 O.3     1  DTP1       -0.3155
     17  C3'       46.3150   17.9680   64.1270 C.3     1  DTP1        0.1883
     18  O3'       47.5750   17.4580   64.5150 O.3     1  DTP1       -0.2202
     19  C2'       46.3220   18.4000   62.6760 C.3     1  DTP1        0.1151
     20  C1'       44.8740   18.1980   62.2580 C.3     1  DTP1        0.2873
     21  N9        44.2360   19.5020   62.3890 N.pl3   1  DTP1       -0.1460
     22  C8        43.8100   20.0330   63.5360 C.3     1  DTP1        0.3377
     23  N7        43.3010   21.2670   63.3280 N.2     1  DTP1       -0.2095
     24  C5        43.4100   21.5190   62.0320 C.2     1  DTP1        0.2526
     25  C6        43.0640   22.6460   61.1740 C.2     1  DTP1        0.4393
     26  N6        42.4880   23.7500   61.6750 N.pl3   1  DTP1        0.2180
     27  N1        43.3390   22.5320   59.8760 N.2     1  DTP1        0.0021
     28  C2        43.9140   21.4190   59.3700 C.3     1  DTP1        0.5254
     29  N3        44.2570   20.3440   60.1080 N.2     1  DTP1       -0.0055
     30  C4        44.0320   20.3540   61.4230 C.2     1  DTP1        0.3518
@<TRIPOS>BOND
     1    28    27    1
     2    28    29    1
     3    27    25    2
     4    29    30    2
     5    25    26    1
     6    25    24    1
     7    30    24    1
     8    30    21    1
     9    24    23    2
    10    20    21    1
    11    20    19    1
    12    20    16    1
    13    21    22    1
    14    19    17    1
    15    16    15    1
    16    23    22    1
    17    17    15    1
    18    17    18    1
    19    15    14    1
    20    14    13    1
    21    13     9    1
    22     7     5    2
    23    12     9    1
    24    12     5    1
    25     9    11    2
    26     9    10    1
    27     5     6    1
    28     5     8    1
    29     8     1    1
    30     2     1    2
    31     1     4    1
    32     1     3    1
