@<TRIPOS>MOLECULE
3pzq_MAL_A_1.pdb
 23 24 0 0 0
SMALL
GASTEIGER

@<TRIPOS>ATOM
      1  C1        -7.7660   22.7030   15.9450 C.3   394  MAL394      0.2695
      2  C2        -6.8640   23.6330   15.1370 C.3   394  MAL394      0.2406
      3  C3        -5.8130   22.8090   14.3430 C.3   394  MAL394      0.2198
      4  C4        -4.9410   21.9470   15.2890 C.3   394  MAL394      0.2144
      5  C5        -5.8440   21.1440   16.2810 C.3   394  MAL394      0.1835
      6  C6        -4.9960   20.6110   17.4570 C.3   394  MAL394      0.2142
      7  O1        -8.4260   21.9600   14.8860 O.3   394  MAL394     -0.3257
      8  O2        -7.7540   24.2180   14.1780 O.3   394  MAL394     -0.2149
      9  O3        -5.0210   23.7190   13.5590 O.3   394  MAL394     -0.2174
     10  O4        -3.9770   21.0880   14.5880 O.3   394  MAL394     -0.2176
     11  O5        -7.0220   21.8400   16.8450 O.3   394  MAL394     -0.3256
     12  O6        -6.0130   20.0440   18.2730 O.3   394  MAL394     -0.2176
     13  C1'      -12.3710   20.6090   14.6110 C.3   394  MAL394      0.3023
     14  C2'      -11.9830   21.9690   13.9420 C.3   394  MAL394      0.2433
     15  C3'      -10.4820   22.1670   13.8120 C.3   394  MAL394      0.2168
     16  C4'       -9.7980   21.6710   15.0960 C.3   394  MAL394      0.1804
     17  C5'       -9.9680   20.1640   15.2680 C.3   394  MAL394      0.1804
     18  C6'       -9.3030   19.5900   16.5390 C.3   394  MAL394      0.2141
     19  O1'      -13.1480   19.7680   13.7510 O.3   394  MAL394     -0.1869
     20  O2'      -12.6540   22.2990   12.6830 O.3   394  MAL394     -0.2148
     21  O3'      -10.1890   23.5780   13.6940 O.3   394  MAL394     -0.2175
     22  O5'      -11.3410   19.7890   15.2460 O.3   394  MAL394     -0.3237
     23  O6'      -10.1070   19.9550   17.6600 O.3   394  MAL394     -0.2176
@<TRIPOS>BOND
     1    20    14    1
     2     9     3    1
     3    21    15    1
     4    19    13    1
     5    15    14    1
     6    15    16    1
     7    14    13    1
     8     8     2    1
     9     3     2    1
    10     3     4    1
    11    10     4    1
    12    13    22    1
    13     7    16    1
    14     7     1    1
    15    16    17    1
    16     2     1    1
    17    22    17    1
    18    17    18    1
    19     4     5    1
    20     1    11    1
    21     5    11    1
    22     5     6    1
    23    18    23    1
    24     6    12    1
