@<TRIPOS>MOLECULE
3pzr_NAP_A_1.pdb
 48 52 0 0 0
SMALL
GASTEIGER

@<TRIPOS>ATOM
      1  PA        19.1460   51.3480   37.1330 P.3   372  NAP372      0.2189
      2  O1A       20.3370   51.1880   36.2660 O.2   372  NAP372     -0.5170
      3  O2A       19.5260   51.3900   38.5650 O.3   372  NAP372     -0.4371
      4  O5B       18.3670   52.6880   36.7160 O.3   372  NAP372     -0.3112
      5  C5B       17.1580   53.0430   37.3410 C.3   372  NAP372      0.1813
      6  C4B       17.1680   54.5320   37.6560 C.3   372  NAP372      0.1820
      7  O4B       18.1720   54.8540   38.5990 O.3   372  NAP372     -0.3136
      8  C3B       17.4810   55.4080   36.4540 C.3   372  NAP372      0.2157
      9  O3B       16.3430   55.6150   35.6530 O.3   372  NAP372     -0.2175
     10  C2B       17.9750   56.6830   37.1020 C.3   372  NAP372      0.2314
     11  O2B       16.8670   57.4980   37.4040 O.3   372  NAP372     -0.2630
     12  C1B       18.6080   56.1890   38.4020 C.3   372  NAP372      0.3158
     13  N9A       20.0930   56.2530   38.4180 N.pl3 372  NAP372     -0.1439
     14  C8A       20.8410   56.3540   39.5640 C.3   372  NAP372      0.3377
     15  N7A       22.1540   56.3880   39.2400 N.2   372  NAP372     -0.2095
     16  C5A       22.2660   56.3100   37.8960 C.2   372  NAP372      0.2526
     17  C6A       23.3730   56.3030   37.0480 C.2   372  NAP372      0.4393
     18  N6A       24.6050   56.3850   37.5440 N.pl3 372  NAP372      0.2180
     19  N1A       23.1920   56.2100   35.6820 N.2   372  NAP372      0.0021
     20  C2A       21.9140   56.1270   35.1630 C.3   372  NAP372      0.5254
     21  N3A       20.8210   56.1320   36.0110 N.2   372  NAP372     -0.0055
     22  C4A       20.9810   56.2220   37.3610 C.2   372  NAP372      0.3518
     23  O3        18.0900   50.1680   36.8350 O.3   372  NAP372     -0.2703
     24  PN        18.1300   48.9710   35.7550 P.3   372  NAP372      0.2189
     25  O1N       18.2230   49.5800   34.4130 O.2   372  NAP372     -0.5170
     26  O2N       19.1610   47.9980   36.1910 O.3   372  NAP372     -0.4371
     27  O5D       16.6760   48.2700   35.8520 O.3   372  NAP372     -0.3112
     28  C5D       15.8910   48.3010   37.0220 C.3   372  NAP372      0.1813
     29  C4D       16.0640   46.9830   37.7670 C.3   372  NAP372      0.1799
     30  O4D       17.3100   46.9770   38.4460 O.3   372  NAP372     -0.3327
     31  C3D       14.9630   46.7860   38.7970 C.3   372  NAP372      0.2158
     32  O3D       14.1340   45.7070   38.4180 O.3   372  NAP372     -0.2175
     33  C2D       15.6780   46.5320   40.1170 C.3   372  NAP372      0.2309
     34  O2D       15.4520   45.2190   40.5840 O.3   372  NAP372     -0.2158
     35  C1D       17.1630   46.7430   39.8380 C.3   372  NAP372      0.2263
     36  N1N       17.7180   47.8730   40.6250 N.pl3 372  NAP372     -0.2787
     37  C2N       18.6010   47.6050   41.6430 C.3   372  NAP372      0.1244
     38  C3N       19.1530   48.6380   42.4050 C.2   372  NAP372      0.0544
     39  C7N       20.4170   48.3790   43.1760 C.2   372  NAP372      0.2818
     40  O7N       21.4030   47.5320   42.6260 O.2   372  NAP372     -0.2670
     41  N7N       20.5800   48.9580   44.3660 N.am  372  NAP372     -0.0839
     42  C4N       18.7930   49.9570   42.1240 C.2   372  NAP372      0.0033
     43  C5N       17.8980   50.2280   41.0900 C.2   372  NAP372      0.0157
     44  C6N       17.3680   49.1750   40.3460 C.2   372  NAP372      0.0633
     45  P2B       16.9590   59.1010   37.3360 P.3   372  NAP372      0.5328
     46  O1X       15.6300   59.6500   37.7900 O.3   372  NAP372     -0.1145
     47  O2X       17.2500   59.5390   35.9240 O.2   372  NAP372     -0.2224
     48  O3X       18.0470   59.5840   38.2630 O.3   372  NAP372     -0.1145
@<TRIPOS>BOND
     1    25    24    2
     2    20    19    1
     3    20    21    1
     4     9     8    1
     5    19    17    2
     6    24    27    1
     7    24    26    1
     8    24    23    1
     9    27    28    1
    10    47    45    2
    11    21    22    2
    12     2     1    2
    13     8    10    1
    14     8     6    1
    15     4     1    1
    16     4     5    1
    17    23     1    1
    18    28    29    1
    19    17    18    1
    20    17    16    1
    21    10    11    1
    22    10    12    1
    23     1     3    1
    24    45    11    1
    25    45    46    1
    26    45    48    1
    27     5     6    1
    28    22    16    1
    29    22    13    1
    30     6     7    1
    31    29    30    1
    32    29    31    1
    33    16    15    2
    34    12    13    1
    35    12     7    1
    36    13    14    1
    37    32    31    1
    38    30    35    1
    39    31    33    1
    40    15    14    1
    41    35    33    1
    42    35    36    1
    43    33    34    1
    44    44    36    1
    45    44    43    2
    46    36    37    1
    47    43    42    1
    48    37    38    1
    49    42    38    2
    50    38    39    1
    51    40    39    2
    52    39    41   am
