@<TRIPOS>MOLECULE
3q00_PMJ_A_1.pdb
 36 37 0 0 0
SMALL
GASTEIGER

@<TRIPOS>ATOM
      1  C7        26.0230   25.8170    2.0680 C.3   481  PMJ481      0.1969
      2  S8        26.9930   25.7790    3.6210 S.O2  481  PMJ481      0.0620
      3  C4        26.0680   27.1340    1.2540 C.ar  481  PMJ481      0.0030
      4  C5        25.6640   28.3610    1.8130 C.ar  481  PMJ481     -0.0025
      5  C6        25.7120   29.5410    1.0530 C.ar  481  PMJ481     -0.0003
      6  C1        26.1520   29.5000   -0.2780 C.ar  481  PMJ481     -0.0000
      7  C2        26.5430   28.2770   -0.8420 C.ar  481  PMJ481     -0.0003
      8  C3        26.5000   27.0960   -0.0820 C.ar  481  PMJ481     -0.0025
      9  O10       26.3230   24.8580    4.5960 O.2   481  PMJ481     -0.1558
     10  O9        27.0280   27.1400    4.2220 O.2   481  PMJ481     -0.1558
     11  N11       28.5390   25.2850    3.2980 N.3   481  PMJ481     -0.0738
     12  C12       29.5630   25.9390    4.1480 C.3   481  PMJ481      0.1749
     13  C30       30.8320   26.2560    3.3460 C.3   481  PMJ481      0.0324
     14  C31       31.3220   25.0500    2.5490 C.3   481  PMJ481      0.0489
     15  C32       32.1640   25.4560    1.3310 C.3   481  PMJ481      0.2205
     16  N33       33.3460   26.2410    1.7230 N.pl3 481  PMJ481     -0.0865
     17  C34       34.5610   25.6860    1.9010 C.cat 481  PMJ481      0.5346
     18  N35       35.5810   26.4620    2.2260 N.pl3 481  PMJ481      0.1354
     19  N37       34.7750   24.3680    1.8090 N.pl3 481  PMJ481      0.1354
     20  C13       29.9450   24.9880    5.2890 C.2   481  PMJ481      0.2595
     21  O14       29.7550   23.7880    5.1610 O.2   481  PMJ481     -0.2718
     22  N15       30.4930   25.5440    6.3670 N.am  481  PMJ481     -0.1942
     23  C16       30.8420   24.7330    7.5530 C.3   481  PMJ481      0.2014
     24  C17       29.5070   24.1650    8.0650 C.2   481  PMJ481      0.2638
     25  O18       28.4560   24.8080    7.9090 O.2   481  PMJ481     -0.2714
     26  N19       29.5550   22.9340    8.6030 N.am  481  PMJ481     -0.1991
     27  C20       28.3360   22.2680    9.0920 C.3   481  PMJ481      0.1415
     28  C21       27.8550   21.2390    8.0510 C.ar  481  PMJ481     -0.0006
     29  C26       27.5760   21.6230    6.7430 C.ar  481  PMJ481     -0.0023
     30  C25       27.1360   20.6620    5.8420 C.ar  481  PMJ481      0.0077
     31  C24       26.9800   19.3090    6.1800 C.ar  481  PMJ481      0.0975
     32  C27       26.5560   18.3540    5.2320 C.2   481  PMJ481      0.4766
     33  N28       26.9140   17.0780    5.3240 N.pl3 481  PMJ481      0.2047
     34  N29       25.8140   18.6910    4.1620 N.pl3 481  PMJ481      0.2047
     35  C23       27.2440   18.9360    7.5000 C.ar  481  PMJ481      0.0077
     36  C22       27.6710   19.9020    8.4110 C.ar  481  PMJ481     -0.0023
@<TRIPOS>BOND
     1     7     6   ar
     2     7     8   ar
     3     6     5   ar
     4     8     3   ar
     5     5     4   ar
     6     3     4   ar
     7     3     1    1
     8    15    16    1
     9    15    14    1
    10    16    17    2
    11    19    17    1
    12    17    18    1
    13     1     2    1
    14    14    13    1
    15    11     2    1
    16    11    12    1
    17    13    12    1
    18     2    10    2
    19     2     9    2
    20    12    20    1
    21    34    32    2
    22    21    20    2
    23    32    33    1
    24    32    31    1
    25    20    22   am
    26    30    31   ar
    27    30    29   ar
    28    31    35   ar
    29    22    23    1
    30    29    28   ar
    31    35    36   ar
    32    23    24    1
    33    25    24    2
    34    28    36   ar
    35    28    27    1
    36    24    26   am
    37    26    27    1
