@<TRIPOS>MOLECULE
3q07_YPP_A_1.pdb
 37 39 0 0 0
SMALL
GASTEIGER

@<TRIPOS>ATOM
      1  C         -4.3680  -16.1700   14.5010 C.2   301  YPP301      0.3865
      2  N         -6.1910  -16.4730   12.8560 N.am  301  YPP301     -0.1915
      3  O         -3.8550  -16.4430   15.6100 O.co2 301  YPP301     -0.2437
      4  CA        -5.5820  -17.0080   14.0850 C.3   301  YPP301      0.2237
      5  CB        -5.1880  -18.4810   13.9440 C.3   301  YPP301      0.1514
      6  NAE       -4.2200  -18.6860   12.7980 N.3   301  YPP301     -0.1956
      7  CAG       -4.9310  -19.3030   11.6120 C.3   301  YPP301      0.1857
      8  CAH       -6.0020  -20.2860   12.0690 C.3   301  YPP301      0.0658
      9  SAI       -6.6060  -19.5340   13.5570 S.3   301  YPP301     -0.1211
     10  CAJ       -3.9130  -20.0210   10.7290 C.2   301  YPP301      0.3811
     11  OAK       -2.7390  -20.0680   11.1480 O.co2 301  YPP301     -0.2441
     12  OAL       -4.3340  -20.5120    9.6590 O.co2 301  YPP301     -0.2441
     13  CAM       -7.1130  -20.4120   11.0270 C.3   301  YPP301      0.0129
     14  CAN       -5.3820  -21.6530   12.3740 C.3   301  YPP301      0.0129
     15  CAP       -7.5160  -16.3170   12.7530 C.2   301  YPP301      0.2661
     16  OAQ       -8.3100  -16.5990   13.6480 O.2   301  YPP301     -0.2711
     17  CAR       -8.0080  -15.7050   11.4410 C.3   301  YPP301      0.1965
     18  CAS       -8.0390  -16.7480   10.3130 C.ar  301  YPP301      0.0063
     19  CAT       -7.0970  -16.6900    9.2910 C.ar  301  YPP301     -0.0021
     20  CAU       -7.1310  -17.6190    8.2570 C.ar  301  YPP301     -0.0003
     21  CAV       -8.1130  -18.6030    8.2370 C.ar  301  YPP301     -0.0000
     22  CAW       -9.0670  -18.6530    9.2490 C.ar  301  YPP301     -0.0003
     23  CAX       -9.0310  -17.7230   10.2850 C.ar  301  YPP301     -0.0021
     24  NAY       -9.3590  -15.1370   11.6220 N.am  301  YPP301     -0.1759
     25  CAZ       -9.8390  -14.2420   10.7680 C.2   301  YPP301      0.3301
     26  OBA       -9.1860  -13.8430    9.8040 O.2   301  YPP301     -0.2503
     27  NBB      -11.0680  -13.7370   10.9290 N.am  301  YPP301     -0.2039
     28  CBC      -11.4630  -12.5770   10.0900 C.3   301  YPP301      0.1244
     29  CBD      -12.4090  -11.6690   10.8660 C.3   301  YPP301      0.1158
     30  NBE      -13.5250  -12.4750   11.4000 N.am  301  YPP301     -0.2706
     31  CBF      -13.2630  -13.7150   11.9810 C.2   301  YPP301      0.3034
     32  OBG      -14.1460  -14.2890   12.6220 O.2   301  YPP301     -0.2649
     33  CBH      -12.0060  -14.3020   11.8310 C.2   301  YPP301      0.3099
     34  OBI      -11.7300  -15.3160   12.4710 O.2   301  YPP301     -0.2645
     35  CBJ      -14.9120  -11.9680   11.3310 C.3   301  YPP301      0.0940
     36  CBK      -15.1910  -11.0120   12.4930 C.3   301  YPP301      0.0233
     37  OXT       -3.9850  -15.2810   13.7060 O.co2 301  YPP301     -0.2437
@<TRIPOS>BOND
     1    21    20   ar
     2    21    22   ar
     3    20    19   ar
     4    22    23   ar
     5    19    18   ar
     6    12    10   ar
     7    26    25    2
     8    28    29    1
     9    28    27    1
    10    23    18   ar
    11    18    17    1
    12    10    11   ar
    13    10     7    1
    14    25    27   am
    15    25    24   am
    16    29    30    1
    17    27    33   am
    18    13     8    1
    19    35    30    1
    20    35    36    1
    21    30    31   am
    22    17    24    1
    23    17    15    1
    24     7     8    1
    25     7     6    1
    26    33    31    1
    27    33    34    2
    28    31    32    2
    29     8    14    1
    30     8     9    1
    31    15     2   am
    32    15    16    2
    33     6     5    1
    34     2     4    1
    35     9     5    1
    36    37     1   ar
    37     5     4    1
    38     4     1    1
    39     1     3   ar
