@<TRIPOS>MOLECULE
3q07_WPP_A_1.pdb
 36 39 0 0 0
SMALL
GASTEIGER

@<TRIPOS>ATOM
      1  C         -4.1990  -16.5170   14.0550 C.2   300  WPP300      0.2491
      2  N         -6.2620  -16.3690   12.9940 N.am  300  WPP300     -0.1934
      3  O         -3.6020  -15.4960   13.7620 O.2   300  WPP300     -0.2729
      4  CA        -5.6380  -16.7080   14.2750 C.3   300  WPP300      0.1996
      5  CB        -5.2640  -18.2130   14.4010 C.3   300  WPP300      0.1529
      6  CAC       -9.0980  -17.8130   10.2310 C.ar  300  WPP300     -0.0021
      7  CAE       -3.4610  -18.4500   12.7050 C.3   300  WPP300      0.1888
      8  CAF       -4.3920  -19.6320   12.3390 C.3   300  WPP300      0.0681
      9  CAG       -9.8120  -14.3720   10.8180 C.2   300  WPP300      0.3301
     10  CAH       -3.7990  -20.9480   12.8290 C.3   300  WPP300      0.0131
     11  CAI       -4.6630  -19.6650   10.8400 C.3   300  WPP300      0.0131
     12  CAJ      -11.4630  -12.7560   10.0510 C.3   300  WPP300      0.1244
     13  CAK       -7.5720  -16.4600   12.7750 C.2   300  WPP300      0.2660
     14  CAL      -15.0230  -11.2470   12.4840 C.3   300  WPP300      0.0233
     15  CAM       -8.0780  -15.9030   11.4790 C.3   300  WPP300      0.1965
     16  CAN      -11.8980  -14.4100   11.8230 C.2   300  WPP300      0.3099
     17  CAO       -1.9610  -18.6700   12.5520 C.2   300  WPP300      0.3833
     18  CAP      -13.2520  -13.8450   11.8880 C.2   300  WPP300      0.3034
     19  CAQ      -14.7560  -12.0630   11.2360 C.3   300  WPP300      0.0940
     20  CAR      -12.3180  -11.8260   10.8930 C.3   300  WPP300      0.1158
     21  CAS       -8.0810  -16.8720   10.3460 C.ar  300  WPP300      0.0063
     22  CAT       -7.1220  -16.7660    9.3430 C.ar  300  WPP300     -0.0021
     23  CAU       -7.1450  -17.6410    8.2590 C.ar  300  WPP300     -0.0003
     24  CAV       -8.1390  -18.6070    8.1630 C.ar  300  WPP300     -0.0000
     25  CAW       -9.1260  -18.6890    9.1430 C.ar  300  WPP300     -0.0003
     26  NAY       -9.4080  -15.3220   11.6400 N.am  300  WPP300     -0.1759
     27  NAZ      -11.0460  -13.8500   10.9340 N.am  300  WPP300     -0.2039
     28  NBA      -13.4320  -12.6480   11.3560 N.am  300  WPP300     -0.2706
     29  NBB       -3.9140  -17.7910   13.9380 N.am  300  WPP300     -0.2594
     30  OBC       -8.3530  -16.8770   13.5980 O.2   300  WPP300     -0.2711
     31  OBE       -1.4350  -18.4590   11.4310 O.co2 300  WPP300     -0.2438
     32  OBF       -1.2680  -18.9770   13.5510 O.co2 300  WPP300     -0.2438
     33  OBG       -9.0710  -13.9980    9.9230 O.2   300  WPP300     -0.2503
     34  OBH      -14.1730  -14.4770   12.4020 O.2   300  WPP300     -0.2649
     35  OBI      -11.6210  -15.3700   12.5240 O.2   300  WPP300     -0.2645
     36  SBJ       -5.9110  -19.3110   13.1990 S.3   300  WPP300     -0.1184
@<TRIPOS>BOND
     1    24    23   ar
     2    24    25   ar
     3    23    22   ar
     4    25     6   ar
     5    22    21   ar
     6    33     9    2
     7    12    20    1
     8    12    27    1
     9     6    21   ar
    10    21    15    1
    11     9    27   am
    12     9    26   am
    13    11     8    1
    14    20    28    1
    15    27    16   am
    16    19    28    1
    17    19    14    1
    18    28    18   am
    19    31    17   ar
    20    15    26    1
    21    15    13    1
    22    16    18    1
    23    16    35    2
    24    18    34    2
    25     8     7    1
    26     8    10    1
    27     8    36    1
    28    17     7    1
    29    17    32   ar
    30     7    29    1
    31    13     2   am
    32    13    30    2
    33     2     4    1
    34    36     5    1
    35     3     1    2
    36    29     1   am
    37    29     5    1
    38     1     4    1
    39     4     5    1
