@<TRIPOS>MOLECULE
3q08_HEM_A_1.pdb
 43 50 0 0 0
SMALL
GASTEIGER

@<TRIPOS>ATOM
      1  CHA      -45.2450  -38.9780   15.5020 C.2   1000  HEM1000     0.0000
      2  CHB      -47.1580  -43.2760   14.8180 C.2   1000  HEM1000     0.0000
      3  CHC      -43.6230  -44.6660   11.9080 C.2   1000  HEM1000     0.0000
      4  CHD      -41.7270  -40.2280   12.4600 C.2   1000  HEM1000     0.0000
      5  C1A      -46.1150  -40.0370   15.5420 C.2   1000  HEM1000     0.0000
      6  C2A      -47.3540  -40.0690   16.2740 C.2   1000  HEM1000     0.0000
      7  C3A      -47.8660  -41.2850   16.0830 C.2   1000  HEM1000     0.0000
      8  C4A      -46.9690  -42.0100   15.2300 C.2   1000  HEM1000     0.0000
      9  CMA      -49.1790  -41.8610   16.6350 C.3   1000  HEM1000     0.0000
     10  CAA      -47.9290  -38.9050   17.1210 C.3   1000  HEM1000     0.0000
     11  CBA      -47.3570  -39.0210   18.5160 C.3   1000  HEM1000     0.0000
     12  CGA      -47.7820  -37.8650   19.3710 C.2   1000  HEM1000     0.0000
     13  O1A      -47.8960  -37.9970   20.5910 O.co2 1000  HEM1000     0.0000
     14  O2A      -47.9880  -36.7370   18.9070 O.co2 1000  HEM1000     0.0000
     15  C1B      -46.3290  -44.0320   14.0460 C.ar  1000  HEM1000     0.0000
     16  C2B      -46.5330  -45.4650   13.7980 C.ar  1000  HEM1000     0.0000
     17  C3B      -45.5400  -45.8220   12.9970 C.ar  1000  HEM1000     0.0000
     18  C4B      -44.7200  -44.6700   12.7120 C.ar  1000  HEM1000     0.0000
     19  CMB      -47.6480  -46.4080   14.3410 C.3   1000  HEM1000     0.0000
     20  CAB      -45.2910  -47.2420   12.4900 C.2   1000  HEM1000     0.0000
     21  CBB      -45.6830  -47.6530   11.2860 C.2   1000  HEM1000     0.0000
     22  C1C      -42.8460  -43.5500   11.7300 C.2   1000  HEM1000     0.0000
     23  C2C      -41.7610  -43.3940   10.7770 C.2   1000  HEM1000     0.0000
     24  C3C      -41.2770  -42.1740   10.9480 C.2   1000  HEM1000     0.0000
     25  C4C      -42.0070  -41.4970   12.0010 C.2   1000  HEM1000     0.0000
     26  CMC      -41.2570  -44.4010    9.7210 C.3   1000  HEM1000     0.0000
     27  CAC      -40.1230  -41.5770   10.1350 C.2   1000  HEM1000     0.0000
     28  CBC      -39.0100  -41.2990   10.8150 C.2   1000  HEM1000     0.0000
     29  C1D      -42.4300  -39.4620   13.3400 C.ar  1000  HEM1000     0.0000
     30  C2D      -42.1460  -38.1210   13.7640 C.ar  1000  HEM1000     0.0000
     31  C3D      -43.2530  -37.7240   14.7240 C.ar  1000  HEM1000     0.0000
     32  C4D      -44.0790  -38.8950   14.7670 C.ar  1000  HEM1000     0.0000
     33  CMD      -40.9780  -37.2440   13.3270 C.3   1000  HEM1000     0.0000
     34  CAD      -43.4970  -36.3860   15.4840 C.3   1000  HEM1000     0.0000
     35  CBD      -44.2440  -35.3850   14.5950 C.3   1000  HEM1000     0.0000
     36  CGD      -44.4010  -34.1050   15.3440 C.2   1000  HEM1000     0.0000
     37  O1D      -45.4590  -33.4540   15.3240 O.co2 1000  HEM1000     0.0000
     38  O2D      -43.4340  -33.6590   15.9860 O.co2 1000  HEM1000     0.0000
     39  NA       -45.9170  -41.2430   14.9000 N.2   1000  HEM1000     0.0000
     40  NB       -45.2180  -43.5680   13.3710 N.ar  1000  HEM1000     0.0000
     41  NC       -42.9730  -42.3670   12.4400 N.2   1000  HEM1000     0.0000
     42  ND       -43.5570  -39.8820   13.9490 N.ar  1000  HEM1000     0.0000
     43 FE        -44.3060  -41.8560   13.6810 Fe    1000  HEM1000     0.0000
@<TRIPOS>BOND
     1    26    23    1
     2    27    28    2
     3    27    24    1
     4    23    24    2
     5    23    22    1
     6    24    25    1
     7    21    20    2
     8    22     3    2
     9    22    41    1
    10     3    18    1
    11    25    41    2
    12    25     4    1
    13    41    43    1
    14     4    29    2
    15    20    17    1
    16    18    17   ar
    17    18    40   ar
    18    17    16   ar
    19    33    30    1
    20    29    30   ar
    21    29    42   ar
    22    40    43    1
    23    40    15   ar
    24    43    42    1
    25    43    39    1
    26    30    31   ar
    27    16    15   ar
    28    16    19    1
    29    42    32   ar
    30    15     2    1
    31    35    36    1
    32    35    34    1
    33    31    32   ar
    34    31    34    1
    35    32     1    2
    36     2     8    2
    37    39     8    1
    38    39     5    2
    39     8     7    1
    40    37    36   ar
    41    36    38   ar
    42     1     5    1
    43     5     6    1
    44     7     6    2
    45     7     9    1
    46     6    10    1
    47    10    11    1
    48    11    12    1
    49    14    12   ar
    50    12    13   ar
