@<TRIPOS>MOLECULE
3q09_HEM_A_1.pdb
 43 50 0 0 0
SMALL
GASTEIGER

@<TRIPOS>ATOM
      1  CHA      -45.1120  -39.1150   15.4310 C.2   1000  HEM1000     0.0000
      2  CHB      -47.0950  -43.4370   14.7200 C.2   1000  HEM1000     0.0000
      3  CHC      -43.4540  -44.7250   11.8880 C.2   1000  HEM1000     0.0000
      4  CHD      -41.5460  -40.2940   12.3830 C.2   1000  HEM1000     0.0000
      5  C1A      -45.9610  -40.2090   15.4600 C.2   1000  HEM1000     0.0000
      6  C2A      -47.1620  -40.2780   16.2620 C.2   1000  HEM1000     0.0000
      7  C3A      -47.6930  -41.4740   16.0740 C.2   1000  HEM1000     0.0000
      8  C4A      -46.8570  -42.1750   15.1550 C.2   1000  HEM1000     0.0000
      9  CMA      -48.9820  -42.0300   16.6930 C.3   1000  HEM1000     0.0000
     10  CAA      -47.7090  -39.1320   17.1550 C.3   1000  HEM1000     0.0000
     11  CBA      -47.1970  -39.3000   18.5600 C.3   1000  HEM1000     0.0000
     12  CGA      -47.6490  -38.1110   19.3510 C.2   1000  HEM1000     0.0000
     13  O1A      -47.7370  -38.1440   20.5620 O.co2 1000  HEM1000     0.0000
     14  O2A      -47.9030  -37.0320   18.8190 O.co2 1000  HEM1000     0.0000
     15  C1B      -46.2300  -44.1680   13.9680 C.ar  1000  HEM1000     0.0000
     16  C2B      -46.3690  -45.5910   13.7000 C.ar  1000  HEM1000     0.0000
     17  C3B      -45.3550  -45.9280   12.9230 C.ar  1000  HEM1000     0.0000
     18  C4B      -44.5640  -44.7470   12.6650 C.ar  1000  HEM1000     0.0000
     19  CMB      -47.4350  -46.5610   14.1960 C.3   1000  HEM1000     0.0000
     20  CAB      -45.0280  -47.3340   12.4180 C.2   1000  HEM1000     0.0000
     21  CBB      -45.5430  -47.7730   11.2780 C.2   1000  HEM1000     0.0000
     22  C1C      -42.6670  -43.6250   11.6780 C.2   1000  HEM1000     0.0000
     23  C2C      -41.5610  -43.4950   10.7530 C.2   1000  HEM1000     0.0000
     24  C3C      -41.0690  -42.2810   10.8770 C.2   1000  HEM1000     0.0000
     25  C4C      -41.8270  -41.5650   11.9060 C.2   1000  HEM1000     0.0000
     26  CMC      -41.0060  -44.5100    9.7460 C.3   1000  HEM1000     0.0000
     27  CAC      -39.8780  -41.7580   10.0220 C.2   1000  HEM1000     0.0000
     28  CBC      -38.7220  -41.4950   10.6250 C.2   1000  HEM1000     0.0000
     29  C1D      -42.2360  -39.5610   13.3010 C.ar  1000  HEM1000     0.0000
     30  C2D      -41.9650  -38.2270   13.7520 C.ar  1000  HEM1000     0.0000
     31  C3D      -43.0850  -37.8480   14.7160 C.ar  1000  HEM1000     0.0000
     32  C4D      -43.9350  -38.9950   14.7230 C.ar  1000  HEM1000     0.0000
     33  CMD      -40.7750  -37.3750   13.3160 C.3   1000  HEM1000     0.0000
     34  CAD      -43.3280  -36.5270   15.4670 C.3   1000  HEM1000     0.0000
     35  CBD      -44.2210  -35.6140   14.5880 C.3   1000  HEM1000     0.0000
     36  CGD      -44.3910  -34.3250   15.3040 C.2   1000  HEM1000     0.0000
     37  O1D      -45.4050  -33.6560   15.3030 O.co2 1000  HEM1000     0.0000
     38  O2D      -43.4620  -33.8450   15.9490 O.co2 1000  HEM1000     0.0000
     39  NA       -45.8120  -41.4050   14.7840 N.2   1000  HEM1000     0.0000
     40  NB       -45.1050  -43.6710   13.3200 N.ar  1000  HEM1000     0.0000
     41  NC       -42.8070  -42.4270   12.3390 N.2   1000  HEM1000     0.0000
     42  ND       -43.3980  -39.9640   13.8840 N.ar  1000  HEM1000     0.0000
     43 FE        -44.2540  -41.9900   13.5320 Fe    1000  HEM1000     0.0000
@<TRIPOS>BOND
     1    26    23    1
     2    27    28    2
     3    27    24    1
     4    23    24    2
     5    23    22    1
     6    24    25    1
     7    21    20    2
     8    22     3    2
     9    22    41    1
    10     3    18    1
    11    25    41    2
    12    25     4    1
    13    41    43    1
    14     4    29    2
    15    20    17    1
    16    18    17   ar
    17    18    40   ar
    18    17    16   ar
    19    29    30   ar
    20    29    42   ar
    21    33    30    1
    22    40    43    1
    23    40    15   ar
    24    43    42    1
    25    43    39    1
    26    16    15   ar
    27    16    19    1
    28    30    31   ar
    29    42    32   ar
    30    15     2    1
    31    35    36    1
    32    35    34    1
    33    31    32   ar
    34    31    34    1
    35     2     8    2
    36    32     1    2
    37    39     8    1
    38    39     5    2
    39     8     7    1
    40    37    36   ar
    41    36    38   ar
    42     1     5    1
    43     5     6    1
    44     7     6    2
    45     7     9    1
    46     6    10    1
    47    10    11    1
    48    11    12    1
    49    14    12   ar
    50    12    13   ar
