@<TRIPOS>MOLECULE
3q0a_GTP_C_1.pdb
 32 34 0 0 0
SMALL
GASTEIGER

@<TRIPOS>ATOM
      1  PG        18.8920  -30.2710  363.6730 P.3    26  GTP26       0.5373
      2  O1G       20.3970  -30.3060  363.5320 O.3    26  GTP26      -0.1143
      3  O2G       18.2470  -31.0550  362.5510 O.2    26  GTP26      -0.2221
      4  O3G       18.4220  -28.8330  363.6290 O.3    26  GTP26      -0.1143
      5  O3B       18.5040  -30.9410  365.0880 O.3    26  GTP26      -0.2258
      6  PB        16.9770  -31.0680  365.5930 P.3    26  GTP26       0.2277
      7  O1B       16.0570  -30.1780  364.7870 O.2    26  GTP26      -0.5168
      8  O2B       16.9080  -30.7460  367.0670 O.3    26  GTP26      -0.4368
      9  O3A       16.6040  -32.6090  365.3090 O.3    26  GTP26      -0.2700
     10  PA        15.4190  -33.3880  366.0820 P.3    26  GTP26       0.2189
     11  O1A       16.0040  -34.2070  367.2140 O.3    26  GTP26      -0.4371
     12  O2A       14.6850  -34.2790  365.1050 O.2    26  GTP26      -0.5170
     13  O5'       14.4340  -32.2390  366.6570 O.3    26  GTP26      -0.3112
     14  C5'       14.3010  -31.9510  368.0380 C.3    26  GTP26       0.1813
     15  C4'       13.0120  -31.1750  368.3130 C.3    26  GTP26       0.1799
     16  O4'       13.0780  -30.5620  369.5880 O.3    26  GTP26      -0.3326
     17  C3'       12.7430  -30.0740  367.2950 C.3    26  GTP26       0.2158
     18  O3'       11.6810  -30.4530  366.4500 O.3    26  GTP26      -0.2175
     19  C2'       12.3950  -28.8350  368.0990 C.3    26  GTP26       0.2310
     20  O2'       11.0360  -28.4960  367.9470 O.3    26  GTP26      -0.2158
     21  C1'       12.6700  -29.2050  369.5480 C.3    26  GTP26       0.2293
     22  N9        13.7420  -28.3590  370.1120 N.pl3  26  GTP26      -0.2354
     23  C8        15.0450  -28.3050  369.6880 C.3    26  GTP26       0.2246
     24  N7        15.7170  -27.4210  370.4580 N.2    26  GTP26      -0.2322
     25  C5        14.8650  -26.9110  371.3720 C.2    26  GTP26       0.2182
     26  C6        15.0340  -25.9780  372.3920 C.1    26  GTP26       0.2372
     27  O6        16.1350  -25.4590  372.5790 O.2    26  GTP26      -0.2069
     28  N1        13.9530  -25.6440  373.1920 N.2    26  GTP26      -0.2485
     29  C2        12.7180  -26.2320  372.9730 C.1    26  GTP26       0.2531
     30  N2        11.6770  -25.9170  373.7350 N.pl3  26  GTP26      -0.0226
     31  N3        12.5660  -27.1560  371.9570 N.2    26  GTP26      -0.3074
     32  C4        13.6170  -27.4920  371.1680 C.2    26  GTP26       0.2300
@<TRIPOS>BOND
     1     3     1    2
     2     2     1    1
     3     4     1    1
     4     1     5    1
     5     7     6    2
     6     5     6    1
     7    12    10    2
     8     9     6    1
     9     9    10    1
    10     6     8    1
    11    10    13    1
    12    10    11    1
    13    18    17    1
    14    13    14    1
    15    17    19    1
    16    17    15    1
    17    20    19    1
    18    14    15    1
    19    19    21    1
    20    15    16    1
    21    21    16    1
    22    21    22    1
    23    23    22    1
    24    23    24    1
    25    22    32    1
    26    24    25    2
    27    32    25    1
    28    32    31    2
    29    25    26    1
    30    31    29    2
    31    26    27    2
    32    26    28    2
    33    29    28    2
    34    29    30    1
