@<TRIPOS>MOLECULE
3q0g_COA_C_1.pdb
 48 50 0 0 0
SMALL
GASTEIGER

@<TRIPOS>ATOM
      1  N1A       23.4630   12.4990  -89.2600 N.2   258  COA258      0.0021
      2  C2A       23.8120   13.0200  -90.4050 C.3   258  COA258      0.5254
      3  N3A       24.9770   12.7600  -90.8490 N.2   258  COA258     -0.0055
      4  C4A       25.8590   12.0110  -90.1840 C.2   258  COA258      0.3518
      5  C5A       25.5420   11.4920  -88.9920 C.2   258  COA258      0.2526
      6  C6A       24.2690   11.7560  -88.5430 C.2   258  COA258      0.4393
      7  N6A       23.8590   11.2580  -87.4480 N.pl3 258  COA258      0.2180
      8  N7A       26.5790   10.8330  -88.5640 N.2   258  COA258     -0.2095
      9  C8A       27.5170   10.9370  -89.4290 C.3   258  COA258      0.3377
     10  N9A       27.0890   11.6670  -90.4140 N.pl3 258  COA258     -0.1439
     11  C1B       27.8020   12.0910  -91.6320 C.3   258  COA258      0.3185
     12  C2B       28.5130   13.4470  -91.3350 C.3   258  COA258      0.2543
     13  O2B       27.7720   14.6530  -91.4160 O.3   258  COA258     -0.2131
     14  C3B       29.5570   13.4360  -92.3850 C.3   258  COA258      0.1928
     15  O3B       28.9990   13.8600  -93.4750 O.3   258  COA258     -0.2673
     16  P3B       29.4150   14.8910  -94.3740 P.3   258  COA258      0.5327
     17  O7A       30.5540   14.1650  -94.9120 O.3   258  COA258     -0.1145
     18  O8A       28.5550   14.7800  -95.5780 O.2   258  COA258     -0.2224
     19  O9A       29.5120   16.1010  -93.7170 O.3   258  COA258     -0.1145
     20  C4B       29.8710   12.0410  -92.0410 C.3   258  COA258      0.1795
     21  O4B       28.8490   11.2260  -92.1310 O.3   258  COA258     -0.3136
     22  C5B       30.4060   11.1660  -91.0320 C.3   258  COA258      0.1812
     23  O5B       31.4760   10.8860  -90.4030 O.3   258  COA258     -0.3112
     24  P1A       32.1530   11.7710  -89.8330 P.3   258  COA258      0.2189
     25  O1A       32.7910   12.2350  -90.9430 O.2   258  COA258     -0.5170
     26  O2A       31.5790   12.7090  -88.9920 O.3   258  COA258     -0.4371
     27  O3A       32.9430   10.6100  -89.1850 O.3   258  COA258     -0.2703
     28  P2A       33.5190   10.3050  -87.8470 P.3   258  COA258      0.2188
     29  O4A       34.2580   11.4390  -87.4440 O.3   258  COA258     -0.4371
     30  O5A       34.2130    9.0990  -87.9050 O.2   258  COA258     -0.5170
     31  O6A       32.2770   10.1430  -86.9400 O.3   258  COA258     -0.3138
     32  CBP       30.8880    9.5980  -85.0190 C.3   258  COA258      0.0645
     33  CCP       32.0540    9.2120  -85.9330 C.3   258  COA258      0.1519
     34  CDP       31.4950    9.8570  -83.7050 C.3   258  COA258      0.0056
     35  CEP       29.9460    8.4570  -84.8370 C.3   258  COA258      0.0056
     36  CAP       30.2590   10.9070  -85.5420 C.3   258  COA258      0.2312
     37  OAP       29.9730   10.9680  -86.9180 O.3   258  COA258     -0.2131
     38  C9P       29.1180   11.3950  -84.7190 C.2   258  COA258      0.2719
     39  O9P       29.2750   11.2500  -83.5490 O.2   258  COA258     -0.2706
     40  N8P       27.9990   11.7580  -85.3050 N.am  258  COA258     -0.2028
     41  C7P       26.7980   12.1880  -84.5830 C.3   258  COA258      0.1249
     42  C6P       26.3250   11.2370  -83.4630 C.3   258  COA258      0.1105
     43  C5P       25.1610   11.7370  -82.6550 C.2   258  COA258      0.2471
     44  O5P       25.2570   12.7660  -82.0590 O.2   258  COA258     -0.2729
     45  N4P       24.1530   10.9100  -82.6390 N.am  258  COA258     -0.1816
     46  C3P       22.8130   10.9940  -82.0170 C.2   258  COA258      0.0748
     47  C2P       22.4540   12.1180  -81.1080 C.3   258  COA258      0.1127
     48  S1P       21.2960   13.3640  -81.7380 S.3   258  COA258     -0.0755
@<TRIPOS>BOND
     1    18    16    2
     2    17    16    1
     3    16    19    1
     4    16    15    1
     5    15    14    1
     6    14    20    1
     7    14    12    1
     8    21    20    1
     9    21    11    1
    10    20    22    1
    11    11    12    1
    12    11    10    1
    13    13    12    1
    14    22    23    1
    15    25    24    2
    16     3     2    1
    17     3     4    2
    18    10     4    1
    19    10     9    1
    20     2     1    1
    21    23    24    1
    22     4     5    1
    23    24    27    1
    24    24    26    1
    25     9     8    1
    26     1     6    2
    27    27    28    1
    28     5     8    2
    29     5     6    1
    30     6     7    1
    31    30    28    2
    32    28    29    1
    33    28    31    1
    34    31    33    1
    35    37    36    1
    36    33    32    1
    37    36    32    1
    38    36    38    1
    39    40    38   am
    40    40    41    1
    41    32    35    1
    42    32    34    1
    43    38    39    2
    44    41    42    1
    45    42    43    1
    46    43    45    1
    47    43    44    2
    48    45    46    2
    49    46    47    1
    50    48    47    1
