@<TRIPOS>MOLECULE
3q0t_LGE_A_1.pdb
 26 28 0 0 0
SMALL
GASTEIGER

@<TRIPOS>ATOM
      1  C01       47.1390   48.7700   36.9500 C.ar    1  LGE1        0.0014
      2  C02       47.0620   48.3010   38.2540 C.ar    1  LGE1        0.0114
      3  C03       48.0070   50.3860   39.0960 C.ar    1  LGE1        0.0228
      4  C04       47.6430   50.0460   36.7250 C.ar    1  LGE1        0.0069
      5  C05       47.7540   50.5580   35.3520 C.2     1  LGE1       -0.0137
      6  C06       48.9590   50.4410   34.6930 C.2     1  LGE1        0.0283
      7  C07       46.7150   51.2080   34.6790 C.3     1  LGE1        0.0892
      8  C08       47.5040   49.1320   39.2950 C.ar    1  LGE1        0.0585
      9  C09       48.0790   50.8230   37.8120 C.ar    1  LGE1        0.0582
     10  C10       49.0770   50.9500   33.3950 C.2     1  LGE1        0.1811
     11  C11       46.9370   51.6810   33.3740 C.2     1  LGE1        0.0924
     12  C12       50.4550   50.7060   32.9130 C.2     1  LGE1        0.2791
     13  C13       52.1230   47.8660   33.0940 C.2     1  LGE1        0.3377
     14  C14       50.2500   49.8200   35.1440 C.3     1  LGE1        0.1234
     15  C15       45.8900   52.3690   32.5900 C.3     1  LGE1        0.0619
     16  C16       53.1520   45.8320   32.4610 C.3     1  LGE1        0.2557
     17  C17       45.3720   51.3710   35.3170 C.3     1  LGE1        0.1203
     18  C18       52.2860   49.2530   33.7320 C.3     1  LGE1        0.2045
     19  N19       48.1300   51.5640   32.6970 N.2     1  LGE1       -0.4058
     20  N20       51.0410   49.9310   33.9190 N.am    1  LGE1       -0.2598
     21  N21       45.5220   52.2960   36.4130 N.3     1  LGE1       -0.1306
     22  O22       51.0070   51.0750   31.8970 O.2     1  LGE1       -0.2671
     23  O23       51.0750   47.3930   32.6970 O.2     1  LGE1       -0.2482
     24  O24       53.2700   47.1390   33.0540 O.3     1  LGE1       -0.4432
     25 CL25       47.4220   48.5860   40.8980 Cl      1  LGE1       -0.0822
     26 CL26       48.7080   52.3850   37.5670 Cl      1  LGE1       -0.0822
@<TRIPOS>BOND
     1    22    12    2
     2    16    24    1
     3    15    11    1
     4    19    11    2
     5    19    10    2
     6    23    13    2
     7    12    10    1
     8    12    20   am
     9    24    13    1
    10    13    18    1
    11    11     7    1
    12    10     6    1
    13    18    20    1
    14    20    14    1
    15     7    17    1
    16     7     5    1
    17     6    14    1
    18     6     5    2
    19    17    21    1
    20     5     4    1
    21     4     1   ar
    22     4     9   ar
    23     1     2   ar
    24    26     9    1
    25     9     3   ar
    26     2     8   ar
    27     3     8   ar
    28     8    25    1
