@<TRIPOS>MOLECULE
3q0u_LL3_A_1.pdb
 25 28 0 0 0
SMALL
GASTEIGER

@<TRIPOS>ATOM
      1  C34       30.0580   77.0610    9.2460 C.ar  217  LL3217     -0.0038
      2  C43       29.7890   78.2810    8.6130 C.ar  217  LL3217     -0.0003
      3  C41       30.1270   79.4860    9.2170 C.ar  217  LL3217     -0.0000
      4  C39       30.7720   79.4480   10.4480 C.ar  217  LL3217     -0.0003
      5  C37       31.0410   78.2260   11.0710 C.ar  217  LL3217     -0.0038
      6  C36       30.7010   77.0240   10.4810 C.ar  217  LL3217     -0.0131
      7  C01       30.9840   75.7100   11.2240 C.3   217  LL3217      0.1116
      8  C04       31.8980   74.7120   10.4890 C.2   217  LL3217      0.2301
      9  O06       32.2310   74.9070    9.3190 O.2   217  LL3217     -0.2745
     10  N05       32.3300   73.6080   11.1290 N.am  217  LL3217     -0.2792
     11  C18       31.9470   73.4250   12.5790 C.3   217  LL3217      0.0939
     12  C15       32.0970   71.9720   13.0410 C.3   217  LL3217      0.0320
     13  C07       33.2680   72.6790   10.4020 C.3   217  LL3217      0.0939
     14  C10       33.1230   71.2390   10.8700 C.3   217  LL3217      0.0320
     15  C13       33.3010   71.2660   12.4010 C.3   217  LL3217      0.0960
     16  C21       33.3170   69.8540   12.9470 C.2   217  LL3217      0.2934
     17  N25       33.1270   68.7500   12.2470 N.2   217  LL3217     -0.3122
     18  O22       33.5000   69.5730   14.2480 O.2   217  LL3217     -0.3156
     19  N23       33.4070   68.1570   14.3170 N.2   217  LL3217     -0.0067
     20  C24       33.1800   67.7140   13.0840 C.1   217  LL3217      0.1329
     21  C26       33.0160   66.3930   12.6880 C.ar  217  LL3217      0.1063
     22  C27       33.0400   65.8870   11.4480 C.ar  217  LL3217      0.0182
     23  C29       32.8270   64.5460   11.4050 C.ar  217  LL3217      0.0082
     24  C31       32.6020   63.9270   12.5770 C.ar  217  LL3217      0.0362
     25  S33       32.6760   65.1170   13.7660 S.2   217  LL3217     -0.0753
@<TRIPOS>BOND
     1     2     3   ar
     2     2     1   ar
     3     3     4   ar
     4     1     6   ar
     5     9     8    2
     6    13    14    1
     7    13    10    1
     8     4     5   ar
     9     6     5   ar
    10     6     7    1
    11     8    10   am
    12     8     7    1
    13    14    15    1
    14    10    11    1
    15    23    22   ar
    16    23    24   ar
    17    22    21   ar
    18    17    16    2
    19    17    20    2
    20    15    16    1
    21    15    12    1
    22    24    25   ar
    23    11    12    1
    24    21    20    1
    25    21    25   ar
    26    16    18    1
    27    20    19    2
    28    18    19    1
