@<TRIPOS>MOLECULE
3q0v_LL4_A_1.pdb
 23 25 0 0 0
SMALL
GASTEIGER

@<TRIPOS>ATOM
      1  CAV       17.0840   31.2600   -2.3270 C.3   217  LL4217      0.0000
      2  CAU       16.2770   30.4140   -1.2310 C.3   217  LL4217      0.0005
      3  CAW       17.2010   30.0180   -0.0530 C.3   217  LL4217      0.0000
      4  CAT       15.1410   31.2220   -0.6390 C.3   217  LL4217      0.0096
      5  CAS       14.0430   31.4720   -1.6730 C.3   217  LL4217      0.0853
      6  CAQ       12.9760   32.4100   -1.0880 C.2   217  LL4217      0.2259
      7  OAR       13.0270   32.8290    0.0740 O.2   217  LL4217     -0.2749
      8  NAN       11.9710   32.7790   -1.8390 N.am  217  LL4217     -0.2751
      9  CAO       12.0050   32.3920   -3.3260 C.3   217  LL4217      0.1197
     10  CAP       10.6450   32.5720   -4.0210 C.2   217  LL4217     -0.0031
     11  CAM       11.0470   33.8100   -1.2960 C.3   217  LL4217      0.0986
     12  CAL        9.6440   33.5780   -1.7960 C.3   217  LL4217      0.0536
     13  CAK        9.5470   33.1760   -3.2710 C.2   217  LL4217      0.0461
     14  CAH        8.3040   33.3920   -4.0600 C.2   217  LL4217      0.3128
     15  NAG        7.1450   33.2130   -3.4610 N.2   217  LL4217     -0.3084
     16  OAI        8.1340   33.5330   -5.4030 O.2   217  LL4217     -0.3112
     17  NAJ        6.7270   33.4820   -5.5810 N.2   217  LL4217     -0.0064
     18  CAF        6.1620   33.2940   -4.3820 C.1   217  LL4217      0.1332
     19  CAE        4.8070   33.1310   -4.1060 C.ar  217  LL4217      0.1064
     20  CAD        3.7230   32.8690   -4.9120 C.ar  217  LL4217      0.0182
     21  CAC        2.5570   32.6910   -4.2300 C.ar  217  LL4217      0.0082
     22  CAB        2.6680   32.7860   -2.8650 C.ar  217  LL4217      0.0362
     23  SAA        4.3610   33.0840   -2.4790 S.2   217  LL4217     -0.0753
@<TRIPOS>BOND
     1    17    16    1
     2    17    18    2
     3    16    14    1
     4    20    21   ar
     5    20    19   ar
     6    18    19    1
     7    18    15    2
     8    21    22   ar
     9    19    23   ar
    10    14    15    2
    11    14    13    1
    12    10     9    1
    13    10    13    2
    14     9     8    1
    15    13    12    1
    16    22    23   ar
    17     1     2    1
    18     8    11    1
    19     8     6   am
    20    12    11    1
    21     5     6    1
    22     5     4    1
    23     2     4    1
    24     2     3    1
    25     6     7    2
