@<TRIPOS>MOLECULE
3q0w_LL5_A_1.pdb
 23 25 0 0 0
SMALL
GASTEIGER

@<TRIPOS>ATOM
      1  C22       37.1230   61.6890   11.8180 C.3   217  LL5217      0.0020
      2  C20       37.6560   60.4930   12.5760 C.3   217  LL5217      0.0265
      3  C21       38.8230   60.7610   13.5750 C.3   217  LL5217      0.0020
      4  C19       36.4860   59.7590   13.3010 C.3   217  LL5217      0.1677
      5  N33       36.8900   58.3190   13.2540 N.3   217  LL5217     -0.1231
      6  C7        35.1770   59.9690   12.5150 C.2   217  LL5217      0.2431
      7  O32       34.8540   59.2720   11.5290 O.2   217  LL5217     -0.2733
      8  N1        34.3060   60.8940   12.8560 N.am  217  LL5217     -0.2784
      9  C2        34.5360   61.8890   13.9370 C.3   217  LL5217      0.0940
     10  C3        34.7500   63.2270   13.2020 C.3   217  LL5217      0.0320
     11  C6        33.0940   61.1420   12.0420 C.3   217  LL5217      0.0940
     12  C5        33.1800   62.5400   11.3850 C.3   217  LL5217      0.0320
     13  C4        33.4740   63.6190   12.4870 C.3   217  LL5217      0.0960
     14  C14       33.6480   64.9660   11.8070 C.2   217  LL5217      0.2934
     15  N23       33.2880   66.0720   12.3340 N.2   217  LL5217     -0.3122
     16  O26       34.1940   65.1370   10.6210 O.2   217  LL5217     -0.3156
     17  N25       34.2020   66.6000   10.4210 N.2   217  LL5217     -0.0067
     18  C24       33.5820   67.0790   11.4760 C.1   217  LL5217      0.1329
     19  C27       33.3530   68.3990   11.7140 C.ar  217  LL5217      0.1063
     20  C31       33.0600   68.9680   12.8620 C.ar  217  LL5217      0.0182
     21  C30       33.0070   70.3370   12.6880 C.ar  217  LL5217      0.0082
     22  C29       33.2250   70.9030   11.4540 C.ar  217  LL5217      0.0362
     23  S28       33.5500   69.5880   10.4970 S.2   217  LL5217     -0.0753
@<TRIPOS>BOND
     1    17    16    1
     2    17    18    2
     3    23    22   ar
     4    23    19   ar
     5    16    14    1
     6    12    11    1
     7    12    13    1
     8    22    21   ar
     9    18    19    1
    10    18    15    2
    11     7     6    2
    12    19    20   ar
    13    14    15    2
    14    14    13    1
    15     1     2    1
    16    11     8    1
    17    13    10    1
    18     6     8   am
    19     6     4    1
    20     2     4    1
    21     2     3    1
    22    21    20   ar
    23     8     9    1
    24    10     9    1
    25     5     4    1
