@<TRIPOS>MOLECULE
3q0z_23E_A_1.pdb
 47 53 0 0 0
SMALL
GASTEIGER

@<TRIPOS>ATOM
      1  N1        20.7290    3.4770  -15.3650 N.am  601  23E601     -0.1962
      2  C2        20.3560    3.6680  -16.7680 C.3   601  23E601      0.1489
      3  C3        20.9650    4.9380  -17.3480 C.2   601  23E601      0.2633
      4  N4        22.2840    5.1770  -17.1270 N.am  601  23E601     -0.1778
      5  C5        22.9540    6.3200  -17.6190 C.ar  601  23E601      0.0734
      6  O6        20.2550    5.6940  -18.0000 O.2   601  23E601     -0.2712
      7  C7        22.2330    7.4410  -18.0780 C.ar  601  23E601      0.0166
      8  C8        22.9130    8.5570  -18.5560 C.ar  601  23E601      0.0013
      9  C9        24.3220    8.5660  -18.5770 C.ar  601  23E601      0.0003
     10  C10       25.0360    7.4500  -18.0990 C.ar  601  23E601      0.0013
     11  C11       24.3570    6.3230  -17.6220 C.ar  601  23E601      0.0166
     12  C12       25.0110    9.8050  -19.1040 C.2   601  23E601      0.0068
     13  C13       26.2230   10.1620  -18.6780 C.2   601  23E601      0.0861
     14  C14       26.9560   11.3450  -19.1380 C.2   601  23E601      0.3880
     15  O15       26.2730   12.3630  -19.7090 O.co2 601  23E601     -0.2405
     16  C16       18.8130    3.5250  -16.8970 C.3   601  23E601      0.0289
     17  C17       20.8240    2.4500  -17.6060 C.3   601  23E601      0.0289
     18  C18       18.5450    2.9760  -18.3130 C.3   601  23E601      0.0023
     19  C19       19.9290    2.5670  -18.8640 C.3   601  23E601      0.0023
     20  O20       28.1790   11.3690  -18.9800 O.co2 601  23E601     -0.2405
     21  C21       20.5070    4.4230  -14.4140 C.2   601  23E601      0.2652
     22  C22       20.8780    4.1090  -12.9940 C.ar  601  23E601      0.0565
     23  C23       20.1150    4.6320  -11.9350 C.ar  601  23E601      0.0047
     24  C24       20.3860    4.3050  -10.6040 C.ar  601  23E601      0.0013
     25  C25       21.8960    3.1730  -12.7350 C.ar  601  23E601      0.0218
     26  N26       23.0620    2.0220  -10.8500 N.ar  601  23E601     -0.3121
     27  C27       22.1410    2.8390  -11.3870 C.ar  601  23E601      0.0606
     28  C28       21.4170    3.4070  -10.3560 C.ar  601  23E601      0.0132
     29  C29       21.9920    2.7930   -9.1040 C.ar  601  23E601     -0.0052
     30  C30       22.9710    1.9870   -9.5330 C.ar  601  23E601      0.0589
     31  C31       21.4610    3.1030   -7.7200 C.3   601  23E601      0.0238
     32  C32       23.8390    1.1100   -8.6740 C.2   601  23E601      0.0422
     33  C33       21.7460    4.5400   -7.1700 C.3   601  23E601      0.0044
     34  C34       21.0800    4.7530   -5.7840 C.3   601  23E601      0.0003
     35  C35       19.5640    4.4460   -5.8710 C.3   601  23E601      0.0000
     36  C36       19.3660    2.9530   -6.2420 C.3   601  23E601      0.0003
     37  C37       19.9390    2.7390   -7.6630 C.3   601  23E601      0.0044
     38  O38       19.9590    5.4950  -14.6320 O.2   601  23E601     -0.2684
     39  C39       24.3360    1.6040   -7.4540 C.2   601  23E601      0.0034
     40  C40       25.0180    0.7510   -6.5710 C.2   601  23E601     -0.0040
     41  C41       25.2270   -0.5910   -6.9390 C.2   601  23E601     -0.0186
     42  C42       24.7570   -1.0800   -8.1750 C.3   601  23E601      0.0860
     43  C43       24.0610   -0.2360   -9.0580 C.2   601  23E601      0.1274
     44  C44       24.0510    1.2770  -11.6240 C.3   601  23E601      0.2425
     45  N45       23.5700   -0.7750  -10.2900 N.2   601  23E601     -0.3389
     46  C46       23.5440   -0.1350  -11.4940 C.1   601  23E601      0.2039
     47  O47       23.0930   -0.6850  -12.4990 O.2   601  23E601     -0.2122
@<TRIPOS>BOND
     1    15    14   ar
     2    14    20   ar
     3    14    13    1
     4    12    13    2
     5    12     9    1
     6    19    18    1
     7    19    17    1
     8     9     8   ar
     9     9    10   ar
    10     8     7   ar
    11    18    16    1
    12    10    11   ar
    13     7     5   ar
    14     6     3    2
    15    11     5   ar
    16     5     4    1
    17    17     2    1
    18     3     4   am
    19     3     2    1
    20    16     2    1
    21     2     1    1
    22     1    21   am
    23    38    21    2
    24    21    22    1
    25    22    25   ar
    26    22    23   ar
    27    25    27   ar
    28    47    46    2
    29    23    24   ar
    30    44    46    1
    31    44    26    1
    32    46    45    2
    33    27    26   ar
    34    27    28   ar
    35    26    30   ar
    36    24    28   ar
    37    28    29   ar
    38    45    43    2
    39    30    29   ar
    40    30    32    1
    41    29    31    1
    42    43    32    1
    43    43    42    1
    44    32    39    2
    45    42    41    1
    46    31    37    1
    47    31    33    1
    48    37    36    1
    49    39    40    1
    50    33    34    1
    51    41    40    2
    52    36    35    1
    53    35    34    1
