@<TRIPOS>MOLECULE
3q10_AMP_A_1.pdb
 23 25 0 0 0
SMALL
GASTEIGER

@<TRIPOS>ATOM
      1  P         24.4180   59.6850  100.2590 P.3   501  AMP501      0.5327
      2  O1P       24.7060   61.1330  100.3720 O.3   501  AMP501     -0.1145
      3  O2P       22.9510   59.3660  100.2500 O.2   501  AMP501     -0.2224
      4  O3P       25.1280   58.8230  101.2130 O.3   501  AMP501     -0.1145
      5  O5'       24.9500   59.2540   98.7920 O.3   501  AMP501     -0.2675
      6  C5'       24.7010   57.9250   98.3700 C.3   501  AMP501      0.1860
      7  C4'       25.3980   57.7360   97.0430 C.3   501  AMP501      0.1823
      8  O4'       24.9100   58.7340   96.1500 O.3   501  AMP501     -0.3135
      9  C3'       26.9140   57.9610   97.1970 C.3   501  AMP501      0.2184
     10  O3'       27.5860   57.0300   96.3470 O.3   501  AMP501     -0.2174
     11  C2'       27.0820   59.4070   96.7470 C.3   501  AMP501      0.2570
     12  O2'       28.4150   59.6750   96.3020 O.3   501  AMP501     -0.2130
     13  C1'       26.0240   59.4990   95.6500 C.3   501  AMP501      0.3186
     14  N9        25.6650   60.8950   95.4060 N.pl3 501  AMP501     -0.1439
     15  C8        25.1570   61.7980   96.2690 C.3   501  AMP501      0.3377
     16  N7        24.9590   62.9900   95.6430 N.2   501  AMP501     -0.2095
     17  C5        25.2770   62.7970   94.3650 C.2   501  AMP501      0.2526
     18  C6        25.2670   63.6380   93.1730 C.2   501  AMP501      0.4393
     19  N6        24.8510   64.9240   93.3290 N.pl3 501  AMP501      0.2180
     20  N1        25.6450   63.1080   91.9870 N.2   501  AMP501      0.0021
     21  C2        26.0570   61.8010   91.9010 C.3   501  AMP501      0.5254
     22  N3        26.1000   60.9720   92.9670 N.2   501  AMP501     -0.0055
     23  C4        25.7210   61.4230   94.1960 C.2   501  AMP501      0.3518
@<TRIPOS>BOND
     1    21    20    1
     2    21    22    1
     3    20    18    2
     4    22    23    2
     5    18    19    1
     6    18    17    1
     7    23    17    1
     8    23    14    1
     9    17    16    2
    10    14    13    1
    11    14    15    1
    12    16    15    1
    13    13     8    1
    14    13    11    1
    15     8     7    1
    16    12    11    1
    17    10     9    1
    18    11     9    1
    19     7     9    1
    20     7     6    1
    21     6     5    1
    22     5     1    1
    23     3     1    2
    24     1     2    1
    25     1     4    1
