@<TRIPOS>MOLECULE
3q11_P4F_A_1.pdb
 15 14 0 0 0
SMALL
GASTEIGER

@<TRIPOS>ATOM
      1  C          1.1980   -1.3990    0.5800 C.2   368  P4F368      0.3823
      2  N         -0.6450   -0.0840   -0.2830 N.3   368  P4F368     -0.1203
      3  O          1.5060   -1.5660   -0.6150 O.co2 368  P4F368     -0.2440
      4  CA         0.1110   -0.4160    0.9140 C.3   368  P4F368      0.2018
      5  CB         0.7330    0.8320    1.5390 C.3   368  P4F368      0.1012
      6  CG        -0.2640    1.9630    1.6810 C.2   368  P4F368      0.2193
      7  FAA       -1.6610    0.9360    3.2320 F     368  P4F368     -0.1888
      8  OAB       -1.1170    3.0610    5.3470 O.3   368  P4F368     -0.3533
      9  PAI       -0.0900    2.6680    4.3140 P.3   368  P4F368      0.1862
     10  OAJ        0.7680    1.4910    4.7190 O.3   368  P4F368     -0.3533
     11  FAN       -2.0640    2.9840    2.7040 F     368  P4F368     -0.1888
     12  OAO        0.6950    3.8330    3.7590 O.2   368  P4F368     -0.4542
     13  CD1       -1.1090    2.0970    2.9260 C.3   368  P4F368      0.3557
     14  OD2       -0.3780    2.7850    0.7850 O.2   368  P4F368     -0.2899
     15  OXT        1.7650   -2.0210    1.5010 O.co2 368  P4F368     -0.2440
@<TRIPOS>BOND
     1     3     1   ar
     2     2     4    1
     3     1     4    1
     4     1    15   ar
     5    14     6    2
     6     4     5    1
     7     5     6    1
     8     6    13    1
     9    11    13    1
    10    13     7    1
    11    13     9    1
    12    12     9    2
    13     9    10    1
    14     9     8    1
