@<TRIPOS>MOLECULE
3q11_NAP_A_1.pdb
 48 52 0 0 0
SMALL
GASTEIGER

@<TRIPOS>ATOM
      1  PA        -8.8670   -5.0220    3.4650 P.3   367  NAP367      0.2189
      2  O1A       -7.7990   -4.0320    3.7240 O.3   367  NAP367     -0.4371
      3  O2A       -8.3480   -6.4000    3.5730 O.2   367  NAP367     -0.5170
      4  O5B      -10.0530   -4.7590    4.5120 O.3   367  NAP367     -0.3112
      5  C5B      -10.5950   -3.4650    4.6210 C.3   367  NAP367      0.1813
      6  C4B      -11.3720   -3.3380    5.9220 C.3   367  NAP367      0.1820
      7  O4B      -12.0090   -2.0780    5.9230 O.3   367  NAP367     -0.3136
      8  C3B      -12.4610   -4.3980    6.0610 C.3   367  NAP367      0.2157
      9  O3B      -12.4730   -4.8690    7.3890 O.3   367  NAP367     -0.2175
     10  C2B      -13.7300   -3.6250    5.7660 C.3   367  NAP367      0.2314
     11  O2B      -14.8800   -4.1710    6.3790 O.3   367  NAP367     -0.2630
     12  C1B      -13.3580   -2.2510    6.2980 C.3   367  NAP367      0.3158
     13  N9A      -14.2150   -1.1900    5.7560 N.pl3 367  NAP367     -0.1439
     14  C8A      -14.3340   -0.7960    4.4490 C.3   367  NAP367      0.3377
     15  N7A      -15.2320    0.2110    4.3900 N.2   367  NAP367     -0.2095
     16  C5A      -15.6880    0.4570    5.6350 C.2   367  NAP367      0.2526
     17  C6A      -16.6120    1.3710    6.1300 C.2   367  NAP367      0.4393
     18  N6A      -17.2300    2.2110    5.2970 N.pl3 367  NAP367      0.2180
     19  N1A      -16.8830    1.3940    7.4840 N.2   367  NAP367      0.0021
     20  C2A      -16.2370    0.5210    8.3440 C.3   367  NAP367      0.5254
     21  N3A      -15.3230   -0.3910    7.8460 N.2   367  NAP367     -0.0055
     22  C4A      -15.0560   -0.4190    6.5100 C.2   367  NAP367      0.3518
     23  O3        -9.4820   -4.6880    2.0140 O.3   367  NAP367     -0.2703
     24  PN       -10.4660   -5.4610    0.9910 P.3   367  NAP367      0.2189
     25  O1N      -11.3860   -4.4370    0.4490 O.3   367  NAP367     -0.4371
     26  O2N       -9.6370   -6.2610    0.0540 O.2   367  NAP367     -0.5170
     27  O5D      -11.3090   -6.4500    1.9380 O.3   367  NAP367     -0.3112
     28  C5D      -11.4970   -7.8010    1.5740 C.3   367  NAP367      0.1813
     29  C4D      -12.7090   -8.4160    2.2640 C.3   367  NAP367      0.1799
     30  O4D      -12.6370   -9.8310    2.2250 O.3   367  NAP367     -0.3327
     31  C3D      -12.8360   -8.0520    3.7350 C.3   367  NAP367      0.2158
     32  O3D      -13.5980   -6.8770    3.8790 O.3   367  NAP367     -0.2175
     33  C2D      -13.5370   -9.2570    4.3380 C.3   367  NAP367      0.2309
     34  O2D      -14.9170   -9.0080    4.4840 O.3   367  NAP367     -0.2158
     35  C1D      -13.3310  -10.3870    3.3320 C.3   367  NAP367      0.2263
     36  N1N      -12.5810  -11.5320    3.9050 N.pl3 367  NAP367     -0.2787
     37  C2N      -12.8760  -12.8000    3.4740 C.3   367  NAP367      0.1244
     38  C3N      -12.1900  -13.9020    3.9870 C.2   367  NAP367      0.0544
     39  C7N      -12.2160  -15.1940    3.2250 C.2   367  NAP367      0.2818
     40  O7N      -13.2870  -16.0910    3.4260 O.2   367  NAP367     -0.2670
     41  N7N      -11.2230  -15.4570    2.3760 N.am  367  NAP367     -0.0839
     42  C4N      -11.1990  -13.7090    4.9500 C.2   367  NAP367      0.0033
     43  C5N      -10.9010  -12.4200    5.3860 C.2   367  NAP367      0.0157
     44  C6N      -11.6010  -11.3410    4.8490 C.2   367  NAP367      0.0633
     45  P2B      -15.8830   -5.1400    5.5490 P.3   367  NAP367      0.5328
     46  O1X      -15.3950   -6.5600    5.6570 O.3   367  NAP367     -0.1145
     47  O2X      -15.9420   -4.7050    4.1030 O.2   367  NAP367     -0.2224
     48  O3X      -17.2600   -5.0710    6.1560 O.3   367  NAP367     -0.1145
@<TRIPOS>BOND
     1    26    24    2
     2    25    24    1
     3    24    27    1
     4    24    23    1
     5    28    27    1
     6    28    29    1
     7    23     1    1
     8    30    29    1
     9    30    35    1
    10    29    31    1
    11    41    39   am
    12    39    40    2
    13    39    38    1
    14    35    36    1
    15    35    33    1
    16     1     3    2
    17     1     2    1
    18     1     4    1
    19    37    36    1
    20    37    38    1
    21    31    32    1
    22    31    33    1
    23    36    44    1
    24    38    42    2
    25    47    45    2
    26    33    34    1
    27    15    14    1
    28    15    16    2
    29    14    13    1
    30     4     5    1
    31     5     6    1
    32    44    43    2
    33    42    43    1
    34    18    17    1
    35    45    46    1
    36    45    48    1
    37    45    11    1
    38    16    17    1
    39    16    22    1
    40    13    12    1
    41    13    22    1
    42    10     8    1
    43    10    12    1
    44    10    11    1
    45     6     7    1
    46     6     8    1
    47     7    12    1
    48     8     9    1
    49    17    19    2
    50    22    21    2
    51    19    20    1
    52    21    20    1
