@<TRIPOS>MOLECULE
3q12_PAF_A_1.pdb
 10 9 0 0 0
SMALL
GASTEIGER

@<TRIPOS>ATOM
      1  O1        -7.3850   15.4060   -5.8340 O.co2 501  PAF501     -0.2428
      2  C1        -8.0780   14.3750   -5.5920 C.2   501  PAF501      0.3947
      3  O2        -9.1610   14.1630   -6.2390 O.co2 501  PAF501     -0.2428
      4  C2        -7.6310   13.4220   -4.5240 C.3   501  PAF501      0.2562
      5  O3        -6.3380   13.8700   -4.0960 O.3   501  PAF501     -0.2108
      6  C3        -7.7270   12.0000   -5.0790 C.3   501  PAF501      0.0695
      7  C4        -9.1150   11.3980   -5.3060 C.3   501  PAF501      0.0057
      8  C5        -6.6400   11.4970   -5.9860 C.3   501  PAF501      0.0057
      9  C6        -7.2620   11.2450   -3.8050 C.3   501  PAF501      0.1850
     10  O4        -7.9980   11.4980   -2.5640 O.3   501  PAF501     -0.2203
@<TRIPOS>BOND
     1     3     2   ar
     2     8     6    1
     3     1     2   ar
     4     2     4    1
     5     7     6    1
     6     6     4    1
     7     6     9    1
     8     4     5    1
     9     9    10    1
