@<TRIPOS>MOLECULE
3q19_GSH_A_1.pdb
 20 19 0 0 0
SMALL
GASTEIGER

@<TRIPOS>ATOM
      1  N1        15.2370   -2.9110   19.0400 N.3   240  GSH240     -0.1208
      2  CA1       15.6080   -4.2040   19.5800 C.3   240  GSH240      0.1948
      3  C1        14.4180   -4.7690   20.3020 C.2   240  GSH240      0.3819
      4  O11       13.3600   -4.1180   20.3810 O.co2 240  GSH240     -0.2441
      5  O12       14.4360   -5.9040   20.7930 O.co2 240  GSH240     -0.2441
      6  CB1       16.8590   -4.0420   20.4590 C.3   240  GSH240      0.0402
      7  CG1       17.5520   -5.3470   20.8730 C.3   240  GSH240      0.0889
      8  CD1       18.8760   -5.0310   21.5540 C.2   240  GSH240      0.2418
      9  OE1       19.5390   -3.8130   21.3040 O.2   240  GSH240     -0.2733
     10  N2        19.3710   -5.9390   22.3980 N.am  240  GSH240     -0.1968
     11  CA2       20.7090   -5.8090   22.9510 C.3   240  GSH240      0.1843
     12  C2        21.7380   -6.1890   21.9220 C.2   240  GSH240      0.2627
     13  O2        21.4000   -7.0670   20.8710 O.2   240  GSH240     -0.2714
     14  CB2       20.8770   -6.6650   24.2040 C.3   240  GSH240      0.0997
     15  SG2       19.7680   -6.2050   25.5740 S.3   240  GSH240     -0.0797
     16  N3        22.9570   -5.6620   22.0510 N.am  240  GSH240     -0.1917
     17  CA3       24.1420   -6.3330   21.5360 C.3   240  GSH240      0.2285
     18  C3        24.6750   -5.6930   20.2750 C.2   240  GSH240      0.3865
     19  O31       25.4120   -6.3410   19.4990 O.co2 240  GSH240     -0.2437
     20  O32       24.4000   -4.5060   19.9840 O.co2 240  GSH240     -0.2437
@<TRIPOS>BOND
     1     1     2    1
     2    19    18   ar
     3     2     3    1
     4     2     6    1
     5    20    18   ar
     6    18    17    1
     7     3     4   ar
     8     3     5   ar
     9     6     7    1
    10    13    12    2
    11     7     8    1
    12     9     8    2
    13    17    16    1
    14     8    10   am
    15    12    16   am
    16    12    11    1
    17    10    11    1
    18    11    14    1
    19    14    15    1
