@<TRIPOS>MOLECULE
3q1f_YPP_A_1.pdb
 37 39 0 0 0
SMALL
GASTEIGER

@<TRIPOS>ATOM
      1  C         21.9750  -15.8630    8.7310 C.2   301  YPP301      0.3865
      2  N         23.8760  -16.0960   10.3460 N.am  301  YPP301     -0.1915
      3  O         21.5490  -16.1040    7.5760 O.co2 301  YPP301     -0.2437
      4  CA        23.2100  -16.6560    9.1420 C.3   301  YPP301      0.2237
      5  CB        22.7830  -18.1340    9.3270 C.3   301  YPP301      0.1514
      6  NAE       21.8430  -18.3360   10.5140 N.3   301  YPP301     -0.1956
      7  CAG       22.5830  -18.9800   11.6640 C.3   301  YPP301      0.1857
      8  CAH       23.5720  -20.0060   11.1560 C.3   301  YPP301      0.0658
      9  SAI       24.1740  -19.2000    9.7040 S.3   301  YPP301     -0.1211
     10  CAJ       21.5990  -19.6390   12.6000 C.2   301  YPP301      0.3811
     11  OAK       20.4200  -19.7180   12.2060 O.co2 301  YPP301     -0.2441
     12  OAL       22.0520  -20.0620   13.6860 O.co2 301  YPP301     -0.2441
     13  CAM       24.7070  -20.2390   12.1660 C.3   301  YPP301      0.0129
     14  CAN       22.8680  -21.3200   10.7960 C.3   301  YPP301      0.0129
     15  CAP       25.1990  -16.0740   10.4680 C.2   301  YPP301      0.2661
     16  OAQ       25.9890  -16.4500    9.6100 O.2   301  YPP301     -0.2711
     17  CAR       25.6990  -15.4590   11.7580 C.3   301  YPP301      0.1965
     18  CAS       25.7200  -16.4730   12.9120 C.ar  301  YPP301      0.0063
     19  CAT       24.7800  -16.3790   13.9330 C.ar  301  YPP301     -0.0021
     20  CAU       24.8250  -17.2710   14.9930 C.ar  301  YPP301     -0.0003
     21  CAV       25.7950  -18.2620   15.0320 C.ar  301  YPP301     -0.0000
     22  CAW       26.7500  -18.3440   14.0260 C.ar  301  YPP301     -0.0003
     23  CAX       26.7070  -17.4400   12.9670 C.ar  301  YPP301     -0.0021
     24  NAY       27.0460  -14.8980   11.5580 N.am  301  YPP301     -0.1759
     25  CAZ       27.4940  -13.9950   12.3970 C.2   301  YPP301      0.3301
     26  OBA       26.8220  -13.6250   13.3570 O.2   301  YPP301     -0.2503
     27  NBB       28.7190  -13.4800   12.2580 N.am  301  YPP301     -0.2039
     28  CBC       29.0970  -12.3420   13.1290 C.3   301  YPP301      0.1244
     29  CBD       30.0300  -11.4150   12.3920 C.3   301  YPP301      0.1158
     30  NBE       31.1710  -12.1930   11.8750 N.am  301  YPP301     -0.2706
     31  CBF       30.9600  -13.4200   11.3020 C.2   301  YPP301      0.3034
     32  OBG       31.8940  -13.9960   10.7310 O.2   301  YPP301     -0.2649
     33  CBH       29.6960  -14.0130   11.3720 C.2   301  YPP301      0.3099
     34  OBI       29.4660  -15.0050   10.6920 O.2   301  YPP301     -0.2645
     35  CBJ       32.5240  -11.6320   11.9050 C.3   301  YPP301      0.0940
     36  CBK       32.7110  -10.7880   10.6520 C.3   301  YPP301      0.0233
     37  OXT       21.4590  -15.0880    9.5570 O.co2 301  YPP301     -0.2437
@<TRIPOS>BOND
     1     3     1   ar
     2     1     4    1
     3     1    37   ar
     4     4     5    1
     5     4     2    1
     6     5     9    1
     7     5     6    1
     8    16    15    2
     9     9     8    1
    10     2    15   am
    11    15    17    1
    12     6     7    1
    13    36    35    1
    14    34    33    2
    15    32    31    2
    16    14     8    1
    17     8     7    1
    18     8    13    1
    19    31    33    1
    20    31    30   am
    21    33    27   am
    22    24    17    1
    23    24    25   am
    24     7    10    1
    25    17    18    1
    26    30    35    1
    27    30    29    1
    28    11    10   ar
    29    27    25   am
    30    27    28    1
    31    29    28    1
    32    25    26    2
    33    10    12   ar
    34    18    23   ar
    35    18    19   ar
    36    23    22   ar
    37    19    20   ar
    38    22    21   ar
    39    20    21   ar
