@<TRIPOS>MOLECULE
3q1k_ADP_A_1.pdb
 27 29 0 0 0
SMALL
GASTEIGER

@<TRIPOS>ATOM
      1  PB        49.1540   17.7970   49.7730 P.3   370  ADP370      0.5373
      2  O1B       47.9790   17.6160   50.7000 O.3   370  ADP370     -0.1143
      3  O2B       49.0590   16.9700   48.5190 O.2   370  ADP370     -0.2221
      4  O3B       49.5090   19.2620   49.5630 O.3   370  ADP370     -0.1143
      5  PA        50.9000   17.0490   51.9820 P.3   370  ADP370      0.2231
      6  O1A       49.8130   17.6270   52.8700 O.3   370  ADP370     -0.4370
      7  O2A       52.3340   17.5470   52.0410 O.2   370  ADP370     -0.5169
      8  O3A       50.4870   17.1440   50.4240 O.3   370  ADP370     -0.2261
      9  O5'       50.9150   15.4710   52.3210 O.3   370  ADP370     -0.3111
     10  C5'       49.6990   14.7290   52.2660 C.3   370  ADP370      0.1813
     11  C4'       49.6830   13.7720   53.4550 C.3   370  ADP370      0.1821
     12  O4'       50.8620   12.9540   53.4860 O.3   370  ADP370     -0.3135
     13  C3'       49.6800   14.4930   54.7980 C.3   370  ADP370      0.2184
     14  O3'       48.3680   14.8950   55.1610 O.3   370  ADP370     -0.2174
     15  C2'       50.3210   13.4880   55.7540 C.3   370  ADP370      0.2570
     16  O2'       49.4160   12.5050   56.2970 O.3   370  ADP370     -0.2130
     17  C1'       51.2960   12.7630   54.8460 C.3   370  ADP370      0.3186
     18  N9        52.6260   13.4020   55.0250 N.pl3 370  ADP370     -0.1439
     19  C8        53.2240   14.2310   54.1480 C.3   370  ADP370      0.3377
     20  N7        54.4350   14.6360   54.6140 N.2   370  ADP370     -0.2095
     21  C5        54.6260   14.0560   55.8160 C.2   370  ADP370      0.2526
     22  C6        55.6950   14.0540   56.8460 C.2   370  ADP370      0.4393
     23  N6        56.8300   14.7850   56.6820 N.pl3 370  ADP370      0.2180
     24  N1        55.4830   13.3000   57.9600 N.2   370  ADP370      0.0021
     25  C2        54.3540   12.5800   58.1350 C.3   370  ADP370      0.5254
     26  N3        53.3440   12.5480   57.2400 N.2   370  ADP370     -0.0055
     27  C4        53.4240   13.2450   56.0850 C.2   370  ADP370      0.3518
@<TRIPOS>BOND
     1     3     1    2
     2     4     1    1
     3     1     8    1
     4     1     2    1
     5     8     5    1
     6     5     7    2
     7     5     9    1
     8     5     6    1
     9    10     9    1
    10    10    11    1
    11    11    12    1
    12    11    13    1
    13    12    17    1
    14    19    20    1
    15    19    18    1
    16    20    21    2
    17    13    14    1
    18    13    15    1
    19    17    18    1
    20    17    15    1
    21    18    27    1
    22    15    16    1
    23    21    27    1
    24    21    22    1
    25    27    26    2
    26    23    22    1
    27    22    24    2
    28    26    25    1
    29    24    25    1
