@<TRIPOS>MOLECULE
3q1m_M4A_A_1.pdb
 12 13 0 0 0
SMALL
GASTEIGER

@<TRIPOS>ATOM
      1  CAA       57.5720   22.5330   62.0550 C.3   285  M4A285      0.0664
      2  NAB       61.6510   24.7270   63.5780 N.pl3 285  M4A285     -0.1279
      3  CAC       58.6200   25.1350   67.5790 C.2   285  M4A285     -0.0187
      4  CAD       59.8560   25.5470   67.3560 C.2   285  M4A285     -0.0040
      5  CAE       57.8500   24.5330   66.5610 C.3   285  M4A285      0.0850
      6  CAF       60.3920   25.3700   66.1270 C.2   285  M4A285      0.0032
      7  CAG       59.6610   23.6630   62.8530 C.2   285  M4A285      0.0457
      8  NAH       57.7340   23.6220   64.3530 N.2   285  M4A285     -0.4101
      9  CAI       58.3350   23.2730   63.1350 C.2   285  M4A285      0.1103
     10  CAJ       60.3580   24.3490   63.8510 C.2   285  M4A285      0.0934
     11  CAK       58.3980   24.3410   65.3310 C.2   285  M4A285      0.1142
     12  CAL       59.7220   24.6540   65.1140 C.2   285  M4A285      0.0425
@<TRIPOS>BOND
     1     1     9    1
     2     7     9    1
     3     7    10    2
     4     9     8    2
     5     2    10    1
     6    10    12    1
     7     8    11    2
     8    12    11    1
     9    12     6    2
    10    11     5    1
    11     6     4    1
    12     5     3    1
    13     4     3    2
