@<TRIPOS>MOLECULE
3q1o_IPE_A_1.pdb
 14 13 0 0 0
SMALL
GASTEIGER

@<TRIPOS>ATOM
      1  C1        10.4070  -34.7370  -30.2260 C.3   500  IPE500      0.1747
      2  O1         9.1570  -34.1270  -30.5610 O.3   500  IPE500     -0.3089
      3  C2        10.8410  -33.8100  -29.1180 C.2   500  IPE500     -0.0024
      4  C3        10.5260  -34.0300  -27.8320 C.2   500  IPE500     -0.0454
      5  C4         9.7780  -35.2570  -27.3880 C.3   500  IPE500      0.0261
      6  C5        10.9660  -33.0200  -26.8090 C.3   500  IPE500      0.0261
      7  PA         7.9850  -34.7950  -31.4170 P.3   500  IPE500      0.2233
      8  O1A        7.6580  -36.1420  -30.8110 O.3   500  IPE500     -0.4370
      9  O2A        6.9040  -33.7520  -31.5800 O.2   500  IPE500     -0.5169
     10  O3A        8.7240  -35.0330  -32.8330 O.3   500  IPE500     -0.2261
     11  PB         8.2060  -34.4080  -34.2250 P.3   500  IPE500      0.5373
     12  O1B        6.7640  -34.8490  -34.3710 O.3   500  IPE500     -0.1143
     13  O2B        9.1800  -35.0150  -35.2070 O.2   500  IPE500     -0.2221
     14  O3B        8.3460  -32.9200  -34.0470 O.3   500  IPE500     -0.1143
@<TRIPOS>BOND
     1    13    11    2
     2    12    11    1
     3    11    14    1
     4    11    10    1
     5    10     7    1
     6     9     7    2
     7     7     8    1
     8     7     2    1
     9     2     1    1
    10     1     3    1
    11     3     4    2
    12     4     5    1
    13     4     6    1
