@<TRIPOS>MOLECULE
3q1r_NUC_D_1.pdb
 40 39 0 0 0
SMALL
GASTEIGER

@<TRIPOS>ATOM
      1  P         47.4440  -14.3220   -5.0000 P.3    -5  RG-5        0.3942
      2  OP1       47.7960  -15.1400   -3.8180 O.3    -5  RG-5       -0.1425
      3  OP2       47.9540  -12.9380   -5.1180 O.3    -5  RG-5       -0.1425
      4  O5'       47.8480  -15.1130   -6.3320 O.3    -5  RG-5       -0.2952
      5  C5'       47.1830  -16.3260   -6.6810 C.3    -5  RG-5        0.1535
      6  C4'       47.4850  -16.7480   -8.1100 C.3    -5  RG-5        0.0651
      7  C3'       48.9040  -17.2420   -8.3700 C.3    -5  RG-5        0.1517
      8  O3'       49.0120  -18.6260   -8.0390 O.3    -5  RG-5       -0.3140
      9  P         50.4200  -19.3920   -8.0670 P.3    -4  RG-4        0.2140
     10  OP1       51.3600  -18.6840   -7.1660 O.3    -4  RG-4       -0.4373
     11  OP2       50.7860  -19.6100   -9.4850 O.2    -4  RG-4       -0.5172
     12  O5'       50.0580  -20.8160   -7.4250 O.3    -4  RG-4       -0.3140
     13  C5'       51.0570  -21.8170   -7.2420 C.3    -4  RG-4        0.1517
     14  C4'       51.5630  -21.8240   -5.8100 C.3    -4  RG-4        0.0650
     15  C3'       53.0460  -22.1380   -5.6600 C.3    -4  RG-4        0.1517
     16  O3'       53.2700  -22.9880   -4.5360 O.3    -4  RG-4       -0.3140
     17  P         53.3950  -24.5800   -4.6780 P.3    -3  RC-3        0.2140
     18  OP1       54.4400  -24.8910   -5.6800 O.2    -3  RC-3       -0.5172
     19  OP2       52.0290  -25.1200   -4.8610 O.3    -3  RC-3       -0.4373
     20  O5'       53.9050  -25.0450   -3.2300 O.3    -3  RC-3       -0.3140
     21  C5'       55.1590  -24.6240   -2.6830 C.3    -3  RC-3        0.1517
     22  C4'       55.4860  -25.3660   -1.3980 C.3    -3  RC-3        0.0650
     23  C3'       55.8380  -26.8400   -1.5650 C.3    -3  RC-3        0.1517
     24  O3'       56.0170  -27.4550   -0.2910 O.3    -3  RC-3       -0.3140
     25  P         56.0190  -29.0510   -0.1240 P.3    -2  RG-2        0.2140
     26  OP1       57.0990  -29.6070   -0.9730 O.2    -2  RG-2       -0.5172
     27  OP2       54.6310  -29.5330   -0.3090 O.3    -2  RG-2       -0.4373
     28  O5'       56.4320  -29.2730    1.4100 O.3    -2  RG-2       -0.3140
     29  C5'       55.6840  -28.7390    2.5050 C.3    -2  RG-2        0.1517
     30  C4'       56.1450  -29.3440    3.8200 C.3    -2  RG-2        0.0650
     31  C3'       56.5690  -28.3340    4.8780 C.3    -2  RG-2        0.1517
     32  O3'       55.6790  -28.3610    6.0010 O.3    -2  RG-2       -0.3140
     33  P         55.8340  -29.2990    7.2970 P.3    -1  RU-1        0.2140
     34  OP1       56.9960  -30.2060    7.1390 O.2    -1  RU-1       -0.5172
     35  OP2       54.5050  -29.8900    7.5660 O.3    -1  RU-1       -0.4373
     36  O5'       56.1300  -28.2590    8.4810 O.3    -1  RU-1       -0.3140
     37  C5'       57.2810  -27.4100    8.5020 C.3    -1  RU-1        0.1518
     38  C4'       56.9110  -25.9640    8.2130 C.3    -1  RU-1        0.0680
     39  C3'       56.1950  -25.2330    9.3420 C.3    -1  RU-1        0.1847
     40  O3'       56.9000  -24.0440    9.6750 O.3    -1  RU-1       -0.2203
@<TRIPOS>BOND
     1    11     9    2
     2     7     6    1
     3     7     8    1
     4     6     5    1
     5     9     8    1
     6     9    12    1
     7     9    10    1
     8    12    13    1
     9    13    14    1
    10     5     4    1
    11     4     1    1
    12    14    15    1
    13    18    17    2
    14    15    16    1
    15     3     1    1
    16     1     2    1
    17    19    17    1
    18    17    16    1
    19    17    20    1
    20    20    21    1
    21    21    22    1
    22    23    22    1
    23    23    24    1
    24    26    25    2
    25    27    25    1
    26    24    25    1
    27    25    28    1
    28    28    29    1
    29    29    30    1
    30    30    31    1
    31    31    32    1
    32    32    33    1
    33    34    33    2
    34    33    35    1
    35    33    36    1
    36    38    37    1
    37    38    39    1
    38    36    37    1
    39    39    40    1
