@<TRIPOS>MOLECULE
3q22_GTP_A_1.pdb
 32 34 0 0 0
SMALL
GASTEIGER

@<TRIPOS>ATOM
      1  PG        19.0200  -86.8040  227.8490 P.3   1107  GTP1107     0.5373
      2  O1G       18.9240  -87.7870  226.7030 O.2   1107  GTP1107    -0.2221
      3  O2G       17.8200  -85.8870  227.8000 O.3   1107  GTP1107    -0.1143
      4  O3G       20.2900  -85.9900  227.7280 O.3   1107  GTP1107    -0.1143
      5  O3B       19.0550  -87.6190  229.2420 O.3   1107  GTP1107    -0.2258
      6  PB        17.7240  -87.7000  230.1430 P.3   1107  GTP1107     0.2277
      7  O1B       17.2720  -86.2940  230.4770 O.2   1107  GTP1107    -0.5168
      8  O2B       17.9270  -88.4880  231.4190 O.3   1107  GTP1107    -0.4368
      9  O3A       16.6840  -88.3820  229.1030 O.3   1107  GTP1107    -0.2700
     10  PA        15.8000  -89.7080  229.3790 P.3   1107  GTP1107     0.2189
     11  O1A       16.5390  -90.7200  230.2240 O.3   1107  GTP1107    -0.4371
     12  O2A       15.3590  -90.3060  228.0580 O.2   1107  GTP1107    -0.5170
     13  O5'       14.5070  -89.1760  230.1730 O.3   1107  GTP1107    -0.3112
     14  C5'       14.6350  -88.2790  231.2480 C.3   1107  GTP1107     0.1813
     15  C4'       13.4030  -87.3990  231.3040 C.3   1107  GTP1107     0.1799
     16  O4'       13.3240  -86.8360  232.5990 O.3   1107  GTP1107    -0.3326
     17  C3'       13.4540  -86.2230  230.3390 C.3   1107  GTP1107     0.2158
     18  O3'       12.8730  -86.5180  229.0900 O.3   1107  GTP1107    -0.2175
     19  C2'       12.6630  -85.1760  231.0810 C.3   1107  GTP1107     0.2310
     20  O2'       11.2870  -85.3990  230.8460 O.3   1107  GTP1107    -0.2158
     21  C1'       12.9540  -85.4780  232.5400 C.3   1107  GTP1107     0.2293
     22  N9        14.0760  -84.6700  233.0690 N.pl3 1107  GTP1107    -0.2354
     23  C8        15.3810  -84.6500  232.6420 C.3   1107  GTP1107     0.2246
     24  N7        16.0780  -83.7770  233.4050 N.2   1107  GTP1107    -0.2322
     25  C5        15.2400  -83.2500  234.3230 C.2   1107  GTP1107     0.2182
     26  C6        15.4230  -82.3240  235.3420 C.1   1107  GTP1107     0.2372
     27  O6        16.5270  -81.8180  235.5370 O.2   1107  GTP1107    -0.2069
     28  N1        14.3470  -81.9680  236.1280 N.2   1107  GTP1107    -0.2485
     29  C2        13.1040  -82.5280  235.9080 C.1   1107  GTP1107     0.2531
     30  N2        12.0720  -82.1920  236.6660 N.pl3 1107  GTP1107    -0.0226
     31  N3        12.9320  -83.4490  234.8940 N.2   1107  GTP1107    -0.3074
     32  C4        13.9810  -83.8040  234.1180 C.2   1107  GTP1107     0.2300
@<TRIPOS>BOND
     1     2     1    2
     2     4     1    1
     3     3     1    1
     4     1     5    1
     5    12    10    2
     6    18    17    1
     7     9    10    1
     8     9     6    1
     9     5     6    1
    10    10    13    1
    11    10    11    1
    12     6     7    2
    13     6     8    1
    14    13    14    1
    15    17    19    1
    16    17    15    1
    17    20    19    1
    18    19    21    1
    19    14    15    1
    20    15    16    1
    21    21    16    1
    22    21    22    1
    23    23    22    1
    24    23    24    1
    25    22    32    1
    26    24    25    2
    27    32    25    1
    28    32    31    2
    29    25    26    1
    30    31    29    2
    31    26    27    2
    32    26    28    2
    33    29    28    2
    34    29    30    1
