@<TRIPOS>MOLECULE
3q23_G2P_A_1.pdb
 32 34 0 0 0
SMALL
GASTEIGER

@<TRIPOS>ATOM
      1  PG        11.8950  -81.0140  222.9030 P.3   1108  G2P1108     0.5389
      2  O1G       11.4740  -82.3970  223.3550 O.3   1108  G2P1108    -0.1143
      3  O2G       13.3840  -80.9380  222.6390 O.3   1108  G2P1108    -0.1143
      4  O3G       11.0520  -80.4360  221.7960 O.2   1108  G2P1108    -0.2220
      5  O3B       11.6550  -79.9940  224.1450 O.3   1108  G2P1108    -0.2026
      6  PB        11.4080  -80.4600  225.6720 P.3   1108  G2P1108     0.3895
      7  O1B       10.1190  -81.2550  225.6820 O.2   1108  G2P1108    -0.2544
      8  O2B       11.4550  -79.2240  226.5460 O.3   1108  G2P1108    -0.1388
      9  C3A       12.8490  -81.4850  226.0980 C.3   1108  G2P1108     0.2357
     10  PA        12.4850  -83.0090  227.0100 P.3   1108  G2P1108     0.3820
     11  O1A       13.7930  -83.6820  227.3440 O.3   1108  G2P1108    -0.1392
     12  O2A       11.4930  -83.8180  226.2060 O.2   1108  G2P1108    -0.2548
     13  O5'       11.8430  -82.5640  228.4210 O.3   1108  G2P1108    -0.2896
     14  C5'       10.4380  -82.5200  228.6340 C.3   1108  G2P1108     0.1836
     15  C4'       10.1110  -81.6400  229.8290 C.3   1108  G2P1108     0.1800
     16  O4'       10.8000  -82.0780  231.0070 O.3   1108  G2P1108    -0.3326
     17  C3'       10.5690  -80.1980  229.6570 C.3   1108  G2P1108     0.2158
     18  O3'        9.7850  -79.4220  228.7420 O.3   1108  G2P1108    -0.2175
     19  C2'       10.5330  -79.7290  231.1020 C.3   1108  G2P1108     0.2310
     20  O2'        9.2080  -79.4040  231.5340 O.3   1108  G2P1108    -0.2158
     21  C1'       11.0620  -80.9530  231.8490 C.3   1108  G2P1108     0.2293
     22  N9        12.5120  -80.6800  232.0080 N.pl3 1108  G2P1108    -0.2354
     23  C8        13.5230  -81.0120  231.1830 C.3   1108  G2P1108     0.2246
     24  N7        14.6810  -80.5120  231.6800 N.2   1108  G2P1108    -0.2322
     25  C5        14.3780  -79.8470  232.8210 C.2   1108  G2P1108     0.2182
     26  C6        15.1180  -79.1390  233.7650 C.1   1108  G2P1108     0.2372
     27  O6        16.3580  -79.0060  233.6530 O.2   1108  G2P1108    -0.2069
     28  N1        14.4800  -78.5860  234.8190 N.2   1108  G2P1108    -0.2485
     29  C2        13.1360  -78.7010  234.9790 C.1   1108  G2P1108     0.2531
     30  N2        12.5170  -78.1360  236.0430 N.pl3 1108  G2P1108    -0.0226
     31  N3        12.4000  -79.3790  234.0820 N.2   1108  G2P1108    -0.3074
     32  C4        13.0050  -79.9560  233.0100 C.2   1108  G2P1108     0.2300
@<TRIPOS>BOND
     1     4     1    2
     2     3     1    1
     3     1     2    1
     4     1     5    1
     5     5     6    1
     6     6     7    2
     7     6     9    1
     8     6     8    1
     9     9    10    1
    10    12    10    2
    11    10    11    1
    12    10    13    1
    13    13    14    1
    14    14    15    1
    15    18    17    1
    16    17    15    1
    17    17    19    1
    18    15    16    1
    19    16    21    1
    20    19    20    1
    21    19    21    1
    22    23    24    1
    23    23    22    1
    24    24    25    2
    25    21    22    1
    26    22    32    1
    27    25    32    1
    28    25    26    1
    29    32    31    2
    30    27    26    2
    31    26    28    2
    32    31    29    2
    33    28    29    2
    34    29    30    1
