@<TRIPOS>MOLECULE
3q24_G_A_1.pdb
 23 25 0 0 0
SMALL
GASTEIGER

@<TRIPOS>ATOM
      1  P        -13.1230   83.4660  228.5540 P.3   1107  G1107       0.3942
      2  OP1      -12.3510   83.7320  227.3160 O.3   1107  G1107      -0.1425
      3  OP2      -14.5690   83.1620  228.4540 O.3   1107  G1107      -0.1425
      4  O5'      -12.4400   82.2720  229.3810 O.3   1107  G1107      -0.2926
      5  C5'      -11.0240   82.1960  229.4780 C.3   1107  G1107       0.1830
      6  C4'      -10.5340   81.3780  230.6540 C.3   1107  G1107       0.1800
      7  O4'      -11.1290   81.8600  231.8870 O.3   1107  G1107      -0.3326
      8  C3'      -10.9160   79.9080  230.6120 C.3   1107  G1107       0.2158
      9  O3'      -10.1350   79.1850  229.6550 O.3   1107  G1107      -0.2175
     10  C2'      -10.6980   79.5400  232.0840 C.3   1107  G1107       0.2310
     11  O2'       -9.3520   79.3820  232.4960 O.3   1107  G1107      -0.2158
     12  C1'      -11.3560   80.7560  232.7460 C.3   1107  G1107       0.2293
     13  N9       -12.7920   80.5090  232.8920 N.pl3 1107  G1107      -0.2354
     14  C8       -13.8250   80.9020  232.0670 C.3   1107  G1107       0.2246
     15  N7       -14.9980   80.4900  232.4670 N.2   1107  G1107      -0.2322
     16  C5       -14.7290   79.7680  233.6260 C.2   1107  G1107       0.2182
     17  C6       -15.5970   79.0780  234.5140 C.1   1107  G1107       0.2372
     18  O6       -16.8310   78.9600  234.4510 O.2   1107  G1107      -0.2069
     19  N1       -14.9000   78.4800  235.5670 N.2   1107  G1107      -0.2485
     20  C2       -13.5340   78.5410  235.7430 C.1   1107  G1107       0.2531
     21  N2       -13.0310   77.9100  236.8130 N.pl3 1107  G1107      -0.0226
     22  N3       -12.7120   79.1820  234.9220 N.2   1107  G1107      -0.3074
     23  C4       -13.3740   79.7680  233.8930 C.2   1107  G1107       0.2300
@<TRIPOS>BOND
     1     2     1    1
     2     3     1    1
     3     1     4    1
     4     4     5    1
     5     5     6    1
     6     9     8    1
     7     8     6    1
     8     8    10    1
     9     6     7    1
    10     7    12    1
    11    14    15    1
    12    14    13    1
    13    10    11    1
    14    10    12    1
    15    15    16    2
    16    12    13    1
    17    13    23    1
    18    16    23    1
    19    16    17    1
    20    23    22    2
    21    18    17    2
    22    17    19    2
    23    22    20    2
    24    19    20    2
    25    20    21    1
