@<TRIPOS>MOLECULE
3q24_GTP_A_1.pdb
 32 34 0 0 0
SMALL
GASTEIGER

@<TRIPOS>ATOM
      1  PG       -18.9680   86.8670  229.0870 P.3   1106  GTP1106     0.5373
      2  O1G      -17.8340   86.0510  229.6660 O.3   1106  GTP1106    -0.1143
      3  O2G      -19.2770   88.0230  230.0140 O.3   1106  GTP1106    -0.1143
      4  O3G      -20.1980   86.0030  228.9310 O.2   1106  GTP1106    -0.2221
      5  O3B      -18.5140   87.4140  227.6380 O.3   1106  GTP1106    -0.2258
      6  PB       -17.0320   88.0150  227.4570 P.3   1106  GTP1106     0.2277
      7  O1B      -17.0000   89.0120  226.3220 O.2   1106  GTP1106    -0.5168
      8  O2B      -16.0500   86.8860  227.2250 O.3   1106  GTP1106    -0.4368
      9  O3A      -16.8490   88.7480  228.8870 O.3   1106  GTP1106    -0.2700
     10  PA       -15.6680   89.7690  229.2910 P.3   1106  GTP1106     0.2189
     11  O1A      -16.2200   90.8090  230.2370 O.3   1106  GTP1106    -0.4371
     12  O2A      -15.0570   90.4070  228.0680 O.2   1106  GTP1106    -0.5170
     13  O5'      -14.6160   88.8210  230.0650 O.3   1106  GTP1106    -0.3112
     14  C5'      -14.6740   87.4190  229.8820 C.3   1106  GTP1106     0.1813
     15  C4'      -13.5460   86.7280  230.6210 C.3   1106  GTP1106     0.1799
     16  O4'      -13.8140   86.7870  232.0100 O.3   1106  GTP1106    -0.3326
     17  C3'      -13.4360   85.2390  230.3080 C.3   1106  GTP1106     0.2158
     18  O3'      -12.7180   84.9050  229.1340 O.3   1106  GTP1106    -0.2175
     19  C2'      -12.7800   84.7150  231.5690 C.3   1106  GTP1106     0.2310
     20  O2'      -11.3830   84.9070  231.5420 O.3   1106  GTP1106    -0.2158
     21  C1'      -13.3910   85.5940  232.6450 C.3   1106  GTP1106     0.2293
     22  N9       -14.5100   84.8260  233.2300 N.pl3 1106  GTP1106    -0.2354
     23  C8       -15.8450   84.8590  232.9000 C.3   1106  GTP1106     0.2246
     24  N7       -16.5040   83.9740  233.6900 N.2   1106  GTP1106    -0.2322
     25  C5       -15.6100   83.3750  234.5110 C.2   1106  GTP1106     0.2182
     26  C6       -15.7250   82.4050  235.5060 C.1   1106  GTP1106     0.2372
     27  O6       -16.8220   81.9230  235.7820 O.2   1106  GTP1106    -0.2069
     28  N1       -14.5910   81.9890  236.1890 N.2   1106  GTP1106    -0.2485
     29  C2       -13.3540   82.5300  235.8820 C.1   1106  GTP1106     0.2531
     30  N2       -12.2600   82.1370  236.5280 N.pl3 1106  GTP1106    -0.0226
     31  N3       -13.2540   83.4890  234.8950 N.2   1106  GTP1106    -0.3074
     32  C4       -14.3570   83.9020  234.2260 C.2   1106  GTP1106     0.2300
@<TRIPOS>BOND
     1     7     6    2
     2     8     6    1
     3     6     5    1
     4     6     9    1
     5     5     1    1
     6    12    10    2
     7     9    10    1
     8     4     1    2
     9     1     2    1
    10     1     3    1
    11    18    17    1
    12    10    13    1
    13    10    11    1
    14    14    13    1
    15    14    15    1
    16    17    15    1
    17    17    19    1
    18    15    16    1
    19    20    19    1
    20    19    21    1
    21    16    21    1
    22    21    22    1
    23    23    22    1
    24    23    24    1
    25    22    32    1
    26    24    25    2
    27    32    25    1
    28    32    31    2
    29    25    26    1
    30    31    29    2
    31    26    27    2
    32    26    28    2
    33    29    28    2
    34    29    30    1
