@<TRIPOS>MOLECULE
3q25_MAL_A_1.pdb
 23 24 0 0 0
SMALL
GASTEIGER

@<TRIPOS>ATOM
      1  C1         3.7500   28.6500    7.4100 C.3   5044  MAL5044     0.2695
      2  C2         4.3950   27.2760    7.2380 C.3   5044  MAL5044     0.2406
      3  C3         5.4510   27.3500    6.1460 C.3   5044  MAL5044     0.2198
      4  C4         4.7980   27.8320    4.8520 C.3   5044  MAL5044     0.2144
      5  C5         4.0660   29.1530    5.0840 C.3   5044  MAL5044     0.1835
      6  C6         3.2800   29.5470    3.8220 C.3   5044  MAL5044     0.2142
      7  O1         4.7470   29.5650    7.8100 O.3   5044  MAL5044    -0.3257
      8  O2         5.0030   26.8690    8.4450 O.3   5044  MAL5044    -0.2149
      9  O3         6.0390   26.0810    5.9540 O.3   5044  MAL5044    -0.2174
     10  O4         5.7790   27.9960    3.8390 O.3   5044  MAL5044    -0.2176
     11  O5         3.1750   29.0690    6.1840 O.3   5044  MAL5044    -0.3256
     12  O6         2.9020   30.9180    3.8960 O.3   5044  MAL5044    -0.2176
     13  C1'        5.2710   32.3730   10.8130 C.3   5044  MAL5044     0.3023
     14  C2'        4.8220   30.9710   11.2430 C.3   5044  MAL5044     0.2433
     15  C3'        5.0270   29.9590   10.1260 C.3   5044  MAL5044     0.2168
     16  C4'        4.4230   30.4720    8.8300 C.3   5044  MAL5044     0.1804
     17  C5'        4.9750   31.8500    8.4840 C.3   5044  MAL5044     0.1804
     18  C6'        4.2870   32.3740    7.2230 C.3   5044  MAL5044     0.2141
     19  O1'        6.6770   32.4240   10.7590 O.3   5044  MAL5044    -0.1869
     20  O2'        5.5840   30.5480   12.3580 O.3   5044  MAL5044    -0.2148
     21  O3'        4.4300   28.7300   10.4750 O.3   5044  MAL5044    -0.2175
     22  O5'        4.7360   32.7520    9.5520 O.3   5044  MAL5044    -0.3237
     23  O6'        4.9280   33.5440    6.7670 O.3   5044  MAL5044    -0.2176
@<TRIPOS>BOND
     1     6    12    1
     2     6     5    1
     3    10     4    1
     4     4     5    1
     5     4     3    1
     6     5    11    1
     7     9     3    1
     8     3     2    1
     9    11     1    1
    10    23    18    1
    11    18    17    1
    12     2     1    1
    13     2     8    1
    14     1     7    1
    15     7    16    1
    16    17    16    1
    17    17    22    1
    18    16    15    1
    19    22    13    1
    20    15    21    1
    21    15    14    1
    22    19    13    1
    23    13    14    1
    24    14    20    1
