@<TRIPOS>MOLECULE
3q26_MAL_A_1.pdb
 23 24 0 0 0
SMALL
GASTEIGER

@<TRIPOS>ATOM
      1  C1       -25.4190   -5.6940   10.3060 C.3   5044  MAL5044     0.2695
      2  C2       -24.5000   -6.4530    9.3540 C.3   5044  MAL5044     0.2406
      3  C3       -25.3580   -7.1450    8.3060 C.3   5044  MAL5044     0.2198
      4  C4       -26.3430   -8.0690    9.0120 C.3   5044  MAL5044     0.2144
      5  C5       -27.1730   -7.2850   10.0270 C.3   5044  MAL5044     0.1835
      6  C6       -28.0490   -8.2310   10.8560 C.3   5044  MAL5044     0.2142
      7  O1       -26.1340   -4.7050    9.5930 O.3   5044  MAL5044    -0.3257
      8  O2       -23.5870   -5.5680    8.7490 O.3   5044  MAL5044    -0.2149
      9  O3       -24.5370   -7.8510    7.3960 O.3   5044  MAL5044    -0.2174
     10  O4       -27.1870   -8.6820    8.0500 O.3   5044  MAL5044    -0.2176
     11  O5       -26.3070   -6.6050   10.9220 O.3   5044  MAL5044    -0.3256
     12  O6       -29.0380   -7.5120   11.5790 O.3   5044  MAL5044    -0.2176
     13  C1'      -26.6860   -0.6260    9.7430 C.3   5044  MAL5044     0.3023
     14  C2'      -25.2380   -1.1180    9.7650 C.3   5044  MAL5044     0.2433
     15  C3'      -25.1090   -2.5930    9.4380 C.3   5044  MAL5044     0.2168
     16  C4'      -26.1710   -3.4110   10.1600 C.3   5044  MAL5044     0.1804
     17  C5'      -27.5600   -2.8290    9.9680 C.3   5044  MAL5044     0.1804
     18  C6'      -28.5820   -3.5910   10.8070 C.3   5044  MAL5044     0.2141
     19  O1'      -27.1340   -0.5210    8.4440 O.3   5044  MAL5044    -0.1869
     20  O2'      -24.4360   -0.3990    8.8400 O.3   5044  MAL5044    -0.2148
     21  O3'      -23.8360   -3.0130    9.8720 O.3   5044  MAL5044    -0.2175
     22  O5'      -27.5740   -1.4900   10.4150 O.3   5044  MAL5044    -0.3237
     23  O6'      -29.9000   -3.3950   10.3290 O.3   5044  MAL5044    -0.2176
@<TRIPOS>BOND
     1     9     3    1
     2    10     4    1
     3     3     4    1
     4     3     2    1
     5    19    13    1
     6     8     2    1
     7    20    14    1
     8     4     5    1
     9     2     1    1
    10    15    14    1
    11    15    21    1
    12    15    16    1
    13     7    16    1
    14     7     1    1
    15    13    14    1
    16    13    22    1
    17    17    16    1
    18    17    22    1
    19    17    18    1
    20     5     6    1
    21     5    11    1
    22     1    11    1
    23    23    18    1
    24     6    12    1
