@<TRIPOS>MOLECULE
3q27_MAL_A_1.pdb
 23 24 0 0 0
SMALL
GASTEIGER

@<TRIPOS>ATOM
      1  C1       -10.0160    4.5730   -9.6970 C.3   5044  MAL5044     0.2695
      2  C2        -9.1120    5.5380   -8.9480 C.3   5044  MAL5044     0.2406
      3  C3        -7.9980    4.7490   -8.2780 C.3   5044  MAL5044     0.2198
      4  C4        -8.6250    3.7240   -7.3410 C.3   5044  MAL5044     0.2144
      5  C5        -9.6000    2.8350   -8.1090 C.3   5044  MAL5044     0.1835
      6  C6       -10.3420    1.8950   -7.1570 C.3   5044  MAL5044     0.2142
      7  O1        -9.2540    3.9200  -10.6890 O.3   5044  MAL5044    -0.3257
      8  O2        -8.5690    6.4700   -9.8600 O.3   5044  MAL5044    -0.2149
      9  O3        -7.1400    5.6270   -7.5800 O.3   5044  MAL5044    -0.2174
     10  O4        -7.6130    2.9270   -6.7590 O.3   5044  MAL5044    -0.2176
     11  O5       -10.5570    3.6260   -8.7940 O.3   5044  MAL5044    -0.3256
     12  O6       -11.0730    0.9090   -7.8650 O.3   5044  MAL5044    -0.2176
     13  C1'       -9.8450    3.1060  -14.7330 C.3   5044  MAL5044     0.3023
     14  C2'       -9.9640    4.5590  -14.2840 C.3   5044  MAL5044     0.2433
     15  C3'       -9.3410    4.7910  -12.9150 C.3   5044  MAL5044     0.2168
     16  C4'       -9.8400    3.7170  -11.9560 C.3   5044  MAL5044     0.1804
     17  C5'       -9.4210    2.3320  -12.4400 C.3   5044  MAL5044     0.1804
     18  C6'      -10.4620    1.2690  -12.0900 C.3   5044  MAL5044     0.2141
     19  O1'       -9.1320    3.1180  -15.9550 O.3   5044  MAL5044    -0.1869
     20  O2'       -9.3220    5.3690  -15.2450 O.3   5044  MAL5044    -0.2148
     21  O3'       -9.6980    6.0740  -12.4400 O.3   5044  MAL5044    -0.2175
     22  O5'       -9.1210    2.3020  -13.8270 O.3   5044  MAL5044    -0.3237
     23  O6'       -9.8590   -0.0090  -12.1050 O.3   5044  MAL5044    -0.2176
@<TRIPOS>BOND
     1    19    13    1
     2    20    14    1
     3    13    14    1
     4    13    22    1
     5    14    15    1
     6    22    17    1
     7    15    21    1
     8    15    16    1
     9    17    18    1
    10    17    16    1
    11    23    18    1
    12    16     7    1
    13     7     1    1
    14     8     2    1
    15     1     2    1
    16     1    11    1
    17     2     3    1
    18    11     5    1
    19     3     9    1
    20     3     4    1
    21     5     4    1
    22     5     6    1
    23    12     6    1
    24     4    10    1
