@<TRIPOS>MOLECULE
3q28_MAL_A_1.pdb
 23 24 0 0 0
SMALL
GASTEIGER

@<TRIPOS>ATOM
      1  C1        -9.5630    5.5620   -9.2180 C.3   5044  MAL5044     0.2695
      2  C2        -8.6450    6.4070   -8.3330 C.3   5044  MAL5044     0.2406
      3  C3        -7.6890    5.5320   -7.5280 C.3   5044  MAL5044     0.2198
      4  C4        -8.4970    4.4820   -6.7770 C.3   5044  MAL5044     0.2144
      5  C5        -9.4290    3.7080   -7.7090 C.3   5044  MAL5044     0.1835
      6  C6       -10.3330    2.7920   -6.8840 C.3   5044  MAL5044     0.2142
      7  O1        -8.8260    4.9540  -10.2650 O.3   5044  MAL5044    -0.3257
      8  O2        -7.8940    7.2850   -9.1500 O.3   5044  MAL5044    -0.2149
      9  O3        -6.9710    6.3250   -6.6050 O.3   5044  MAL5044    -0.2174
     10  O4        -7.5900    3.5990   -6.1400 O.3   5044  MAL5044    -0.2176
     11  O5       -10.2490    4.5940   -8.4470 O.3   5044  MAL5044    -0.3256
     12  O6       -11.0000    1.8840   -7.7360 O.3   5044  MAL5044    -0.2176
     13  C1'       -9.0040    4.5280  -14.3490 C.3   5044  MAL5044     0.3023
     14  C2'       -9.1460    5.9670  -13.8440 C.3   5044  MAL5044     0.2433
     15  C3'       -8.8020    6.0900  -12.3720 C.3   5044  MAL5044     0.2168
     16  C4'       -9.4130    4.9520  -11.5520 C.3   5044  MAL5044     0.1804
     17  C5'       -9.1720    3.5960  -12.2050 C.3   5044  MAL5044     0.1804
     18  C6'       -9.7740    2.4540  -11.3730 C.3   5044  MAL5044     0.2141
     19  O1'       -7.6540    4.1760  -14.3810 O.3   5044  MAL5044    -0.1869
     20  O2'       -8.2870    6.8540  -14.5520 O.3   5044  MAL5044    -0.2148
     21  O3'       -9.2920    7.3380  -11.9200 O.3   5044  MAL5044    -0.2175
     22  O5'       -9.6920    3.6020  -13.5230 O.3   5044  MAL5044    -0.3237
     23  O6'       -9.2250    1.1990  -11.7480 O.3   5044  MAL5044    -0.2176
@<TRIPOS>BOND
     1    20    14    1
     2    19    13    1
     3    13    14    1
     4    13    22    1
     5    14    15    1
     6    22    17    1
     7    15    21    1
     8    15    16    1
     9    17    16    1
    10    17    18    1
    11    23    18    1
    12    16     7    1
    13     7     1    1
    14     1    11    1
    15     1     2    1
    16     8     2    1
    17    11     5    1
    18     2     3    1
    19    12     6    1
    20     5     6    1
    21     5     4    1
    22     3     4    1
    23     3     9    1
    24     4    10    1
