@<TRIPOS>MOLECULE
3q29_MAL_A_1.pdb
 23 24 0 0 0
SMALL
GASTEIGER

@<TRIPOS>ATOM
      1  C1        14.1230  -28.3050  -28.5710 C.3   5044  MAL5044     0.2695
      2  C2        14.2730  -29.4020  -29.6170 C.3   5044  MAL5044     0.2406
      3  C3        14.1470  -30.7470  -28.9150 C.3   5044  MAL5044     0.2198
      4  C4        15.2070  -30.8530  -27.8210 C.3   5044  MAL5044     0.2144
      5  C5        15.1990  -29.6170  -26.9150 C.3   5044  MAL5044     0.1835
      6  C6        16.4250  -29.6000  -26.0090 C.3   5044  MAL5044     0.2142
      7  O1        12.8780  -28.4560  -27.9160 O.3   5044  MAL5044    -0.3257
      8  O2        13.2620  -29.2740  -30.5910 O.3   5044  MAL5044    -0.2149
      9  O3        14.2650  -31.7970  -29.8520 O.3   5044  MAL5044    -0.2174
     10  O4        14.9590  -32.0140  -27.0440 O.3   5044  MAL5044    -0.2176
     11  O5        15.1870  -28.4080  -27.6460 O.3   5044  MAL5044    -0.3256
     12  O6        16.2130  -28.6710  -24.9650 O.3   5044  MAL5044    -0.2176
     13  C1'        9.4820  -26.1470  -27.2540 C.3   5044  MAL5044     0.3023
     14  C2'       10.0500  -26.1270  -28.6750 C.3   5044  MAL5044     0.2433
     15  C3'       11.0460  -27.2480  -28.9240 C.3   5044  MAL5044     0.2168
     16  C4'       12.0660  -27.3050  -27.7880 C.3   5044  MAL5044     0.1804
     17  C5'       11.3730  -27.3160  -26.4280 C.3   5044  MAL5044     0.1804
     18  C6'       12.4130  -27.2570  -25.3130 C.3   5044  MAL5044     0.2141
     19  O1'        8.6400  -27.2650  -27.0900 O.3   5044  MAL5044    -0.1869
     20  O2'        9.0050  -26.2480  -29.6040 O.3   5044  MAL5044    -0.2148
     21  O3'       11.6870  -27.0090  -30.1640 O.3   5044  MAL5044    -0.2175
     22  O5'       10.5330  -26.1920  -26.3090 O.3   5044  MAL5044    -0.3237
     23  O6'       11.9050  -27.8380  -24.1350 O.3   5044  MAL5044    -0.2176
@<TRIPOS>BOND
     1     8     2    1
     2    21    15    1
     3     9     3    1
     4     2     3    1
     5     2     1    1
     6    20    14    1
     7    15    14    1
     8    15    16    1
     9     3     4    1
    10    14    13    1
    11     1     7    1
    12     1    11    1
    13     7    16    1
    14     4    10    1
    15     4     5    1
    16    16    17    1
    17    11     5    1
    18    13    19    1
    19    13    22    1
    20     5     6    1
    21    17    22    1
    22    17    18    1
    23     6    12    1
    24    18    23    1
