@<TRIPOS>MOLECULE
3q2a_PAB_A_1.pdb
 10 10 0 0 0
SMALL
GASTEIGER

@<TRIPOS>ATOM
      1  C1'       11.2430   34.3810  -19.7360 C.2   519  PAB519      0.3878
      2  O1'        9.9830   34.4240  -19.7390 O.co2 519  PAB519     -0.2406
      3  O2'       11.8250   33.2630  -19.7450 O.co2 519  PAB519     -0.2406
      4  C1        12.0400   35.6510  -19.7020 C.ar  519  PAB519      0.0799
      5  C2        13.4290   35.6130  -19.6660 C.ar  519  PAB519      0.0080
      6  C3        14.1510   36.8000  -19.6380 C.ar  519  PAB519      0.0183
      7  C4        13.4920   38.0250  -19.6470 C.ar  519  PAB519      0.0891
      8  C5        12.1060   38.0620  -19.6860 C.ar  519  PAB519      0.0183
      9  C6        11.3840   36.8760  -19.7110 C.ar  519  PAB519      0.0080
     10  N4        14.2350   39.2500  -19.6220 N.pl3 519  PAB519     -0.1281
@<TRIPOS>BOND
     1     3     1   ar
     2     2     1   ar
     3     1     4    1
     4     9     4   ar
     5     9     8   ar
     6     4     5   ar
     7     8     7   ar
     8     5     6   ar
     9     7     6   ar
    10     7    10    1
