@<TRIPOS>MOLECULE
3q2d_3NY_A_1.pdb
 12 13 0 0 0
SMALL
GASTEIGER

@<TRIPOS>ATOM
      1  N1        -5.9350   12.2510   18.9940 N.ar  273  3NY273     -0.1271
      2  N2        -4.7450   12.4490   19.2560 N.ar  273  3NY273     -0.0421
      3  N3        -4.0320   11.4380   19.1670 N.ar  273  3NY273     -0.1270
      4  C4        -4.5830    9.0660   18.5420 C.ar  273  3NY273      0.0466
      5  C5        -5.6700    8.2520   18.1610 C.ar  273  3NY273      0.1445
      6  C6        -6.9630    8.8180   18.0400 C.ar  273  3NY273      0.0258
      7  C7        -7.1930   10.1790   18.2990 C.ar  273  3NY273      0.0243
      8  O11       -4.1860    6.3570   18.0340 O.2   273  3NY273     -0.1261
      9  O21       -6.5520    6.0950   17.5210 O.2   273  3NY273     -0.1261
     10  C3A       -4.8000   10.4240   18.8040 C.ar  273  3NY273      0.1255
     11  C7A       -6.0880   10.9690   18.6780 C.ar  273  3NY273      0.1240
     12  NO1       -5.4740    6.9520   17.9080 N.pl3 273  3NY273      0.0577
@<TRIPOS>BOND
     1     9    12    2
     2    12     8    2
     3    12     5    1
     4     6     5   ar
     5     6     7   ar
     6     5     4   ar
     7     7    11   ar
     8     4    10   ar
     9    11    10   ar
    10    11     1   ar
    11    10     3   ar
    12     1     2   ar
    13     3     2   ar
