@<TRIPOS>MOLECULE
3q2f_OAM_A_1.pdb
 21 23 0 0 0
SMALL
GASTEIGER

@<TRIPOS>ATOM
      1  CAA       15.6300   36.6880   28.8930 C.3     1  OAM1        0.0738
      2  CAB       15.1340   38.0970   29.2340 C.ar    1  OAM1        0.1436
      3  NAC       15.8240   39.1180   29.7670 N.ar    1  OAM1       -0.1333
      4  NAD       15.0390   40.0940   29.8670 N.ar    1  OAM1       -0.1289
      5  CAE       13.8070   39.7880   29.4210 C.ar    1  OAM1        0.1705
      6  CAF       12.6260   40.5810   29.3870 C.ar    1  OAM1        0.0912
      7  CAG       11.5420   40.4570   28.6050 C.ar    1  OAM1        0.1261
      8  NAH       10.6500   41.4120   28.9290 N.ar    1  OAM1       -0.1663
      9  NAI       11.0910   42.0830   29.8810 N.ar    1  OAM1       -0.2326
     10  CAJ       10.3520   43.2430   30.5260 C.3     1  OAM1        0.1553
     11  CAK       12.3020   41.6460   30.2330 C.ar    1  OAM1        0.1714
     12  NAL       13.0550   42.1590   31.2050 N.pl3   1  OAM1       -0.1074
     13  NAM       13.8980   38.5040   29.0240 N.ar    1  OAM1       -0.2985
     14  CAN       12.8260   37.6730   28.4210 C.3     1  OAM1        0.1107
     15  CAO       11.6140   37.3390   29.2990 C.3     1  OAM1        0.0491
     16  CAP       10.4520   36.9090   28.3950 C.3     1  OAM1        0.1096
     17  NAQ        9.2310   36.5240   29.1120 N.ar    1  OAM1       -0.3078
     18  CAR        8.4660   37.3510   29.8220 C.ar    1  OAM1        0.0980
     19  CAS        7.4620   36.6070   30.2920 C.ar    1  OAM1        0.1193
     20  NAT        7.6090   35.3500   29.8640 N.ar    1  OAM1       -0.2223
     21  CAU        8.7250   35.2860   29.1290 C.ar    1  OAM1        0.1786
@<TRIPOS>BOND
     1    16    17    1
     2    16    15    1
     3    14    13    1
     4    14    15    1
     5     7     8   ar
     6     7     6   ar
     7     1     2    1
     8     8     9   ar
     9    13     2   ar
    10    13     5   ar
    11    17    21   ar
    12    17    18   ar
    13    21    20   ar
    14     2     3   ar
    15     6     5    1
    16     6    11   ar
    17     5     4   ar
    18     3     4   ar
    19    18    19   ar
    20    20    19   ar
    21     9    11   ar
    22     9    10    1
    23    11    12    1
