@<TRIPOS>MOLECULE
3q2g_QGF_A_1.pdb
 36 38 0 0 0
SMALL
GASTEIGER

@<TRIPOS>ATOM
      1  C1         9.1530  -12.1080    3.7220 C.3     1  QGF1        0.0159
      2 CL1        10.5310  -14.8000   21.2150 Cl      1  QGF1       -0.0822
      3  C2        10.0580  -12.2030    4.9540 C.3     1  QGF1        0.0869
      4 CL2        11.5440  -11.4160   17.2100 Cl      1  QGF1       -0.0825
      5  C3         9.1590  -12.1520    6.1830 C.3     1  QGF1        0.0353
      6  C4         9.8700  -11.6320    7.4430 C.3     1  QGF1        0.0886
      7  C5        10.5070  -10.2640    7.1900 C.3     1  QGF1        0.0223
      8  C6         8.7230  -11.4770    8.4460 C.3     1  QGF1        0.1876
      9  S7         9.1080  -10.7120   10.0460 S.O2    1  QGF1        0.0455
     10  O8        10.1260   -9.7070   10.0110 O.2     1  QGF1       -0.1572
     11  O9         7.9060  -10.4550   10.7290 O.2     1  QGF1       -0.1572
     12  N10        9.7610  -11.9420   10.9400 N.3     1  QGF1       -0.1592
     13  C11        8.9240  -13.1040   11.2660 C.3     1  QGF1        0.0979
     14  C12        8.9600  -13.3110   12.7830 C.3     1  QGF1        0.0487
     15  C13       10.3930  -13.5100   13.2500 C.3     1  QGF1        0.1186
     16  C14       11.1900  -12.2230   12.9530 C.3     1  QGF1        0.0487
     17  C15       11.1510  -11.8900   11.4430 C.3     1  QGF1        0.0979
     18  O16       10.3510  -13.8170   14.6520 O.3     1  QGF1       -0.3514
     19  C17       11.5920  -13.9160   15.3590 C.3     1  QGF1        0.1693
     20  C18       11.3270  -14.1300   16.8280 C.ar    1  QGF1        0.0179
     21  C19       11.1200  -15.4250   17.2890 C.ar    1  QGF1       -0.0001
     22  C20       10.8730  -15.6290   18.6410 C.ar    1  QGF1        0.0112
     23  C21       10.8320  -14.5520   19.5240 C.ar    1  QGF1        0.0585
     24  C23       11.0400  -13.2660   19.0660 C.ar    1  QGF1        0.0225
     25  C24       11.2900  -13.0560   17.7240 C.ar    1  QGF1        0.0569
     26  N26       10.8840  -12.6230    7.9040 N.am    1  QGF1       -0.2811
     27  O27       10.5040  -13.9090    8.3340 O.3     1  QGF1       -0.4195
     28  C28       12.2080  -12.3660    7.9400 C.2     1  QGF1        0.1129
     29  O29       12.9390  -13.2520    8.3480 O.2     1  QGF1       -0.5358
     30  C30       10.8560  -13.4890    4.8720 C.1     1  QGF1        0.0065
     31  N31       10.2350  -14.6690    4.7910 N.2     1  QGF1       -0.1948
     32  C32       10.9270  -15.7920    4.6960 C.2     1  QGF1        0.1363
     33  C33       12.3220  -15.7180    4.6810 C.2     1  QGF1        0.1627
     34  F34       13.0700  -16.8440    4.6020 F       1  QGF1       -0.2051
     35  C35       12.9460  -14.4760    4.7700 C.3     1  QGF1        0.1936
     36  N36       12.1830  -13.3980    4.8620 N.2     1  QGF1       -0.2163
@<TRIPOS>BOND
     1     1     3    1
     2    34    33    1
     3    33    32    2
     4    33    35    1
     5    32    31    1
     6    35    36    1
     7    31    30    2
     8    36    30    2
     9    30     3    1
    10     3     5    1
    11     5     6    1
    12     7     6    1
    13     6    26    1
    14     6     8    1
    15    26    28   am
    16    26    27    1
    17    28    29    2
    18     8     9    1
    19    10     9    2
    20     9    11    2
    21     9    12    1
    22    12    13    1
    23    12    17    1
    24    13    14    1
    25    17    16    1
    26    14    15    1
    27    16    15    1
    28    15    18    1
    29    18    19    1
    30    19    20    1
    31    20    21   ar
    32    20    25   ar
    33     4    25    1
    34    21    22   ar
    35    25    24   ar
    36    22    23   ar
    37    24    23   ar
    38    23     2    1
