@<TRIPOS>MOLECULE
3q2h_QHF_A_1.pdb
 35 37 0 0 0
SMALL
GASTEIGER

@<TRIPOS>ATOM
      1  C1         9.2210  -14.5250    2.4060 C.3     1  QHF1        0.0159
      2  F1        12.8150  -19.1190    3.9190 F       1  QHF1       -0.2051
      3  N1         9.3110  -14.0750    9.6020 N.3     1  QHF1       -0.1594
      4  O1         9.3610  -11.6400    8.8480 O.2     1  QHF1       -0.1572
      5  S1         8.4950  -12.8020    8.8450 S.O2    1  QHF1        0.0455
      6  C2         9.9240  -14.5210    3.7560 C.3     1  QHF1        0.0869
      7  N2        10.1540  -13.9680   18.3050 N.ar    1  QHF1       -0.0821
      8  O2         7.1680  -12.7320    9.4210 O.2     1  QHF1       -0.1572
      9  C3         8.9290  -14.2280    4.8970 C.3     1  QHF1        0.0353
     10  N3        10.4060  -14.6410    6.7830 N.am    1  QHF1       -0.2811
     11  O3        10.0690  -15.3550   18.2270 O.2     1  QHF1       -0.3584
     12  C4         9.4650  -13.6770    6.2230 C.3     1  QHF1        0.0886
     13  N4        11.9730  -15.6910    3.9550 N.2     1  QHF1       -0.1948
     14  O4         9.9380  -15.9220    7.1090 O.3     1  QHF1       -0.4195
     15  C5        10.1940  -12.3920    5.9920 C.3     1  QHF1        0.0223
     16  N5         9.9760  -16.9700    3.6870 N.2     1  QHF1       -0.2163
     17  O5        12.4110  -15.3940    7.5200 O.2     1  QHF1       -0.5358
     18  C6         8.2710  -13.4040    7.1560 C.3     1  QHF1        0.1876
     19  C7         8.3850  -15.0800   10.1790 C.3     1  QHF1        0.0954
     20  C8         8.2660  -14.9340   11.6710 C.3     1  QHF1        0.0192
     21  C9         9.6430  -14.9950   12.3100 C.3     1  QHF1        0.0032
     22  C10        9.4200  -14.9230   13.8120 C.3     1  QHF1        0.0049
     23  C11       10.6680  -14.6630   14.6410 C.3     1  QHF1        0.0305
     24  C12       10.4240  -14.6360   16.1260 C.ar    1  QHF1        0.0274
     25  C13       10.3540  -13.5470   17.0580 C.ar    1  QHF1        0.0966
     26  C14       10.4620  -12.0930   16.9110 C.3     1  QHF1        0.0553
     27  C15       10.2390  -15.7480   16.9290 C.ar    1  QHF1        0.1504
     28  C16       10.1980  -17.2040   16.6760 C.3     1  QHF1        0.0750
     29  C17       10.5150  -13.8380   11.8240 C.3     1  QHF1        0.0192
     30  C18       10.5640  -13.6870   10.3230 C.3     1  QHF1        0.0954
     31  C19       11.7350  -14.4980    7.0400 C.2     1  QHF1        0.1129
     32  C20       10.6570  -15.8280    3.8080 C.1     1  QHF1        0.0065
     33  C21       12.6920  -16.8060    3.9850 C.2     1  QHF1        0.1363
     34  C22       12.0760  -18.0180    3.8790 C.2     1  QHF1        0.1627
     35  C23       10.7090  -18.0780    3.7340 C.3     1  QHF1        0.1936
@<TRIPOS>BOND
     1     1     6    1
     2    16    35    1
     3    16    32    2
     4    35    34    1
     5     6    32    1
     6     6     9    1
     7    32    13    2
     8    34     2    1
     9    34    33    2
    10    13    33    1
    11     9    12    1
    12    15    12    1
    13    12    10    1
    14    12    18    1
    15    10    31   am
    16    10    14    1
    17    31    17    2
    18    18     5    1
    19     5     4    2
    20     5     8    2
    21     5     3    1
    22     3    19    1
    23     3    30    1
    24    19    20    1
    25    30    29    1
    26    20    21    1
    27    29    21    1
    28    21    22    1
    29    22    23    1
    30    23    24    1
    31    24    27   ar
    32    24    25   ar
    33    28    27    1
    34    26    25    1
    35    27    11   ar
    36    25     7   ar
    37    11     7   ar
