@<TRIPOS>MOLECULE
3q2i_NAD_A_1.pdb
 44 48 0 0 0
SMALL
GASTEIGER

@<TRIPOS>ATOM
      1  PA        13.9660   28.4080   27.9910 P.3   500  NAD500      0.2189
      2  O1A       15.0160   27.4640   27.5690 O.2   500  NAD500     -0.5170
      3  O2A       14.2650   29.9720   27.9680 O.3   500  NAD500     -0.4371
      4  O5B       13.4060   28.1110   29.4380 O.3   500  NAD500     -0.3112
      5  C5B       13.9520   26.9230   29.9380 C.3   500  NAD500      0.1813
      6  C4B       13.7070   26.8860   31.4400 C.3   500  NAD500      0.1821
      7  O4B       13.2720   25.6110   31.9440 O.3   500  NAD500     -0.3135
      8  C3B       15.1860   27.0400   31.7990 C.3   500  NAD500      0.2184
      9  O3B       15.3690   28.0990   32.7500 O.3   500  NAD500     -0.2174
     10  C2B       15.6410   25.6300   32.2120 C.3   500  NAD500      0.2570
     11  O2B       16.7150   25.6050   33.1440 O.3   500  NAD500     -0.2130
     12  C1B       14.3130   25.1570   32.8490 C.3   500  NAD500      0.3186
     13  N9A       14.2420   23.7290   33.0550 N.pl3 500  NAD500     -0.1439
     14  C8A       14.6060   22.7500   32.1620 C.3   500  NAD500      0.3377
     15  N7A       14.3260   21.5890   32.6840 N.2   500  NAD500     -0.2095
     16  C5A       13.6790   21.7440   33.8880 C.2   500  NAD500      0.2526
     17  C6A       13.1710   20.8810   34.8810 C.2   500  NAD500      0.4393
     18  N6A       13.1980   19.5090   34.7460 N.pl3 500  NAD500      0.2180
     19  N1A       12.6370   21.4220   35.9890 N.2   500  NAD500      0.0021
     20  C2A       12.6160   22.7310   36.1360 C.3   500  NAD500      0.5254
     21  N3A       13.0790   23.6090   35.2490 N.2   500  NAD500     -0.0055
     22  C4A       13.6430   23.1250   34.1220 C.2   500  NAD500      0.3518
     23  O3        12.6980   28.1680   27.0570 O.3   500  NAD500     -0.2703
     24  PN        11.4920   29.1000   26.7940 P.3   500  NAD500      0.2189
     25  O1N       11.6570   29.8490   25.5020 O.2   500  NAD500     -0.5170
     26  O2N       11.0460   29.9520   28.0070 O.co2 500  NAD500     -0.4371
     27  O5D       10.2850   28.1330   26.2860 O.3   500  NAD500     -0.3112
     28  C5D        9.6450   27.5770   27.4110 C.3   500  NAD500      0.1813
     29  C4D        8.3180   26.9290   27.0270 C.3   500  NAD500      0.1799
     30  O4D        7.4750   28.0240   26.6320 O.3   500  NAD500     -0.3327
     31  C3D        8.3730   26.0390   25.7530 C.3   500  NAD500      0.2158
     32  O3D        7.3740   25.0320   25.9280 O.3   500  NAD500     -0.2175
     33  C2D        7.9160   26.9800   24.6320 C.3   500  NAD500      0.2309
     34  O2D        7.2340   26.2890   23.5880 O.3   500  NAD500     -0.2158
     35  C1D        6.9010   27.9240   25.3410 C.3   500  NAD500      0.2263
     36  N1N        6.7810   29.2140   24.7000 N.pl3 500  NAD500     -0.2787
     37  C2N        5.5850   29.6830   24.4140 C.3   500  NAD500      0.1244
     38  C3N        5.3990   30.8890   23.7270 C.2   500  NAD500      0.0544
     39  C7N        4.0470   31.4190   23.4420 C.2   500  NAD500      0.2818
     40  O7N        3.7630   32.1770   22.5330 O.2   500  NAD500     -0.2670
     41  N7N        2.9950   31.0540   24.2330 N.am  500  NAD500     -0.0839
     42  C4N        6.5570   31.5430   23.2600 C.2   500  NAD500      0.0033
     43  C5N        7.7870   31.0660   23.6780 C.2   500  NAD500      0.0157
     44  C6N        7.8890   29.8960   24.3870 C.2   500  NAD500      0.0633
@<TRIPOS>UNITY_ATOM_ATTR
26 1
charge -1
@<TRIPOS>BOND
     1    40    39    2
     2    42    43    1
     3    42    38    2
     4    39    38    1
     5    39    41   am
     6    34    33    1
     7    43    44    2
     8    38    37    1
     9    44    36    1
    10    37    36    1
    11    33    35    1
    12    33    31    1
    13    36    35    1
    14    35    30    1
    15    25    24    2
    16    31    32    1
    17    31    29    1
    18    27    24    1
    19    27    28    1
    20    30    29    1
    21    24    23    1
    22    24    26    1
    23    29    28    1
    24    23     1    1
    25     2     1    2
    26     3     1    1
    27     1     4    1
    28     4     5    1
    29     5     6    1
    30     6     8    1
    31     6     7    1
    32     8    10    1
    33     8     9    1
    34     7    12    1
    35    14    15    1
    36    14    13    1
    37    10    12    1
    38    10    11    1
    39    15    16    2
    40    12    13    1
    41    13    22    1
    42    16    22    1
    43    16    17    1
    44    22    21    2
    45    18    17    1
    46    17    19    2
    47    21    20    1
    48    19    20    1
