@<TRIPOS>MOLECULE
3q2i_HP7_A_1.pdb
 40 42 0 0 0
SMALL
GASTEIGER

@<TRIPOS>ATOM
      1  N1        14.3040   36.3520   15.2440 N.am  550  HP7550     -0.1766
      2  C2        15.1550   36.6350   14.2580 C.1   550  HP7550      0.2845
      3  O2        16.3260   36.1760   14.3040 O.2   550  HP7550     -0.1918
      4  N3        14.8040   37.4250   13.2390 N.2   550  HP7550     -0.2452
      5  C4        13.5700   37.9440   13.1810 C.1   550  HP7550      0.2182
      6  O4        13.3150   38.7260   12.2340 O.2   550  HP7550     -0.2085
      7  C5        12.6460   37.6590   14.1910 C.2   550  HP7550      0.1242
      8  C6        13.0580   36.8460   15.2390 C.2   550  HP7550      0.0929
      9  PA        10.4370   36.7940   18.6180 P.3   550  HP7550      0.2189
     10  PB         8.1910   35.7370   19.9490 P.3   550  HP7550      0.2208
     11  O'P       10.4630   31.2610   17.9180 O.co2 550  HP7550     -0.2429
     12  O'Q       10.5300   30.6110   20.0210 O.co2 550  HP7550     -0.2429
     13  C1'        7.3480   33.7540   18.4550 C.3   550  HP7550      0.2637
     14  O1A        9.8020   37.5450   17.4580 O.2   550  HP7550     -0.5170
     15  O1B        7.3450   36.7100   19.1620 O.2   550  HP7550     -0.5170
     16  C1C       14.7410   35.4290   16.3000 C.3   550  HP7550      0.2401
     17  C2'        6.0450   32.9360   18.4300 C.3   550  HP7550      0.1845
     18  N2'        4.9190   33.7400   18.9080 N.am  550  HP7550     -0.1992
     19  O2A       10.9070   37.4950   19.8630 O.3   550  HP7550     -0.4371
     20  O2B        8.4420   35.8850   21.4360 O.3   550  HP7550     -0.4371
     21  C2C       15.4210   36.1270   17.4700 C.3   550  HP7550      0.2319
     22  O2C       16.4960   35.2550   17.8360 O.3   550  HP7550     -0.2157
     23  C3'        6.1700   31.6860   19.2910 C.3   550  HP7550      0.2099
     24  O3'        5.0470   30.8440   18.9380 O.3   550  HP7550     -0.2183
     25  O3A        9.5400   35.5540   19.1030 O.3   550  HP7550     -0.2703
     26  O3B        7.5210   34.2570   19.7870 O.3   550  HP7550     -0.2864
     27  C3C       14.3750   36.0590   18.5700 C.3   550  HP7550      0.2158
     28  O3C       14.9900   35.9940   19.8570 O.3   550  HP7550     -0.2175
     29  C4'        7.4690   30.9240   18.9830 C.3   550  HP7550      0.2221
     30  O4'        7.6960   29.8460   19.8840 O.3   550  HP7550     -0.2171
     31  C4C       13.6060   34.7730   18.2830 C.3   550  HP7550      0.1799
     32  O4C       13.5650   34.8290   16.8500 O.3   550  HP7550     -0.3320
     33  C5'        8.6270   31.9120   19.2290 C.3   550  HP7550      0.2529
     34  O5'        8.4760   32.9070   18.2200 O.3   550  HP7550     -0.3173
     35  C5C       12.1890   34.8820   18.8030 C.3   550  HP7550      0.1813
     36  O5C       11.6560   35.9420   18.0190 O.3   550  HP7550     -0.3112
     37  C6'        9.9590   31.2210   19.0660 C.2   550  HP7550      0.3941
     38  C7'        3.8100   34.0480   18.2390 C.2   550  HP7550      0.2420
     39  O7'        3.4780   33.6160   17.1260 O.2   550  HP7550     -0.2733
     40  C8'        2.8800   35.0080   18.9430 C.3   550  HP7550      0.0964
@<TRIPOS>BOND
     1     6     5    2
     2     5     4    2
     3     5     7    1
     4     4     2    2
     5     7     8    2
     6     2     3    2
     7     2     1   am
     8     8     1    1
     9     1    16    1
    10    16    32    1
    11    16    21    1
    12    32    31    1
    13    39    38    2
    14    14     9    2
    15    21    22    1
    16    21    27    1
    17    11    37   ar
    18    36     9    1
    19    36    35    1
    20    34    13    1
    21    34    33    1
    22    38    18   am
    23    38    40    1
    24    31    27    1
    25    31    35    1
    26    17    13    1
    27    17    18    1
    28    17    23    1
    29    13    26    1
    30    27    28    1
    31     9    25    1
    32     9    19    1
    33    24    23    1
    34    29    33    1
    35    29    23    1
    36    29    30    1
    37    37    33    1
    38    37    12   ar
    39    25    10    1
    40    15    10    2
    41    26    10    1
    42    10    20    1
