@<TRIPOS>MOLECULE
3q2j_CKI_A_1.pdb
 18 19 0 0 0
SMALL
GASTEIGER

@<TRIPOS>ATOM
      1  C1        29.2340   10.7470   69.9760 C.ar  300  CKI300      0.1002
      2  N2        28.8390   11.4140   71.0850 N.ar  300  CKI300     -0.2423
      3  C3        27.6260   11.1500   71.6580 C.ar  300  CKI300      0.0989
      4  C4        26.7850   10.1940   71.1220 C.ar  300  CKI300      0.0216
      5  C5        26.3390    8.3940   69.3230 C.ar  300  CKI300      0.0578
      6 CL5        24.8400    7.9800   69.9300 Cl    300  CKI300     -0.0822
      7  C6        26.7830    7.6990   68.1600 C.ar  300  CKI300      0.0128
      8  C7        28.0050    8.0030   67.6070 C.ar  300  CKI300      0.0212
      9  C8        28.8420    9.0130   68.1990 C.ar  300  CKI300      0.1286
     10  C9        28.4050    9.7360   69.3860 C.ar  300  CKI300      0.0389
     11  C10       27.1770    9.4410   69.9370 C.ar  300  CKI300      0.0149
     12  S         30.3800    9.3200   67.4130 S.O2  300  CKI300      0.0930
     13  O1S       31.4990    8.9680   68.3160 O.2   300  CKI300     -0.1483
     14  O2S       30.4760   10.7980   67.0700 O.2   300  CKI300     -0.1483
     15  N1'       30.4370    8.4430   66.0270 N.pl3 300  CKI300     -0.0937
     16  C1'       31.0630    7.1270   66.2590 C.2   300  CKI300      0.1270
     17  C2'       30.7990    6.4130   67.5980 C.2   300  CKI300      0.1251
     18  N2'       31.5860    5.2200   67.9390 N.pl3 300  CKI300     -0.1251
@<TRIPOS>BOND
     1    15    16    1
     2    15    12    1
     3    16    17    2
     4    14    12    2
     5    12     9    1
     6    12    13    2
     7    17    18    1
     8     8     7   ar
     9     8     9   ar
    10     7     5   ar
    11     9    10   ar
    12     5     6    1
    13     5    11   ar
    14    10    11   ar
    15    10     1   ar
    16    11     4   ar
    17     1     2   ar
    18     2     3   ar
    19     4     3   ar
