@<TRIPOS>MOLECULE
3q2k_NAD_A_1.pdb
 44 48 0 0 0
SMALL
GASTEIGER

@<TRIPOS>ATOM
      1  PA        10.0990   32.4460   45.6210 P.3   500  NAD500      0.2189
      2  O1A       11.5190   32.4640   46.0760 O.3   500  NAD500     -0.4371
      3  O2A        9.5890   33.8910   45.1680 O.2   500  NAD500     -0.5170
      4  O5B        9.0640   32.2220   46.8290 O.3   500  NAD500     -0.3112
      5  C5B        9.6570   31.3150   47.7520 C.3   500  NAD500      0.1813
      6  C4B        9.0990   31.4430   49.1740 C.3   500  NAD500      0.1821
      7  O4B        9.3570   30.2320   49.9040 O.3   500  NAD500     -0.3135
      8  C3B        9.9400   32.5340   49.8720 C.3   500  NAD500      0.2184
      9  O3B        9.0830   33.3760   50.6500 O.3   500  NAD500     -0.2174
     10  C2B       10.9100   31.7360   50.7810 C.3   500  NAD500      0.2570
     11  O2B       11.2030   32.5250   51.9370 O.3   500  NAD500     -0.2130
     12  C1B       10.0020   30.5370   51.1530 C.3   500  NAD500      0.3186
     13  N9A       10.6610   29.3240   51.6430 N.pl3 500  NAD500     -0.1439
     14  C8A       11.8710   28.7830   51.3190 C.3   500  NAD500      0.3377
     15  N7A       12.0500   27.6750   51.9820 N.2   500  NAD500     -0.2095
     16  C5A       10.9880   27.4100   52.7760 C.2   500  NAD500      0.2526
     17  C6A       10.6210   26.4440   53.7290 C.2   500  NAD500      0.4393
     18  N6A       11.4450   25.3890   54.0570 N.pl3 500  NAD500      0.2180
     19  N1A        9.4480   26.5490   54.3420 N.2   500  NAD500      0.0021
     20  C2A        8.6230   27.5470   54.0970 C.3   500  NAD500      0.5254
     21  N3A        8.9460   28.4780   53.2210 N.2   500  NAD500     -0.0055
     22  C4A       10.1010   28.4820   52.5680 C.2   500  NAD500      0.3518
     23  O3         9.9700   31.6900   44.2150 O.3   500  NAD500     -0.2703
     24  PN         8.4960   31.4680   43.6190 P.3   500  NAD500      0.2189
     25  O1N        8.7180   32.2370   42.3050 O.2   500  NAD500     -0.5170
     26  O2N        7.2600   32.1820   44.1930 O.3   500  NAD500     -0.4371
     27  O5D        8.2240   30.0080   42.9970 O.3   500  NAD500     -0.3112
     28  C5D        7.3410   29.3250   43.8750 C.3   500  NAD500      0.1813
     29  C4D        7.0520   27.9060   43.3910 C.3   500  NAD500      0.1799
     30  O4D        5.8760   28.0260   42.5510 O.3   500  NAD500     -0.3327
     31  C3D        8.1530   27.2590   42.5160 C.3   500  NAD500      0.2158
     32  O3D        7.9820   25.8440   42.6620 O.3   500  NAD500     -0.2175
     33  C2D        7.7450   27.7870   41.1150 C.3   500  NAD500      0.2309
     34  O2D        8.0760   26.8500   40.0770 O.3   500  NAD500     -0.2158
     35  C1D        6.2000   27.9040   41.1470 C.3   500  NAD500      0.2263
     36  N1N        5.5320   28.9090   40.3010 N.pl3 500  NAD500     -0.2787
     37  C2N        4.4890   28.5110   39.5920 C.3   500  NAD500      0.1244
     38  C3N        3.8030   29.4140   38.7800 C.2   500  NAD500      0.0544
     39  C7N        2.6740   29.0100   37.9150 C.2   500  NAD500      0.2818
     40  O7N        2.4500   29.7890   37.0060 O.2   500  NAD500     -0.2670
     41  N7N        1.9600   27.8690   38.0580 N.am  500  NAD500     -0.0839
     42  C4N        4.2300   30.7510   38.7270 C.2   500  NAD500      0.0033
     43  C5N        5.3300   31.1140   39.4880 C.2   500  NAD500      0.0157
     44  C6N        5.9510   30.1600   40.2850 C.2   500  NAD500      0.0633
@<TRIPOS>BOND
     1    40    39    2
     2    39    41   am
     3    39    38    1
     4    42    38    2
     5    42    43    1
     6    38    37    1
     7    43    44    2
     8    37    36    1
     9    34    33    1
    10    44    36    1
    11    36    35    1
    12    33    35    1
    13    33    31    1
    14    35    30    1
    15    25    24    2
    16    31    32    1
    17    31    29    1
    18    30    29    1
    19    27    24    1
    20    27    28    1
    21    29    28    1
    22    24    26    1
    23    24    23    1
    24    23     1    1
    25     3     1    2
    26     1     2    1
    27     1     4    1
    28     4     5    1
    29     5     6    1
    30     6     8    1
    31     6     7    1
    32     8     9    1
    33     8    10    1
    34     7    12    1
    35    10    12    1
    36    10    11    1
    37    12    13    1
    38    14    13    1
    39    14    15    1
    40    13    22    1
    41    15    16    2
    42    22    16    1
    43    22    21    2
    44    16    17    1
    45    21    20    1
    46    17    18    1
    47    17    19    2
    48    20    19    1
