@<TRIPOS>MOLECULE
3q2k_HP7_A_1.pdb
 40 42 0 0 0
SMALL
GASTEIGER

@<TRIPOS>ATOM
      1  N1        10.3570   38.3410   32.4700 N.am  550  HP7550     -0.1766
      2  C2        11.2320   39.0340   31.7420 C.1   550  HP7550      0.2845
      3  O2        12.3160   39.3650   32.2850 O.2   550  HP7550     -0.1918
      4  N3        10.9250   39.3670   30.4680 N.2   550  HP7550     -0.2452
      5  C4         9.7560   38.9370   29.9450 C.1   550  HP7550      0.2182
      6  O4         9.5240   39.2480   28.7610 O.2   550  HP7550     -0.2085
      7  C5         8.8440   38.1930   30.6770 C.2   550  HP7550      0.1242
      8  C6         9.1780   37.9140   32.0030 C.2   550  HP7550      0.0929
      9  PA         6.2750   36.3660   34.5500 P.3   550  HP7550      0.2189
     10  PB         4.5250   34.2440   35.6230 P.3   550  HP7550      0.2208
     11  O'P        9.9600   32.1660   35.5800 O.co2 550  HP7550     -0.2429
     12  O'Q        9.4780   32.1580   37.6780 O.co2 550  HP7550     -0.2429
     13  C1'        5.9310   32.0940   34.7300 C.3   550  HP7550      0.2637
     14  O1A        5.8390   36.8020   33.1730 O.2   550  HP7550     -0.5170
     15  O1B        3.2490   34.2240   34.8150 O.2   550  HP7550     -0.5170
     16  C1C       10.8660   38.0830   33.8170 C.3   550  HP7550      0.2401
     17  C2'        5.5150   30.6280   34.6810 C.3   550  HP7550      0.1845
     18  N2'        4.0740   30.4190   34.6820 N.am  550  HP7550     -0.1992
     19  O2A        6.1190   37.2510   35.7630 O.3   550  HP7550     -0.4371
     20  O2B        4.4390   34.7160   37.0580 O.3   550  HP7550     -0.4371
     21  C2C       10.3240   39.0780   34.8390 C.3   550  HP7550      0.2319
     22  O2C       11.4050   39.1480   35.7760 O.3   550  HP7550     -0.2157
     23  C3'        6.0270   29.9290   35.9300 C.3   550  HP7550      0.2099
     24  O3'        5.6750   28.5480   35.7630 O.3   550  HP7550     -0.2183
     25  O3A        5.7700   34.8580   34.7980 O.3   550  HP7550     -0.2703
     26  O3B        5.1170   32.7380   35.7090 O.3   550  HP7550     -0.2864
     27  C3C        9.2880   38.2510   35.5840 C.3   550  HP7550      0.2158
     28  O3C        9.2460   38.7500   36.9240 O.3   550  HP7550     -0.2175
     29  C4'        7.5070   30.1610   36.2190 C.3   550  HP7550      0.2221
     30  O4'        7.8960   29.7060   37.5230 O.3   550  HP7550     -0.2171
     31  C4C        9.8560   36.8320   35.5060 C.3   550  HP7550      0.1799
     32  O4C       10.5500   36.7670   34.2580 O.3   550  HP7550     -0.3320
     33  C5'        7.6800   31.6650   36.2840 C.3   550  HP7550      0.2529
     34  O5'        7.3280   32.1870   35.0040 O.3   550  HP7550     -0.3173
     35  C5C        8.6940   35.8460   35.5130 C.3   550  HP7550      0.1813
     36  O5C        7.8670   36.1990   34.4060 O.3   550  HP7550     -0.3112
     37  C6'        9.1240   31.9920   36.4970 C.2   550  HP7550      0.3941
     38  C7'        3.3800   30.3740   33.5400 C.2   550  HP7550      0.2420
     39  O7'        3.9490   30.4860   32.4690 O.2   550  HP7550     -0.2733
     40  C8'        1.8900   30.1810   33.4400 C.3   550  HP7550      0.0964
@<TRIPOS>BOND
     1     6     5    2
     2     5     4    2
     3     5     7    1
     4     4     2    2
     5     7     8    2
     6     2     3    2
     7     2     1   am
     8     8     1    1
     9    39    38    2
    10     1    16    1
    11    14     9    2
    12    40    38    1
    13    38    18   am
    14    16    32    1
    15    16    21    1
    16    32    31    1
    17    36     9    1
    18    36    35    1
    19     9    25    1
    20     9    19    1
    21    17    18    1
    22    17    13    1
    23    17    23    1
    24    13    34    1
    25    13    26    1
    26    25    10    1
    27    15    10    2
    28    21    27    1
    29    21    22    1
    30    34    33    1
    31    31    35    1
    32    31    27    1
    33    11    37   ar
    34    27    28    1
    35    10    26    1
    36    10    20    1
    37    24    23    1
    38    23    29    1
    39    29    33    1
    40    29    30    1
    41    33    37    1
    42    37    12   ar
