@<TRIPOS>MOLECULE
3q2m_CKI_A_1.pdb
 18 19 0 0 0
SMALL
GASTEIGER

@<TRIPOS>ATOM
      1  C1        -2.4990   25.7210   34.9530 C.ar  400  CKI400      0.1002
      2  N2        -3.7550   25.3540   34.4580 N.ar  400  CKI400     -0.2423
      3  C3        -4.2200   26.0290   33.3340 C.ar  400  CKI400      0.0989
      4  C4        -3.4820   27.0690   32.6710 C.ar  400  CKI400      0.0216
      5  C5        -1.3960   28.4810   32.5650 C.ar  400  CKI400      0.0578
      6 CL5        -1.9380   29.3370   31.1660 Cl    400  CKI400     -0.0822
      7  C6        -0.1200   28.8300   33.1050 C.ar  400  CKI400      0.0128
      8  C7         0.3890   28.1610   34.2620 C.ar  400  CKI400      0.0214
      9  C8        -0.3670   27.1200   34.9030 C.ar  400  CKI400      0.1307
     10  C9        -1.6780   26.7520   34.3600 C.ar  400  CKI400      0.0391
     11  C10       -2.1920   27.4400   33.1870 C.ar  400  CKI400      0.0149
     12  S          0.3790   26.3510   36.3540 S.O2  400  CKI400      0.1003
     13  O1S       -0.0940   27.0960   37.4950 O.2   400  CKI400     -0.1463
     14  O2S        1.7900   26.4910   36.1770 O.2   400  CKI400     -0.1463
     15  N1'       -0.0870   24.7070   36.5620 N.2   400  CKI400     -0.1294
     16  C1'        0.9110   23.5600   36.5900 C.2   400  CKI400      0.1156
     17  C2'        2.4410   23.7290   36.3760 C.3   400  CKI400      0.1577
     18  N2'        2.7990   24.7910   35.4460 N.3   400  CKI400     -0.1244
@<TRIPOS>BOND
     1     6     5    1
     2     5     7   ar
     3     5    11   ar
     4     4    11   ar
     5     4     3   ar
     6     7     8   ar
     7    11    10   ar
     8     3     2   ar
     9     8     9   ar
    10    10     9   ar
    11    10     1   ar
    12     2     1   ar
    13     9    12    1
    14    18    17    1
    15    14    12    2
    16    12    15    1
    17    12    13    2
    18    17    16    1
    19    15    16    2
