@<TRIPOS>MOLECULE
3q2q_IPE_A_1.pdb
 14 13 0 0 0
SMALL
GASTEIGER

@<TRIPOS>ATOM
      1  C1        42.0280  -29.8370    8.8920 C.3   359  IPE359      0.1747
      2  O1        42.3070  -30.3070   10.2100 O.3   359  IPE359     -0.3089
      3  C2        43.3310  -29.5800    8.1760 C.2   359  IPE359     -0.0024
      4  C3        44.3170  -28.9110    8.7880 C.2   359  IPE359     -0.0454
      5  C4        45.6060  -28.6660    8.0690 C.3   359  IPE359      0.0261
      6  C5        44.1300  -28.4140   10.2010 C.3   359  IPE359      0.0261
      7  PA        41.1510  -31.0080   11.0860 P.3   359  IPE359      0.2233
      8  O1A       41.0110  -30.2630   12.3960 O.3   359  IPE359     -0.4370
      9  O2A       41.3820  -32.5000   11.0710 O.2   359  IPE359     -0.5169
     10  O3A       39.8390  -30.7300   10.2030 O.3   359  IPE359     -0.2261
     11  PB        38.7560  -31.9060   10.0410 P.3   359  IPE359      0.5373
     12  O1B       37.6570  -31.2430    9.2460 O.2   359  IPE359     -0.2221
     13  O2B       38.4020  -32.2370   11.4710 O.3   359  IPE359     -0.1143
     14  O3B       39.5000  -33.0040    9.3100 O.3   359  IPE359     -0.1143
@<TRIPOS>BOND
     1     5     4    1
     2     3     4    2
     3     3     1    1
     4     4     6    1
     5     1     2    1
     6    12    11    2
     7    14    11    1
     8    11    10    1
     9    11    13    1
    10    10     7    1
    11     2     7    1
    12     9     7    2
    13     7     8    1
