@<TRIPOS>MOLECULE
3q2v_MAN_A_1.pdb
 11 11 0 0 0
SMALL
GASTEIGER

@<TRIPOS>ATOM
      1  C1        41.6010   -2.1250   63.5880 C.3   801  MAN801      0.1777
      2  C2        40.6710   -2.5270   64.7370 C.3   801  MAN801      0.2141
      3  C3        41.4540   -2.8860   66.0030 C.3   801  MAN801      0.2173
      4  C4        42.5930   -3.8620   65.7080 C.3   801  MAN801      0.2142
      5  C5        43.4610   -3.3560   64.5520 C.3   801  MAN801      0.1810
      6  C6        44.5350   -4.3750   64.1720 C.3   801  MAN801      0.2141
      7  O2        39.8670   -3.6150   64.3320 O.3   801  MAN801     -0.2176
      8  O3        40.5850   -3.4340   66.9700 O.3   801  MAN801     -0.2175
      9  O4        43.3750   -4.0260   66.8700 O.3   801  MAN801     -0.2176
     10  O5        42.6600   -3.0600   63.4140 O.3   801  MAN801     -0.3481
     11  O6        44.8130   -4.3190   62.7860 O.3   801  MAN801     -0.2176
@<TRIPOS>BOND
     1    11     6    1
     2    10     1    1
     3    10     5    1
     4     1     2    1
     5     6     5    1
     6     7     2    1
     7     5     4    1
     8     2     3    1
     9     4     3    1
    10     4     9    1
    11     3     8    1
