@<TRIPOS>MOLECULE
3q2w_MAN_A_1.pdb
 11 11 0 0 0
SMALL
GASTEIGER

@<TRIPOS>ATOM
      1  C1         4.7670   20.0750   23.7540 C.3   701  MAN701      0.1777
      2  C2         5.0010   18.9360   24.7340 C.3   701  MAN701      0.2141
      3  C3         3.8870   17.9010   24.5710 C.3   701  MAN701      0.2173
      4  C4         2.4840   18.5080   24.3830 C.3   701  MAN701      0.2142
      5  C5         2.4450   19.8910   23.7100 C.3   701  MAN701      0.1810
      6  C6         1.1610   20.6540   24.0280 C.3   701  MAN701      0.2141
      7  O2         5.0120   19.4570   26.0460 O.3   701  MAN701     -0.2176
      8  O3         3.8830   17.0400   25.6900 O.3   701  MAN701     -0.2175
      9  O4         1.7240   17.6210   23.5900 O.3   701  MAN701     -0.2176
     10  O5         3.5470   20.6860   24.1010 O.3   701  MAN701     -0.3481
     11  O6         1.1630   21.0750   25.3790 O.3   701  MAN701     -0.2176
@<TRIPOS>BOND
     1     9     4    1
     2     5     6    1
     3     5    10    1
     4     5     4    1
     5     1    10    1
     6     1     2    1
     7     6    11    1
     8     4     3    1
     9     3     2    1
    10     3     8    1
    11     2     7    1
