@<TRIPOS>MOLECULE
3q2y_ET_A_1.pdb
 24 27 0 0 0
SMALL
GASTEIGER

@<TRIPOS>ATOM
      1  C1        57.0570   21.9010   63.3700 C.3   285  ET285       0.0550
      2  C2        57.8300   22.2010   62.2520 C.2   285  ET285      -0.0033
      3  C3        58.7970   23.1920   62.3850 C.2   285  ET285       0.0864
      4  C4        59.0010   23.8620   63.5920 C.2   285  ET285       0.0322
      5  N5        58.4560   24.2490   65.9460 N.pl3 285  ET285      -0.2871
      6  C6        57.7100   23.9980   67.0890 C.2   285  ET285       0.0515
      7  C7        55.7740   22.6160   68.0660 C.ar  285  ET285       0.0193
      8  C8        54.7680   21.6300   67.9650 C.ar  285  ET285       0.0891
      9  C9        54.5910   20.9710   66.7410 C.ar  285  ET285       0.0180
     10  C10       55.4110   21.2910   65.6490 C.ar  285  ET285       0.0012
     11  C11       56.6150   22.9440   66.9780 C.ar  285  ET285       0.0147
     12  C12       56.4120   22.2580   65.7670 C.ar  285  ET285      -0.0012
     13  C13       57.2530   22.5810   64.5890 C.2   285  ET285      -0.0040
     14  C14       58.2320   23.5840   64.7420 C.2   285  ET285       0.0492
     15  C15       57.8810   24.8070   68.3970 C.ar  285  ET285       0.0136
     16  C16       59.1060   25.1480   68.9950 C.ar  285  ET285       0.0012
     17  C17       59.1190   25.9370   70.1680 C.ar  285  ET285       0.0000
     18  C18       57.9690   26.4380   70.7950 C.ar  285  ET285       0.0000
     19  C19       56.7460   26.1440   70.2120 C.ar  285  ET285       0.0000
     20  C20       56.7250   25.3630   69.0340 C.ar  285  ET285       0.0012
     21  C21       59.5110   25.2970   66.0170 C.3   285  ET285       0.0956
     22  C22       60.8540   24.9320   65.3940 C.3   285  ET285       0.0236
     23  N23       59.5820   23.5250   61.3520 N.pl3 285  ET285      -0.1283
     24  N24       53.9710   21.3070   69.0320 N.pl3 285  ET285      -0.1281
@<TRIPOS>BOND
     1    23     3    1
     2     2     3    2
     3     2     1    1
     4     3     4    1
     5     1    13    1
     6     4    14    2
     7    13    14    1
     8    13    12    2
     9    14     5    1
    10    22    21    1
    11    10    12   ar
    12    10     9   ar
    13    12    11   ar
    14     5    21    1
    15     5     6    1
    16     9     8   ar
    17    11     6    2
    18    11     7   ar
    19     6    15    1
    20     8     7   ar
    21     8    24    1
    22    15    16   ar
    23    15    20   ar
    24    16    17   ar
    25    20    19   ar
    26    17    18   ar
    27    19    18   ar
