@<TRIPOS>MOLECULE
3q2z_D9A_A_1.pdb
 40 42 0 0 0
SMALL
GASTEIGER

@<TRIPOS>ATOM
      1  C1        16.9000   -1.8260   54.7650 C.ar  700  D9A700      0.0234
      2 CL1        14.6380   -0.1760   51.9820 Cl    700  D9A700     -0.0823
      3  C2        16.2890   -3.0820   54.9620 C.ar  700  D9A700      0.0525
      4  N3        16.8270   -4.0240   55.9870 N.am  700  D9A700     -0.2569
      5  C4        16.9780   -3.5430   57.2600 C.2   700  D9A700      0.2570
      6  C5        16.7760   -2.0400   57.6120 C.3   700  D9A700      0.2011
      7  O6        17.7120   -1.1260   57.0110 O.3   700  D9A700     -0.3400
      8  C7        18.0960   -1.4160   55.6250 C.3   700  D9A700      0.1645
      9  C8        15.1760   -3.4300   54.1810 C.ar  700  D9A700      0.0155
     10  C9        14.6910   -2.5250   53.2320 C.ar  700  D9A700      0.0127
     11  C10       15.2720   -1.3010   53.1130 C.ar  700  D9A700      0.0575
     12  C11       16.3790   -0.9190   53.8460 C.ar  700  D9A700      0.0110
     13  C12       18.9400   -0.2230   55.1130 C.ar  700  D9A700      0.0458
     14  C13       18.7440    1.0560   55.6110 C.ar  700  D9A700      0.0016
     15  C14       19.5500    2.1060   55.1280 C.ar  700  D9A700      0.0031
     16  C15       20.5340    1.8640   54.1840 C.ar  700  D9A700      0.0400
     17  C16       20.7210    0.5660   53.6830 C.ar  700  D9A700      0.1722
     18  C17       19.9380   -0.4710   54.1610 C.ar  700  D9A700      0.1709
     19  O18       21.7310    0.3810   52.7170 O.3   700  D9A700     -0.4684
     20  C19       22.5690    1.4550   52.2390 C.3   700  D9A700      0.2526
     21  O20       20.1330   -1.7600   53.6400 O.3   700  D9A700     -0.4686
     22  C21       21.4460   -2.3740   53.6690 C.3   700  D9A700      0.2526
     23  O22       17.2780   -4.2940   58.1450 O.2   700  D9A700     -0.2719
     24  C23       16.7680   -5.5140   55.8160 C.3   700  D9A700      0.0981
     25  C24       18.1220   -6.0120   55.1500 C.3   700  D9A700      0.0187
     26  C25       18.0280   -7.5560   55.0180 C.3   700  D9A700      0.0017
     27  C26       19.3170   -5.6200   56.0250 C.3   700  D9A700      0.0017
     28  C27       18.4530   -5.4020   53.7870 C.3   700  D9A700      0.0017
     29  C28       16.6680   -1.6780   59.0950 C.3   700  D9A700      0.1258
     30  C29       15.3670   -2.2390   59.6200 C.2   700  D9A700      0.2448
     31  N30       15.2420   -2.2260   60.8990 N.am  700  D9A700     -0.1949
     32  C31       14.4130   -3.2680   61.5230 C.3   700  D9A700      0.2090
     33  C32       15.1910   -3.8880   62.7030 C.3   700  D9A700      0.1472
     34  C33       15.4700   -5.3420   62.3420 C.2   700  D9A700      0.3672
     35  O34       16.4680   -5.9800   62.8090 O.co2 700  D9A700     -0.2456
     36  O35       14.6230   -5.8180   61.5300 O.co2 700  D9A700     -0.2456
     37  O36       14.5290   -2.7270   58.8990 O.2   700  D9A700     -0.2732
     38  C38       13.1230   -2.6310   62.0490 C.2   700  D9A700      0.3848
     39  O39       12.0590   -3.2010   61.6640 O.co2 700  D9A700     -0.2437
     40  O40       13.2040   -1.6200   62.8090 O.co2 700  D9A700     -0.2437
@<TRIPOS>BOND
     1     2    11    1
     2    20    19    1
     3    19    17    1
     4    11    10   ar
     5    11    12   ar
     6    10     9   ar
     7    21    22    1
     8    21    18    1
     9    17    18   ar
    10    17    16   ar
    11    28    25    1
    12    12     1   ar
    13    18    13   ar
    14     9     3   ar
    15    16    15   ar
    16     1     3   ar
    17     1     8    1
    18     3     4    1
    19    26    25    1
    20    13    14   ar
    21    13     8    1
    22    15    14   ar
    23    25    24    1
    24    25    27    1
    25     8     7    1
    26    24     4    1
    27     4     5   am
    28     7     6    1
    29     5     6    1
    30     5    23    2
    31     6    29    1
    32    37    30    2
    33    29    30    1
    34    30    31   am
    35    31    32    1
    36    32    38    1
    37    32    33    1
    38    36    34   ar
    39    39    38   ar
    40    38    40   ar
    41    34    33    1
    42    34    35   ar
