@<TRIPOS>MOLECULE
3q30_D61_A_1.pdb
 44 47 0 0 0
SMALL
GASTEIGER

@<TRIPOS>ATOM
      1  C1        22.7870    1.7000   53.3040 C.ar  700  D61700     -0.0000
      2  C2        21.5630    1.8240   54.0040 C.ar  700  D61700     -0.0000
      3  C3        20.7270    0.7160   54.2340 C.ar  700  D61700     -0.0000
      4  C4        21.1160   -0.5660   53.7660 C.ar  700  D61700     -0.0003
      5  C5        22.3570   -0.6900   53.0550 C.ar  700  D61700     -0.0000
      6  C6        23.1870    0.4520   52.8380 C.ar  700  D61700     -0.0000
      7  C7        22.7650   -1.9540   52.5600 C.ar  700  D61700     -0.0003
      8  C8        21.9730   -3.0810   52.7660 C.ar  700  D61700     -0.0043
      9  C9        20.7510   -2.9760   53.4490 C.ar  700  D61700     -0.0222
     10  C10       20.3070   -1.7230   53.9590 C.ar  700  D61700     -0.0043
     11  C11       19.9540   -4.2650   53.6540 C.3   700  D61700      0.0264
     12  C12       20.5800   -5.0500   54.8330 C.3   700  D61700      0.0047
     13  C13       19.6660   -6.2260   55.2390 C.3   700  D61700      0.0022
     14  C14       19.5530   -6.3830   56.7800 C.3   700  D61700      0.0234
     15  C15       18.4650   -7.4020   57.1930 C.3   700  D61700      0.1152
     16  N16       18.5210   -8.5930   56.3040 N.am  700  D61700     -0.2033
     17  C17       17.4760   -8.9400   55.5320 C.2   700  D61700      0.2716
     18  O18       16.4500   -8.2650   55.4320 O.2   700  D61700     -0.2706
     19  C19       17.5320  -10.2650   54.7760 C.3   700  D61700      0.2309
     20  O20       16.7570  -10.1420   53.5480 O.3   700  D61700     -0.3444
     21  C21       17.4190  -10.1090   52.2720 C.3   700  D61700      0.1428
     22  C22       16.5350   -9.6010   51.1280 C.3   700  D61700      0.0321
     23  C23       15.4460   -8.5490   51.4960 C.3   700  D61700      0.0029
     24  C24       16.0270   -7.1200   51.6340 C.3   700  D61700      0.0048
     25  C25       14.9660   -6.1180   52.0490 C.3   700  D61700      0.0264
     26  C26       15.4180   -4.6900   52.3980 C.ar  700  D61700     -0.0222
     27  C27       15.9600   -4.3870   53.6560 C.ar  700  D61700     -0.0043
     28  C28       16.3370   -3.0810   53.9720 C.ar  700  D61700     -0.0003
     29  C29       16.1390   -2.0710   53.0220 C.ar  700  D61700     -0.0000
     30  C30       15.5860   -2.3830   51.7300 C.ar  700  D61700     -0.0003
     31  C31       15.2340   -3.6850   51.4340 C.ar  700  D61700     -0.0043
     32  C32       15.4010   -1.3770   50.7800 C.ar  700  D61700     -0.0000
     33  C33       15.7530   -0.0670   51.0880 C.ar  700  D61700     -0.0000
     34  C34       16.2810    0.2300   52.3430 C.ar  700  D61700     -0.0000
     35  C35       16.4800   -0.7520   53.3020 C.ar  700  D61700     -0.0000
     36  C36       16.8470  -11.3620   55.6270 C.3   700  D61700      0.2548
     37  O37       15.4560  -10.9410   55.8730 O.3   700  D61700     -0.3315
     38  C38       14.9650  -10.6330   57.2280 C.3   700  D61700      0.2570
     39  C39       13.4430  -10.7890   57.3870 C.2   700  D61700      0.3945
     40  O40       12.8880  -10.1720   58.3430 O.co2 700  D61700     -0.2428
     41  O41       12.8200  -11.5140   56.5450 O.co2 700  D61700     -0.2428
     42  C42       16.9700  -12.6910   54.8510 C.2   700  D61700      0.3944
     43  O43       15.9280  -13.2960   54.4770 O.co2 700  D61700     -0.2428
     44  O44       18.1400  -13.0950   54.5880 O.co2 700  D61700     -0.2428
@<TRIPOS>BOND
     1    32    33   ar
     2    32    30   ar
     3    33    34   ar
     4    22    23    1
     5    22    21    1
     6    31    30   ar
     7    31    26   ar
     8    23    24    1
     9    24    25    1
    10    30    29   ar
    11    25    26    1
    12    21    20    1
    13    34    35   ar
    14    26    27   ar
    15     7     8   ar
    16     7     5   ar
    17     8     9   ar
    18     6     5   ar
    19     6     1   ar
    20    29    35   ar
    21    29    28   ar
    22     5     4   ar
    23     1     2   ar
    24     9    11    1
    25     9    10   ar
    26    20    19    1
    27    11    12    1
    28    27    28   ar
    29     4    10   ar
    30     4     3   ar
    31     2     3   ar
    32    43    42   ar
    33    44    42   ar
    34    19    17    1
    35    19    36    1
    36    12    13    1
    37    42    36    1
    38    13    14    1
    39    18    17    2
    40    17    16   am
    41    36    37    1
    42    37    38    1
    43    16    15    1
    44    41    39   ar
    45    14    15    1
    46    38    39    1
    47    39    40   ar
