@<TRIPOS>MOLECULE
3q32_J2I_A_1.pdb
 35 39 0 0 0
SMALL
GASTEIGER

@<TRIPOS>ATOM
      1  C1        -2.7510   42.7110    6.0000 C.ar    1  J2I1        0.0225
      2  C2        -3.7070   42.8030    4.9510 C.ar    1  J2I1        0.0272
      3  C3        -1.1580   49.1080   -3.8780 C.ar    1  J2I1        0.0663
      4  C4         0.3390   50.5360   -2.6200 C.ar    1  J2I1        0.0663
      5  C5        -5.0660   44.7730   -0.0490 C.3     1  J2I1        0.1690
      6  C6        -1.6480   43.4700    5.6280 C.ar    1  J2I1        0.1014
      7  C7         0.9040   48.1990   -2.9760 C.ar    1  J2I1        0.0421
      8  C8        -0.8400   50.3780   -3.3560 C.ar    1  J2I1        0.1432
      9  C9        -0.2690   48.0290   -3.7050 C.ar    1  J2I1        0.1418
     10  C10        1.2070   49.4570   -2.4240 C.ar    1  J2I1        0.1418
     11  C11       -3.1230   43.5510    3.9450 C.ar    1  J2I1        0.1567
     12  C12       -6.1110   44.7360   -0.9670 C.2     1  J2I1        0.0959
     13  C13       -5.5060   43.9340    1.0080 C.2     1  J2I1        0.3772
     14  C14       -3.5460   43.9190    2.6250 C.2     1  J2I1        0.3430
     15  C15       -1.4840   45.0600    2.4260 C.1     1  J2I1        0.1687
     16  C16        2.1950   46.7040   -1.4210 C.2     1  J2I1        0.2303
     17  C17        0.6150   46.2740    1.9270 C.3     1  J2I1        0.1238
     18  C18       -1.2240   46.2260    0.2590 C.3     1  J2I1        0.1238
     19  C19        1.6500   45.9720    0.8540 C.3     1  J2I1        0.1156
     20  C20       -0.2180   46.0370   -0.8700 C.3     1  J2I1        0.1156
     21  C21       -6.3420   45.3320   -2.3060 C.3     1  J2I1        0.0520
     22  C22       -1.5520   52.4150   -4.4590 C.3     1  J2I1        0.2525
     23  C23        1.8020   47.0030   -2.8420 C.3     1  J2I1        0.1160
     24  N24       -6.7280   43.4460    0.7890 N.2     1  J2I1        0.0793
     25  N25       -2.7610   44.7310    1.9770 N.2     1  J2I1       -0.2918
     26  N26       -1.0010   44.6640    3.5980 N.2     1  J2I1       -0.0847
     27  N27       -7.0350   43.8770   -0.4490 N.2     1  J2I1       -0.0426
     28  N28       -1.8700   43.9600    4.3680 N.ar    1  J2I1       -0.2120
     29  N29       -0.7020   45.7470    1.5440 N.pl3   1  J2I1       -0.2389
     30  N30        1.2130   46.2720   -0.5270 N.am    1  J2I1       -0.2757
     31  N31       -4.8110   43.6440    2.1800 N.pl3   1  J2I1        0.0280
     32  O32        3.3770   46.8710   -1.1030 O.2     1  J2I1       -0.2745
     33  O33       -1.7030   51.4370   -3.4420 O.3     1  J2I1       -0.4713
     34  F34       -0.5080   46.8080   -4.2080 F       1  J2I1       -0.2043
     35  F35        2.3330   49.6760   -1.7400 F       1  J2I1       -0.2043
@<TRIPOS>BOND
     1    22    33    1
     2    34     9    1
     3     3     9   ar
     4     3     8   ar
     5     9     7   ar
     6    33     8    1
     7     8     4   ar
     8     7    23    1
     9     7    10   ar
    10    23    16    1
    11     4    10   ar
    12    10    35    1
    13    21    12    1
    14    16    32    2
    15    16    30   am
    16    12    27    2
    17    12     5    1
    18    20    30    1
    19    20    18    1
    20    30    19    1
    21    27    24    1
    22     5    13    1
    23    18    29    1
    24    24    13    2
    25    19    17    1
    26    13    31    1
    27    29    17    1
    28    29    15    1
    29    25    15    2
    30    25    14    2
    31    31    14    1
    32    15    26    2
    33    14    11    1
    34    26    28    1
    35    11    28   ar
    36    11     2   ar
    37    28     6   ar
    38     2     1   ar
    39     6     1   ar
