@<TRIPOS>MOLECULE
3q33_III_D_1.pdb
 25 24 0 0 0
SMALL
GASTEIGER

@<TRIPOS>ATOM
      1  N        -10.3880   -5.4120   21.1230 N.3    11  THR11      -0.1203
      2  CA       -10.9260   -4.0880   21.4080 C.3    11  THR11       0.1994
      3  C        -11.0990   -3.3090   20.0940 C.2    11  THR11       0.2618
      4  O        -10.4080   -2.3140   19.8470 O.2    11  THR11      -0.2717
      5  CB       -10.0260   -3.3070   22.4190 C.3    11  THR11       0.1784
      6  OG1       -9.4310   -4.2150   23.3620 O.3    11  THR11      -0.2211
      7  CG2      -10.8480   -2.2750   23.1790 C.3    11  THR11       0.0376
      8  N        -12.0170   -3.7880   19.2510 N.am   12  GLY12      -0.1942
      9  CA       -12.3280   -3.1620   17.9730 C.3    12  GLY12       0.2014
     10  C        -12.9920   -1.7990   18.1120 C.2    12  GLY12       0.2639
     11  O        -12.4300   -0.7840   17.6950 O.2    12  GLY12      -0.2714
     12  N        -14.1850   -1.7670   18.7050 N.am   13  GLY13      -0.1939
     13  CA       -14.9150   -0.5270   18.8900 C.3    13  GLY13       0.2014
     14  C        -15.8560   -0.1750   17.7360 C.2    13  GLY13       0.2636
     15  O        -15.8280    0.9460   17.2090 O.2    13  GLY13      -0.2714
     16  N        -16.6720   -1.1500   17.3330 N.am   14  LYS14      -0.2015
     17  CA       -17.8360   -0.9360   16.4650 C.3    14  LYS14       0.1439
     18  C        -17.8060   -1.8760   15.2460 C.3    14  LYS14       0.2614
     19  O        -18.0620   -3.0920   15.3760 O.3    14  LYS14      -0.2003
     20  CB       -18.0130    0.5570   16.0950 C.3    14  LYS14       0.0259
     21  CG       -19.2800    0.8940   15.2850 C.3    14  LYS14       0.0034
     22  CD       -20.2370    1.8500   15.9860 C.3    14  LYS14       0.0206
     23  CE       -21.6230    1.2150   16.1560 C.3    14  LYS14       0.1093
     24  NZ       -22.1710    1.4020   17.5360 N.3    14  LYS14      -0.1314
     25  N        -16.7950   -1.7430   14.9430 N.3    15  NH215      -0.0949
@<TRIPOS>BOND
     1    25    18    1
     2    18    19    1
     3    18    17    1
     4    21    22    1
     5    21    20    1
     6    22    23    1
     7    20    17    1
     8    23    24    1
     9    17    16    1
    10    15    14    2
    11    16    14   am
    12    11    10    2
    13    14    13    1
    14     9    10    1
    15     9     8    1
    16    10    12   am
    17    12    13    1
    18     8     3   am
    19     4     3    2
    20     3     2    1
    21     1     2    1
    22     2     5    1
    23     5     7    1
    24     5     6    1
