@<TRIPOS>MOLECULE
3q38_GLA_A_1.pdb
 11 11 0 0 0
SMALL
GASTEIGER

@<TRIPOS>ATOM
      1  C1        -0.7820    3.8470   41.0920 C.3     3  GLA3        0.1777
      2  C2        -1.4820    3.5710   39.7650 C.3     3  GLA3        0.2141
      3  C3        -1.1590    4.6660   38.7570 C.3     3  GLA3        0.2173
      4  C4        -1.4960    6.0270   39.3540 C.3     3  GLA3        0.2142
      5  C5        -0.8450    6.1870   40.7280 C.3     3  GLA3        0.1810
      6  C6        -1.2110    7.5220   41.3690 C.3     3  GLA3        0.2141
      7  O2        -1.0420    2.3130   39.2440 O.3     3  GLA3       -0.2176
      8  O3        -1.9330    4.4490   37.5690 O.3     3  GLA3       -0.2175
      9  O4        -2.9180    6.1530   39.4750 O.3     3  GLA3       -0.2176
     10  O5        -1.2350    5.1060   41.5880 O.3     3  GLA3       -0.3481
     11  O6        -0.6060    7.5880   42.6660 O.3     3  GLA3       -0.2176
@<TRIPOS>BOND
     1     8     3    1
     2     3     4    1
     3     3     2    1
     4     7     2    1
     5     4     9    1
     6     4     5    1
     7     2     1    1
     8     5     6    1
     9     5    10    1
    10     1    10    1
    11     6    11    1
