@<TRIPOS>MOLECULE
3q38_FUC_A_1.pdb
 10 10 0 0 0
SMALL
GASTEIGER

@<TRIPOS>ATOM
      1  C1         3.7390    5.8910   40.3950 C.3     1  FUC1        0.1776
      2  C2         3.2210    7.0080   39.4970 C.3     1  FUC1        0.2141
      3  C3         3.0850    8.2890   40.3260 C.3     1  FUC1        0.2172
      4  C4         4.4010    8.5820   41.0690 C.3     1  FUC1        0.2116
      5  C5         4.9250    7.3660   41.8410 C.3     1  FUC1        0.1483
      6  C6         6.3040    7.6150   42.4600 C.3     1  FUC1        0.0349
      7  O2         1.9660    6.6060   38.9650 O.3     1  FUC1       -0.2176
      8  O3         2.7410    9.3840   39.4910 O.3     1  FUC1       -0.2175
      9  O4         5.3590    9.0650   40.1380 O.3     1  FUC1       -0.2177
     10  O5         4.9900    6.2500   40.9630 O.3     1  FUC1       -0.3508
@<TRIPOS>BOND
     1     7     2    1
     2     8     3    1
     3     2     3    1
     4     2     1    1
     5     9     4    1
     6     3     4    1
     7     1    10    1
     8    10     5    1
     9     4     5    1
    10     5     6    1
