@<TRIPOS>MOLECULE
3q39_FUC_A_1.pdb
 10 10 0 0 0
SMALL
GASTEIGER

@<TRIPOS>ATOM
      1  C1         3.7390    5.5970   40.3220 C.3     1  FUC1        0.1776
      2  C2         3.2140    6.7360   39.4490 C.3     1  FUC1        0.2141
      3  C3         3.1230    8.0440   40.2670 C.3     1  FUC1        0.2172
      4  C4         4.4700    8.3280   40.9510 C.3     1  FUC1        0.2116
      5  C5         4.9490    7.0780   41.7020 C.3     1  FUC1        0.1483
      6  C6         6.2960    7.2670   42.3940 C.3     1  FUC1        0.0349
      7  O2         1.9490    6.3470   38.9000 O.3     1  FUC1       -0.2176
      8  O3         2.8010    9.1590   39.4410 O.3     1  FUC1       -0.2175
      9  O4         5.4160    8.7580   39.9680 O.3     1  FUC1       -0.2177
     10  O5         5.0240    5.9790   40.7930 O.3     1  FUC1       -0.3508
@<TRIPOS>BOND
     1     7     2    1
     2     8     3    1
     3     2     3    1
     4     2     1    1
     5     9     4    1
     6     3     4    1
     7     1    10    1
     8    10     5    1
     9     4     5    1
    10     5     6    1
