@<TRIPOS>MOLECULE
3q3a_GAL_A_1.pdb
 11 11 0 0 0
SMALL
GASTEIGER

@<TRIPOS>ATOM
      1  C1         2.0690    3.8240   40.2580 C.3     2  GAL2        0.1777
      2  C2         3.0460    4.6600   41.0770 C.3     2  GAL2        0.2141
      3  C3         4.1600    3.7970   41.6660 C.3     2  GAL2        0.2173
      4  C4         3.6000    2.5430   42.3240 C.3     2  GAL2        0.2142
      5  C5         2.7900    1.8080   41.2830 C.3     2  GAL2        0.1810
      6  C6         2.1990    0.5200   41.8470 C.3     2  GAL2        0.2141
      7  O2         3.5910    5.6250   40.2030 O.3     2  GAL2       -0.2176
      8  O3         4.9150    4.5250   42.6170 O.3     2  GAL2       -0.2175
      9  O4         2.7170    2.8790   43.3720 O.3     2  GAL2       -0.2176
     10  O5         1.7000    2.6370   40.9200 O.3     2  GAL2       -0.3481
     11  O6         3.2250   -0.2910   42.3680 O.3     2  GAL2       -0.2176
@<TRIPOS>BOND
     1     7     2    1
     2     1    10    1
     3     1     2    1
     4    10     5    1
     5     2     3    1
     6     5     6    1
     7     5     4    1
     8     3     4    1
     9     3     8    1
    10     6    11    1
    11     4     9    1
