@<TRIPOS>MOLECULE
3q3a_FUL_A_1.pdb
 10 10 0 0 0
SMALL
GASTEIGER

@<TRIPOS>ATOM
      1  C1         3.6160    6.9120   40.8210 C.3     1  FUL1        0.1776
      2  C2         3.2180    7.9560   39.7960 C.3     1  FUL1        0.2141
      3  O2         1.8680    7.7230   39.3650 O.3     1  FUL1       -0.2176
      4  C3         3.3200    9.3390   40.4230 C.3     1  FUL1        0.2172
      5  O3         3.0380   10.3520   39.4420 O.3     1  FUL1       -0.2175
      6  C4         4.7180    9.5540   41.0130 C.3     1  FUL1        0.2116
      7  O4         5.7070    9.7190   39.9800 O.3     1  FUL1       -0.2177
      8  C5         5.0920    8.3960   41.9310 C.3     1  FUL1        0.1483
      9  C6         6.5390    8.4680   42.4050 C.3     1  FUL1        0.0349
     10  O5         4.9420    7.1630   41.2190 O.3     1  FUL1       -0.3508
@<TRIPOS>BOND
     1     3     2    1
     2     5     4    1
     3     2     4    1
     4     2     1    1
     5     7     6    1
     6     4     6    1
     7     1    10    1
     8     6     8    1
     9    10     8    1
    10     8     9    1
