@<TRIPOS>MOLECULE
3q3b_55E_A_1.pdb
 21 23 0 0 0
SMALL
GASTEIGER

@<TRIPOS>ATOM
      1  O3        35.6950   10.7880   32.8280 O.2   421  55E421     -0.1752
      2  C2        36.4620    9.8380   32.8900 C.1   421  55E421      0.3547
      3  N4        37.2410    9.5400   34.0960 N.2   421  55E421     -0.3125
      4  C5        38.0740    8.5240   34.1620 C.2   421  55E421      0.1313
      5  C6        38.8550    8.3410   35.4450 C.ar  421  55E421      0.0267
      6  C21       39.7460    7.2570   35.5940 C.ar  421  55E421      0.0012
      7  C19       40.4900    7.0980   36.7700 C.ar  421  55E421      0.0171
      8  C20       41.4350    5.9100   36.8780 C.3   421  55E421      0.0344
      9  C17       40.3420    8.0500   37.8260 C.ar  421  55E421      0.1917
     10  O18       41.0470    7.9450   38.9990 O.3   421  55E421     -0.2869
     11  C16       39.4490    9.1410   37.6790 C.ar  421  55E421      0.0418
     12  C15       38.7100    9.2860   36.4940 C.ar  421  55E421      0.0055
     13  C7        38.2610    7.6780   33.0810 C.3   421  55E421      0.1199
     14  C8        37.5760    7.8750   31.9010 C.2   421  55E421      0.1314
     15  N1        36.6260    9.0260   31.8100 N.2   421  55E421     -0.3125
     16  C9        37.7930    7.0200   30.6760 C.ar  421  55E421      0.0269
     17  C14       38.7960    5.9990   30.6620 C.ar  421  55E421      0.0022
     18  C13       39.0150    5.2300   29.4740 C.ar  421  55E421      0.0001
     19  C12       38.2370    5.4850   28.3030 C.ar  421  55E421      0.0000
     20  C11       37.2390    6.4950   28.3150 C.ar  421  55E421      0.0001
     21  C10       37.0210    7.2630   29.4980 C.ar  421  55E421      0.0022
@<TRIPOS>BOND
     1    19    20   ar
     2    19    18   ar
     3    20    21   ar
     4    18    17   ar
     5    21    16   ar
     6    17    16   ar
     7    16    14    1
     8    15    14    2
     9    15     2    2
    10    14    13    1
    11     1     2    2
    12     2     3    2
    13    13     4    1
    14     3     4    2
    15     4     5    1
    16     5     6   ar
    17     5    12   ar
    18     6     7   ar
    19    12    11   ar
    20     7     8    1
    21     7     9   ar
    22    11     9   ar
    23     9    10    1
