@<TRIPOS>MOLECULE
3q3c_NAD_A_1.pdb
 44 48 0 0 0
SMALL
GASTEIGER

@<TRIPOS>ATOM
      1  PA        -1.1110   28.2330   -5.8780 P.3   299  NAD299      0.2189
      2  O1A        0.1190   27.4930   -5.4970 O.2   299  NAD299     -0.5170
      3  O2A       -1.3540   29.3210   -4.9020 O.3   299  NAD299     -0.4371
      4  O5B       -2.4060   27.2760   -5.9130 O.3   299  NAD299     -0.3112
      5  C5B       -2.4060   26.0260   -6.5620 C.3   299  NAD299      0.1813
      6  C4B       -3.4340   25.1370   -5.8750 C.3   299  NAD299      0.1821
      7  O4B       -3.5600   23.9350   -6.6050 O.3   299  NAD299     -0.3135
      8  C3B       -3.0130   24.7550   -4.4580 C.3   299  NAD299      0.2184
      9  O3B       -3.9850   25.1600   -3.5120 O.3   299  NAD299     -0.2174
     10  C2B       -2.8920   23.2410   -4.4790 C.3   299  NAD299      0.2570
     11  O2B       -3.4500   22.6350   -3.3350 O.3   299  NAD299     -0.2130
     12  C1B       -3.6900   22.8480   -5.7060 C.3   299  NAD299      0.3186
     13  N9A       -3.2370   21.5650   -6.2870 N.pl3 299  NAD299     -0.1439
     14  C8A       -1.9470   21.2040   -6.5910 C.3   299  NAD299      0.3377
     15  N7A       -1.9620   19.9540   -7.1070 N.2   299  NAD299     -0.2095
     16  C5A       -3.2390   19.5070   -7.1330 C.2   299  NAD299      0.2526
     17  C6A       -3.7960   18.3100   -7.5580 C.2   299  NAD299      0.4393
     18  N6A       -3.1050   17.5530   -8.4080 N.pl3 299  NAD299      0.2180
     19  N1A       -5.1620   18.1380   -7.4620 N.2   299  NAD299      0.0021
     20  C2A       -5.9600   19.1460   -6.9560 C.3   299  NAD299      0.5254
     21  N3A       -5.3960   20.3320   -6.5320 N.2   299  NAD299     -0.0055
     22  C4A       -4.0540   20.5090   -6.6200 C.2   299  NAD299      0.3518
     23  O3        -0.9420   28.7570   -7.3900 O.3   299  NAD299     -0.2703
     24  PN        -1.6610   30.1180   -7.8470 P.3   299  NAD299      0.2189
     25  O1N       -0.9200   31.2420   -7.2130 O.3   299  NAD299     -0.4371
     26  O2N       -3.1330   29.9320   -7.6060 O.2   299  NAD299     -0.5170
     27  O5D       -1.3300   30.2150   -9.4320 O.3   299  NAD299     -0.3112
     28  C5D       -1.5830   29.1400  -10.3130 C.3   299  NAD299      0.1813
     29  C4D       -1.0750   29.4490  -11.7220 C.3   299  NAD299      0.1799
     30  O4D       -1.5060   30.7390  -12.1050 O.3   299  NAD299     -0.3327
     31  C3D        0.4390   29.4250  -11.8440 C.3   299  NAD299      0.2158
     32  O3D        0.7690   28.6190  -12.9690 O.3   299  NAD299     -0.2175
     33  C2D        0.8140   30.9070  -11.9600 C.3   299  NAD299      0.2309
     34  O2D        1.9630   31.2080  -12.7390 O.3   299  NAD299     -0.2158
     35  C1D       -0.4370   31.5550  -12.5350 C.3   299  NAD299      0.2263
     36  N1N       -0.6470   32.9330  -12.0440 N.pl3 299  NAD299     -0.2787
     37  C2N       -0.3170   33.2500  -10.7520 C.3   299  NAD299      0.1244
     38  C3N       -0.5060   34.5430  -10.2610 C.2   299  NAD299      0.0544
     39  C7N       -0.3830   34.8220   -8.7790 C.2   299  NAD299      0.2818
     40  O7N       -0.1950   36.1500   -8.3500 O.2   299  NAD299     -0.2670
     41  N7N       -0.4590   33.8340   -7.8840 N.am  299  NAD299     -0.0839
     42  C4N       -1.0450   35.5160  -11.1110 C.2   299  NAD299      0.0033
     43  C5N       -1.3850   35.1910  -12.4230 C.2   299  NAD299      0.0157
     44  C6N       -1.1820   33.8850  -12.8760 C.2   299  NAD299      0.0633
@<TRIPOS>BOND
     1    32    31    1
     2    44    43    2
     3    44    36    1
     4    34    33    1
     5    35    30    1
     6    35    36    1
     7    35    33    1
     8    43    42    1
     9    30    29    1
    10    36    37    1
    11    33    31    1
    12    31    29    1
    13    29    28    1
    14    42    38    2
    15    37    38    1
    16    28    27    1
    17    38    39    1
    18    27    24    1
    19    39    40    2
    20    39    41   am
    21    18    17    1
    22    24    26    2
    23    24    23    1
    24    24    25    1
    25    17    19    2
    26    17    16    1
    27    19    20    1
    28    23     1    1
    29    16    15    2
    30    16    22    1
    31    15    14    1
    32    20    21    1
    33    22    21    2
    34    22    13    1
    35     7     6    1
    36     7    12    1
    37    14    13    1
    38     5     4    1
    39     5     6    1
    40    13    12    1
    41     4     1    1
    42     1     2    2
    43     1     3    1
    44     6     8    1
    45    12    10    1
    46    10     8    1
    47    10    11    1
    48     8     9    1
