@<TRIPOS>MOLECULE
3q3d_PUY_A_1.pdb
 34 37 0 0 0
SMALL
GASTEIGER

@<TRIPOS>ATOM
      1  N         62.2610   24.3610   62.3250 N.3   6409  PUY6409    -0.1227
      2  CA        61.1680   25.2020   62.8070 C.3   6409  PUY6409     0.1736
      3  CB        59.9830   25.1610   61.8150 C.3   6409  PUY6409     0.0548
      4  CG        59.0410   24.0050   62.0250 C.ar  6409  PUY6409    -0.0200
      5  CD1       57.7050   24.2440   62.3140 C.ar  6409  PUY6409    -0.0011
      6  CD2       59.5400   22.7170   61.9320 C.ar  6409  PUY6409    -0.0011
      7  CE1       56.8730   23.1620   62.5260 C.ar  6409  PUY6409     0.0366
      8  CE2       58.7150   21.6370   62.1390 C.ar  6409  PUY6409     0.0366
      9  CZ        57.3910   21.8750   62.4280 C.ar  6409  PUY6409     0.1387
     10  O         61.5160   25.6350   65.0840 O.2   6409  PUY6409    -0.2718
     11  OM        56.5990   20.8010   62.6530 O.3   6409  PUY6409    -0.4714
     12  CMZ       56.7220   20.2000   63.9340 C.3   6409  PUY6409     0.2525
     13  C         60.9050   24.9410   64.2870 C.2   6409  PUY6409     0.2592
     14  O5'       56.5900   21.3060   66.1650 O.3   6409  PUY6409    -0.2176
     15  C5'       57.9850   21.5300   66.3640 C.3   6409  PUY6409     0.2134
     16  C4'       58.2480   22.8760   65.7130 C.3   6409  PUY6409     0.1747
     17  O4'       57.2670   23.8080   66.1940 O.3   6409  PUY6409    -0.3143
     18  C1'       57.8910   24.8560   66.9690 C.3   6409  PUY6409     0.3177
     19  N9        57.1030   25.1850   68.2130 N.pl3 6409  PUY6409    -0.1439
     20  C4        57.5070   25.7620   69.3780 C.2   6409  PUY6409     0.3515
     21  N3        58.7020   26.2030   69.8590 N.2   6409  PUY6409    -0.0055
     22  C2        58.8090   26.7350   71.0940 C.3   6409  PUY6409     0.5252
     23  N1        57.7780   26.8840   71.9430 N.2   6409  PUY6409    -0.0056
     24  C6        56.5400   26.4850   71.5730 C.2   6409  PUY6409     0.3485
     25  N6        55.4670   26.6170   72.4060 N.pl3 6409  PUY6409    -0.1816
     26  C9        54.1700   26.1590   71.9440 C.3   6409  PUY6409     0.2537
     27  C10       55.6070   27.1950   73.7400 C.3   6409  PUY6409     0.2537
     28  C5        56.3880   25.8810   70.2080 C.2   6409  PUY6409     0.2442
     29  N7        55.3310   25.3780   69.5280 N.2   6409  PUY6409    -0.2098
     30  C8        55.7750   24.9680   68.3140 C.3   6409  PUY6409     0.3377
     31  C2'       59.3640   24.4640   67.1430 C.3   6409  PUY6409     0.2466
     32  O2'       60.2510   25.5980   67.1830 O.3   6409  PUY6409    -0.2139
     33  C3'       59.6310   23.4540   66.0120 C.3   6409  PUY6409     0.1621
     34  N3'       60.0430   23.9710   64.6710 N.am  6409  PUY6409    -0.2005
@<TRIPOS>BOND
     1     3     4    1
     2     3     2    1
     3     6     4   ar
     4     6     8   ar
     5     4     5   ar
     6     8     9   ar
     7     5     7   ar
     8     1     2    1
     9     9     7   ar
    10     9    11    1
    11    11    12    1
    12     2    13    1
    13    13    34   am
    14    13    10    2
    15    34    33    1
    16    16    33    1
    17    16    17    1
    18    16    15    1
    19    33    31    1
    20    14    15    1
    21    17    18    1
    22    18    31    1
    23    18    19    1
    24    31    32    1
    25    19    30    1
    26    19    20    1
    27    30    29    1
    28    20    21    2
    29    20    28    1
    30    29    28    2
    31    21    22    1
    32    28    24    1
    33    22    23    1
    34    24    23    2
    35    24    25    1
    36    26    25    1
    37    25    27    1
