@<TRIPOS>MOLECULE
3q3h_UDP_A_1.pdb
 25 26 0 0 0
SMALL
GASTEIGER

@<TRIPOS>ATOM
      1  N1       -35.2930   57.1380   -0.2010 N.am  621  UDP621     -0.1766
      2  C2       -34.9650   58.4170    0.3060 C.1   621  UDP621      0.2845
      3  N3       -34.6670   59.4460   -0.5560 N.2   621  UDP621     -0.2452
      4  C4       -34.6970   59.2300   -1.8990 C.1   621  UDP621      0.2182
      5  C5       -35.0390   57.9840   -2.4350 C.2   621  UDP621      0.1242
      6  C6       -35.3840   56.9620   -1.5720 C.2   621  UDP621      0.0929
      7  O2       -34.9260   58.7090    1.5100 O.2   621  UDP621     -0.1918
      8  O4       -34.4260   60.1860   -2.6140 O.2   621  UDP621     -0.2085
      9  C1'      -35.6530   56.0020    0.6910 C.3   621  UDP621      0.2401
     10  C2'      -37.1750   56.0160    0.8410 C.3   621  UDP621      0.2319
     11  O2'      -37.5390   55.7870    2.1840 O.3   621  UDP621     -0.2157
     12  C3'      -37.7090   54.8470    0.0580 C.3   621  UDP621      0.2158
     13  C4'      -36.4990   53.9230   -0.1230 C.3   621  UDP621      0.1799
     14  O4'      -35.3370   54.7310    0.1410 O.3   621  UDP621     -0.3320
     15  O3'      -38.6600   54.2730    0.9190 O.3   621  UDP621     -0.2175
     16  C5'      -36.4450   53.1610   -1.4700 C.3   621  UDP621      0.1813
     17  O5'      -35.4390   52.1260   -1.4450 O.3   621  UDP621     -0.3111
     18  PA       -35.3240   50.8090   -2.4400 P.3   621  UDP621      0.2231
     19  O1A      -33.9180   50.3760   -2.5740 O.3   621  UDP621     -0.4370
     20  O2A      -35.9310   51.0960   -3.7740 O.2   621  UDP621     -0.5169
     21  O3A      -35.9870   49.5090   -1.7690 O.3   621  UDP621     -0.2261
     22  PB       -37.5660   49.4170   -1.4920 P.3   621  UDP621      0.5373
     23  O1B      -38.3280   50.3620   -2.3880 O.2   621  UDP621     -0.2221
     24  O2B      -38.0830   48.0220   -1.6220 O.3   621  UDP621     -0.1143
     25  O3B      -37.6010   49.7600   -0.0480 O.3   621  UDP621     -0.1143
@<TRIPOS>BOND
     1    20    18    2
     2     8     4    2
     3    19    18    1
     4    18    21    1
     5    18    17    1
     6     5     4    1
     7     5     6    2
     8    23    22    2
     9     4     3    2
    10    21    22    1
    11    24    22    1
    12     6     1    1
    13    22    25    1
    14    16    17    1
    15    16    13    1
    16     3     2    2
    17     1     2   am
    18     1     9    1
    19    13    12    1
    20    13    14    1
    21    12    10    1
    22    12    15    1
    23    14     9    1
    24     2     7    2
    25     9    10    1
    26    10    11    1
