@<TRIPOS>MOLECULE
3q3j_GNP_B_1.pdb
 32 34 0 0 0
SMALL
GASTEIGER

@<TRIPOS>ATOM
      1  PG         8.2490   26.5770   20.6230 P.3   500  GNP500      0.4884
      2  O1G        8.2450   27.2140   21.9840 O.3   500  GNP500     -0.1240
      3  O2G        6.8630   26.3570   20.0670 O.2   500  GNP500     -0.2331
      4  O3G        9.0450   25.3540   20.7540 O.3   500  GNP500     -0.1240
      5  N3B        9.0900   27.5760   19.6760 N.3   500  GNP500     -0.0163
      6  PB         9.1800   27.4820   18.1020 P.3   500  GNP500      0.4669
      7  O1B        8.0630   26.7580   17.5080 O.2   500  GNP500     -0.2351
      8  O2B       10.4890   26.9260   17.7260 O.3   500  GNP500     -0.1253
      9  O3A        9.2530   28.9970   17.6670 O.3   500  GNP500     -0.2360
     10  PA         8.5490   29.6340   16.4190 P.3   500  GNP500      0.2220
     11  O1A        7.2100   30.0020   16.9090 O.3   500  GNP500     -0.4370
     12  O2A        8.6710   28.7970   15.2450 O.2   500  GNP500     -0.5170
     13  O5'        9.2900   30.9930   16.1680 O.3   500  GNP500     -0.3111
     14  C5'        9.4540   31.9570   17.2210 C.3   500  GNP500      0.1813
     15  C4'        9.5810   33.3420   16.5630 C.3   500  GNP500      0.1799
     16  O4'       10.8130   33.4150   15.8060 O.3   500  GNP500     -0.3326
     17  C3'        8.5050   33.6280   15.5410 C.3   500  GNP500      0.2158
     18  O3'        7.3900   34.1450   16.2410 O.3   500  GNP500     -0.2175
     19  C2'        9.1790   34.6500   14.5960 C.3   500  GNP500      0.2310
     20  O2'        9.0040   35.9890   15.0370 O.3   500  GNP500     -0.2158
     21  C1'       10.6560   34.2470   14.6930 C.3   500  GNP500      0.2293
     22  N9        11.1230   33.5290   13.5380 N.pl3 500  GNP500     -0.2354
     23  C8        10.7640   32.2820   13.1170 C.3   500  GNP500      0.2246
     24  N7        11.3560   31.9110   12.0280 N.2   500  GNP500     -0.2322
     25  C5        12.1510   33.0200   11.7050 C.2   500  GNP500      0.2182
     26  C6        13.0160   33.2360   10.6090 C.1   500  GNP500      0.2372
     27  O6        13.2740   32.4530    9.6810 O.2   500  GNP500     -0.2069
     28  N1        13.6370   34.4850   10.6800 N.2   500  GNP500     -0.2485
     29  C2        13.4230   35.4300   11.6460 C.1   500  GNP500      0.2531
     30  N2        14.1040   36.5980   11.5510 N.pl3 500  GNP500     -0.0226
     31  N3        12.6080   35.2370   12.6800 N.2   500  GNP500     -0.3074
     32  C4        12.0230   34.0030   12.6320 C.2   500  GNP500      0.2300
@<TRIPOS>BOND
     1    27    26    2
     2    26    28    2
     3    26    25    1
     4    28    29    2
     5    30    29    1
     6    29    31    2
     7    25    24    2
     8    25    32    1
     9    24    23    1
    10    32    31    2
    11    32    22    1
    12    23    22    1
    13    22    21    1
    14    19    21    1
    15    19    20    1
    16    19    17    1
    17    21    16    1
    18    12    10    2
    19    17    18    1
    20    17    15    1
    21    16    15    1
    22    13    10    1
    23    13    14    1
    24    10    11    1
    25    10     9    1
    26    15    14    1
    27     7     6    2
    28     9     6    1
    29     8     6    1
    30     6     5    1
    31     5     1    1
    32     3     1    2
    33     1     4    1
    34     1     2    1
