@<TRIPOS>MOLECULE
3q3k_D90_A_1.pdb
 32 36 0 0 0
SMALL
GASTEIGER

@<TRIPOS>ATOM
      1  C1         8.5570    8.9150   25.0360 C.2   700  D90700      0.1865
      2  N1         8.6980    8.2650   26.2130 N.2   700  D90700     -0.3972
      3  O1         7.1400   10.1380   23.8020 O.2   700  D90700     -0.2652
      4 CL1        14.4530    8.0710   26.5830 Cl    700  D90700     -0.0822
      5  C2         7.2930    9.1640   24.5110 C.2   700  D90700      0.2987
      6  C3         9.8070    9.2460   24.4410 C.2   700  D90700      0.0394
      7  C4        10.7330    8.7470   25.3790 C.ar  700  D90700      0.0331
      8  C5        10.0350    8.1310   26.4750 C.ar  700  D90700      0.1317
      9  C6        12.1370    8.7290   25.4250 C.ar  700  D90700      0.0140
     10  C7        10.6660    7.5510   27.5800 C.ar  700  D90700      0.0329
     11  C8        12.0600    7.5390   27.6190 C.ar  700  D90700      0.0140
     12  C9        12.7450    8.1330   26.5130 C.ar  700  D90700      0.0578
     13  C10        2.2570    8.5100   24.2770 C.ar  700  D90700      0.0014
     14  C11        3.0110    7.7990   23.3630 C.ar  700  D90700      0.0179
     15  C13        2.8670    9.1280   25.3670 C.ar  700  D90700      0.0014
     16  C15        4.2400    9.0340   25.5460 C.ar  700  D90700      0.0179
     17  CC1        5.1970    5.6790   22.5080 C.2   700  D90700      0.3051
     18  OC1        4.6440    4.8300   23.1890 O.2   700  D90700     -0.2646
     19  CP1        5.0100    8.3340   24.6290 C.ar  700  D90700      0.0890
     20  NP1        6.3520    8.2360   24.8190 N.am  700  D90700     -0.1719
     21  CP2        4.3800    7.7060   23.5390 C.ar  700  D90700      0.0890
     22  NP2        5.1010    7.0080   22.6330 N.am  700  D90700     -0.1715
     23  CZ1        6.1090    5.1310   21.4330 C.2   700  D90700      0.2163
     24  NZ1        6.8340    5.8200   20.5270 N.2   700  D90700     -0.3900
     25  SZ1        6.3210    3.4160   21.2990 S.3   700  D90700     -0.0469
     26  CZ2        7.4230    3.6550   19.9670 C.2   700  D90700      0.0764
     27  NZ2        8.8080    2.9640   18.0860 N.pl3 700  D90700     -0.2826
     28  CZ3        8.0850    2.5300   19.2460 C.2   700  D90700      0.0746
     29  CZ4        9.2330    4.3140   17.8450 C.2   700  D90700      0.0681
     30  CZ5        8.4910    5.4480   18.5630 C.2   700  D90700      0.0487
     31  CZ6        7.6100    4.9420   19.6600 C.2   700  D90700      0.1408
     32  CZ7        9.6050    1.9240   17.4550 C.3   700  D90700      0.1174
@<TRIPOS>BOND
     1    32    27    1
     2    29    27    1
     3    29    30    2
     4    27    28    1
     5    30    31    1
     6    28    26    2
     7    31    26    1
     8    31    24    2
     9    26    25    1
    10    24    23    2
    11    25    23    1
    12    23    17    1
    13    17    22   am
    14    17    18    2
    15    22    21    1
    16    14    21   ar
    17    14    13   ar
    18    21    19   ar
    19     3     5    2
    20    13    15   ar
    21     6     1    1
    22     6     7    2
    23     5    20   am
    24     5     1    1
    25    19    20    1
    26    19    16   ar
    27     1     2    2
    28    15    16   ar
    29     7     9   ar
    30     7     8   ar
    31     9    12   ar
    32     2     8    2
    33     8    10   ar
    34    12     4    1
    35    12    11   ar
    36    10    11   ar
