@<TRIPOS>MOLECULE
3q3m_Z82_A_1.pdb
 10 10 0 0 0
SMALL
GASTEIGER

@<TRIPOS>ATOM
      1  C1        35.0080   13.9550   19.8190 C.ar  510  Z82510      0.0798
      2  O1        36.1670   12.0300   19.6150 O.co2 510  Z82510     -0.2406
      3  C2        34.1540   13.5490   18.8410 C.ar  510  Z82510      0.0071
      4  C3        33.1530   14.4040   18.4340 C.ar  510  Z82510      0.0069
      5  C4        33.0450   15.6140   19.0180 C.ar  510  Z82510      0.0346
      6 BR4        31.6770   16.8320   18.4300 Br    510  Z82510     -0.0490
      7  C5        33.9150   15.9970   19.9850 C.ar  510  Z82510      0.0069
      8  C6        34.9030   15.1620   20.3790 C.ar  510  Z82510      0.0071
      9  C7        36.0750   13.0210   20.2140 C.2   510  Z82510      0.3878
     10  O2        36.8200   13.3140   21.1040 O.co2 510  Z82510     -0.2406
@<TRIPOS>BOND
     1     6     5    1
     2     4     3   ar
     3     4     5   ar
     4     3     1   ar
     5     5     7   ar
     6     2     9   ar
     7     1     9    1
     8     1     8   ar
     9     7     8   ar
    10     9    10   ar
