@<TRIPOS>MOLECULE
3q3n_NPO_A_1.pdb
 10 10 0 0 0
SMALL
GASTEIGER

@<TRIPOS>ATOM
      1  C1        40.2390   15.4820  -19.0390 C.ar  511  NPO511      0.1431
      2  C2        40.7220   14.2390  -18.6610 C.ar  511  NPO511      0.0274
      3  C3        39.9190   13.1150  -18.7950 C.ar  511  NPO511      0.0437
      4  C4        38.6360   13.2350  -19.3070 C.ar  511  NPO511      0.1958
      5  C5        38.1550   14.4790  -19.6860 C.ar  511  NPO511      0.0437
      6  C6        38.9570   15.6020  -19.5510 C.ar  511  NPO511      0.0274
      7  OH        37.8400   12.1210  -19.4410 O.3   511  NPO511     -0.2866
      8  N1        41.0640   16.6420  -18.9010 N.pl3 511  NPO511      0.0577
      9  O2        40.6100   17.8040  -19.2560 O.2   511  NPO511     -0.1261
     10  O3        42.1940   16.5380  -18.4500 O.2   511  NPO511     -0.1261
@<TRIPOS>BOND
     1     5     6   ar
     2     5     4   ar
     3     6     1   ar
     4     7     4    1
     5     4     3   ar
     6     9     8    2
     7     1     8    1
     8     1     2   ar
     9     8    10    2
    10     3     2   ar
