@<TRIPOS>MOLECULE
3q3s_O8B_A_1.pdb
 28 31 0 0 0
SMALL
GASTEIGER

@<TRIPOS>ATOM
      1  C11       32.0660   71.6300   13.7650 C.3   217  O8B217      0.0342
      2  C10       32.8190   70.4660   13.1030 C.ar  217  O8B217      0.0121
      3  C01       33.0670   69.2870   13.8040 C.ar  217  O8B217     -0.0013
      4  C03       33.7750   68.2350   13.1940 C.ar  217  O8B217     -0.0001
      5  C05       34.2190   68.3830   11.8730 C.ar  217  O8B217      0.0031
      6  C07       33.9780   69.5910   11.1990 C.ar  217  O8B217      0.0366
      7  C09       33.2650   70.6240   11.8080 C.ar  217  O8B217      0.1353
      8  O15       33.0250   71.8400   11.2000 O.3   217  O8B217     -0.4659
      9  C16       33.5610   72.1780    9.9030 C.3   217  O8B217      0.2915
     10  C19       32.8670   73.4660    9.4020 C.2   217  O8B217      0.2898
     11  O22       32.8160   73.6610    8.1910 O.2   217  O8B217     -0.2689
     12  N20       32.3810   74.3450   10.3020 N.am  217  O8B217     -0.1804
     13  C23       31.7270   75.5070   10.0410 C.2   217  O8B217      0.0534
     14  C24       31.3520   75.9290    8.7520 C.3   217  O8B217      0.0917
     15  C28       31.3280   76.2880   11.1400 C.2   217  O8B217     -0.0071
     16  C26       30.6210   77.4680   10.9680 C.3   217  O8B217      0.0759
     17  C30       30.2530   77.8790    9.6840 C.ar  217  O8B217      0.1005
     18  N34       29.5710   78.9290    9.1770 N.ar  217  O8B217     -0.1508
     19  C31       30.6090   77.1170    8.5890 C.ar  217  O8B217      0.1017
     20  N32       30.1080   77.7860    7.5440 N.ar  217  O8B217     -0.1508
     21  N33       29.5510   78.8190    7.9250 N.ar  217  O8B217     -0.1485
     22  C35       28.9340   79.6810    7.0720 C.ar  217  O8B217      0.1028
     23  C36       28.8870   79.3440    5.7190 C.ar  217  O8B217      0.0206
     24  C38       28.2770   80.1760    4.7990 C.ar  217  O8B217     -0.0027
     25  C40       27.6650   81.3660    5.2270 C.ar  217  O8B217     -0.0218
     26  C45       27.0220   82.2470    4.1460 C.3   217  O8B217      0.0310
     27  C41       27.6760   81.7360    6.5800 C.ar  217  O8B217     -0.0027
     28  C43       28.3300   80.8870    7.5020 C.ar  217  O8B217      0.0206
@<TRIPOS>BOND
     1    26    25    1
     2    24    25   ar
     3    24    23   ar
     4    25    27   ar
     5    23    22   ar
     6    27    28   ar
     7    22    28   ar
     8    22    21    1
     9    20    21   ar
    10    20    19   ar
    11    21    18   ar
    12    11    10    2
    13    19    14    1
    14    19    17   ar
    15    14    13    1
    16    18    17   ar
    17    10     9    1
    18    10    12   am
    19    17    16    1
    20     9     8    1
    21    13    12    1
    22    13    15    2
    23    16    15    1
    24     6     7   ar
    25     6     5   ar
    26     8     7    1
    27     7     2   ar
    28     5     4   ar
    29     2     1    1
    30     2     3   ar
    31     4     3   ar
