@<TRIPOS>MOLECULE
3q3t_RX0_A_1.pdb
 35 38 0 0 0
SMALL
GASTEIGER

@<TRIPOS>ATOM
      1  C1        31.1750   -8.8950  -11.7870 C.ar  500  RX0500     -0.0002
      2  C2        30.8990   -7.8080  -10.9530 C.ar  500  RX0500     -0.0000
      3  C3        31.2940  -10.1550  -11.2310 C.ar  500  RX0500     -0.0000
      4  C4        30.7110   -7.9480   -9.5790 C.ar  500  RX0500     -0.0000
      5  C5        31.1040  -10.3190   -9.8500 C.ar  500  RX0500     -0.0000
      6  C6        30.8150   -9.2150   -9.0290 C.ar  500  RX0500     -0.0000
      7  C7        26.1160  -10.6720  -11.0730 C.2   500  RX0500      0.2253
      8  O8        25.8160  -11.7320  -10.5630 O.2   500  RX0500     -0.2749
      9  N9        26.2820  -10.6500  -12.4560 N.am  500  RX0500     -0.2795
     10  C10       28.1400  -12.0150  -13.4030 C.3   500  RX0500      0.0217
     11  C11       28.4500  -10.7570  -14.2290 C.3   500  RX0500      0.0062
     12  C12       28.3950   -9.5270  -13.3300 C.3   500  RX0500      0.0519
     13  C13       26.9360   -9.3990  -12.9620 C.3   500  RX0500      0.0961
     14  C14       26.6640  -11.9720  -13.0430 C.3   500  RX0500      0.0934
     15  C15       28.9720   -8.2640  -14.0070 C.3   500  RX0500      0.1468
     16  O16       28.2980   -8.1370  -15.2600 O.3   500  RX0500     -0.2211
     17  C17       30.4710   -8.4240  -14.2400 C.ar  500  RX0500      0.0051
     18  C18       30.9230   -8.3120  -15.5630 C.ar  500  RX0500     -0.0019
     19  C19       31.4210   -8.7160  -13.2470 C.ar  500  RX0500     -0.0017
     20  C20       32.2520   -8.4540  -15.9370 C.ar  500  RX0500     -0.0002
     21  C21       32.7600   -8.8600  -13.6230 C.ar  500  RX0500     -0.0002
     22  C22       33.1790   -8.7350  -14.9500 C.ar  500  RX0500     -0.0000
     23  C23       28.6820   -6.9280  -13.3140 C.3   500  RX0500      0.0348
     24  C24       29.4470   -5.7800  -13.9850 C.3   500  RX0500      0.0054
     25  C25       29.1030   -4.4460  -13.3550 C.3   500  RX0500      0.0322
     26  C26       27.6300   -4.1270  -13.5990 C.3   500  RX0500      0.1423
     27  O27       27.3820   -2.7410  -13.3620 O.3   500  RX0500     -0.3511
     28  C28       26.0030   -2.3890  -13.5200 C.3   500  RX0500      0.1741
     29  C29       27.4560   -8.9920   -9.5520 C.3   500  RX0500      0.0435
     30  C30       27.0040   -8.1330   -8.3780 C.3   500  RX0500      0.1699
     31  C31       25.4820   -8.1440   -8.3510 C.3   500  RX0500      0.1225
     32  C32       25.1560   -9.4170   -9.0750 C.3   500  RX0500      0.0308
     33  C33       26.1510   -9.3870  -10.2320 C.3   500  RX0500      0.0808
     34  O34       27.4990   -8.6730   -7.1270 O.3   500  RX0500     -0.2216
     35  N35       24.9070   -8.1620   -6.9790 N.3   500  RX0500     -0.1302
@<TRIPOS>BOND
     1    20    18   ar
     2    20    22   ar
     3    18    17   ar
     4    16    15    1
     5    22    21   ar
     6    17    15    1
     7    17    19   ar
     8    11    10    1
     9    11    12    1
    10    15    12    1
    11    15    23    1
    12    24    25    1
    13    24    23    1
    14    21    19   ar
    15    26    27    1
    16    26    25    1
    17    28    27    1
    18    10    14    1
    19    12    13    1
    20    19     1    1
    21    14     9    1
    22    13     9    1
    23     9     7   am
    24     1     3   ar
    25     1     2   ar
    26     3     5   ar
    27     7     8    2
    28     7    33    1
    29     2     4   ar
    30    33    29    1
    31    33    32    1
    32     5     6   ar
    33     4     6   ar
    34    29    30    1
    35    32    31    1
    36    30    31    1
    37    30    34    1
    38    31    35    1
