@<TRIPOS>MOLECULE
3q3u_HEM_A_1.pdb
 43 50 0 0 0
SMALL
GASTEIGER

@<TRIPOS>ATOM
      1  CHA       22.0820    4.9890    0.9790 C.2   338  HEM338      0.0000
      2  CHB       17.6880    6.1790    2.8130 C.2   338  HEM338      0.0000
      3  CHC       15.4640    3.3150   -0.4640 C.2   338  HEM338      0.0000
      4  CHD       19.7960    2.2630   -2.3320 C.2   338  HEM338      0.0000
      5  C1A       21.0610    5.6010    1.6950 C.2   338  HEM338      0.0000
      6  C2A       21.2330    6.6860    2.6460 C.2   338  HEM338      0.0000
      7  C3A       20.0340    6.9960    3.1620 C.2   338  HEM338      0.0000
      8  C4A       19.0340    6.1570    2.4930 C.2   338  HEM338      0.0000
      9  CMA       19.7590    8.0960    4.2330 C.3   338  HEM338      0.0000
     10  CAA       22.5850    7.3370    2.9850 C.3   338  HEM338      0.0000
     11  CBA       22.6770    8.6340    2.1030 C.3   338  HEM338      0.0000
     12  CGA       23.9350    9.3230    2.5790 C.2   338  HEM338      0.0000
     13  O1A       23.9050   10.0590    3.6050 O.co2 338  HEM338      0.0000
     14  O2A       24.9880    9.0690    1.9800 O.co2 338  HEM338      0.0000
     15  C1B       16.6970    5.4890    2.1270 C.ar  338  HEM338      0.0000
     16  C2B       15.2900    5.5630    2.3910 C.ar  338  HEM338      0.0000
     17  C3B       14.6680    4.7680    1.4880 C.ar  338  HEM338      0.0000
     18  C4B       15.6820    4.1910    0.6130 C.ar  338  HEM338      0.0000
     19  CMB       14.6350    6.4600    3.5210 C.3   338  HEM338      0.0000
     20  CAB       13.1540    4.5000    1.3840 C.2   338  HEM338      0.0000
     21  CBB       12.6390    3.2620    1.0880 C.2   338  HEM338      0.0000
     22  C1C       16.4550    2.8840   -1.3400 C.2   338  HEM338      0.0000
     23  C2C       16.2690    2.1820   -2.5890 C.2   338  HEM338      0.0000
     24  C3C       17.4680    1.8600   -3.1130 C.2   338  HEM338      0.0000
     25  C4C       18.4280    2.3710   -2.2020 C.2   338  HEM338      0.0000
     26  CMC       14.8340    1.9020   -3.0980 C.3   338  HEM338      0.0000
     27  CAC       17.8760    1.1900   -4.4750 C.2   338  HEM338      0.0000
     28  CBC       17.1530    0.1490   -4.8420 C.2   338  HEM338      0.0000
     29  C1D       20.8100    2.7430   -1.5620 C.ar  338  HEM338      0.0000
     30  C2D       22.2350    2.4200   -1.6950 C.ar  338  HEM338      0.0000
     31  C3D       22.9130    3.2960   -0.6990 C.ar  338  HEM338      0.0000
     32  C4D       21.8650    4.0650   -0.0450 C.ar  338  HEM338      0.0000
     33  CMD       22.8780    1.3550   -2.6560 C.3   338  HEM338      0.0000
     34  CAD       24.4200    3.4110   -0.3620 C.3   338  HEM338      0.0000
     35  CBD       25.0290    4.5340   -1.2550 C.3   338  HEM338      0.0000
     36  CGD       26.5090    4.6080   -0.9510 C.2   338  HEM338      0.0000
     37  O1D       27.2610    5.4880   -1.5270 O.co2 338  HEM338      0.0000
     38  O2D       26.9370    3.7710   -0.1290 O.co2 338  HEM338      0.0000
     39  NA        19.7210    5.2790    1.6640 N.2   338  HEM338      0.0000
     40  NB        16.9100    4.5840    1.0960 N.ar  338  HEM338      0.0000
     41  NC        17.7740    2.9100   -1.1460 N.2   338  HEM338      0.0000
     42  ND        20.6510    3.6770   -0.5520 N.ar  338  HEM338      0.0000
     43 FE         18.7880    3.9900    0.3710 Fe    338  HEM338      0.0000
@<TRIPOS>BOND
     1    28    27    2
     2    27    24    1
     3    24    23    2
     4    24    25    1
     5    26    23    1
     6    33    30    1
     7    23    22    1
     8     4    25    1
     9     4    29    2
    10    25    41    2
    11    30    29   ar
    12    30    31   ar
    13    29    42   ar
    14    37    36   ar
    15    22    41    1
    16    22     3    2
    17    35    36    1
    18    35    34    1
    19    41    43    1
    20    36    38   ar
    21    31    34    1
    22    31    32   ar
    23    42    32   ar
    24    42    43    1
    25     3    18    1
    26    32     1    2
    27    43    40    1
    28    43    39    1
    29    18    40   ar
    30    18    17   ar
    31     1     5    1
    32    21    20    2
    33    40    15   ar
    34    20    17    1
    35    17    16   ar
    36    39     5    2
    37    39     8    1
    38     5     6    1
    39    14    12   ar
    40    11    12    1
    41    11    10    1
    42    15    16   ar
    43    15     2    1
    44    16    19    1
    45     8     2    2
    46     8     7    1
    47    12    13   ar
    48     6    10    1
    49     6     7    2
    50     7     9    1
