@<TRIPOS>MOLECULE
3q3y_XNV_A_1.pdb
 38 40 0 0 0
SMALL
GASTEIGER

@<TRIPOS>ATOM
      1  C01      -18.3940   28.5850  -26.5460 C.3   190  XNV190      0.0513
      2  C02      -17.2670   27.5380  -26.6460 C.3   190  XNV190      0.2086
      3  O03      -17.6600   26.3670  -27.3820 O.3   190  XNV190     -0.4485
      4  C04      -16.9880   25.1940  -27.1140 C.2   190  XNV190      0.3170
      5  C05      -17.7510   24.0110  -27.6960 C.3   190  XNV190      0.1113
      6  C06      -18.2630   22.9120  -26.7200 C.3   190  XNV190      0.0333
      7  C07      -19.5060   23.3830  -25.9040 C.3   190  XNV190      0.0970
      8  N08      -20.6780   23.3850  -26.7700 N.am  190  XNV190     -0.2055
      9  C09      -21.4800   24.4930  -26.8810 C.2   190  XNV190      0.2631
     10  C10      -22.6330   24.3920  -27.8900 C.3   190  XNV190      0.1791
     11  N11      -23.8150   25.1220  -27.4140 N.ar  190  XNV190     -0.2854
     12  C12      -24.5430   24.4620  -26.3740 C.ar  190  XNV190      0.2766
     13  C13      -25.7780   25.0810  -25.8990 C.ar  190  XNV190      0.1297
     14  N14      -26.5340   24.3250  -24.9900 N.am  190  XNV190     -0.1692
     15  C15      -27.9100   24.0740  -25.2020 C.2   190  XNV190      0.2902
     16  C16      -28.4780   23.0850  -24.2350 C.ar  190  XNV190      0.1777
     17  N17      -27.7960   22.4870  -23.2630 N.ar  190  XNV190     -0.0726
     18  O18      -28.6530   21.6630  -22.6310 O.2   190  XNV190     -0.3576
     19  C19      -29.9080   21.7460  -23.1400 C.ar  190  XNV190      0.1550
     20  C20      -31.0520   20.9720  -22.6120 C.3   190  XNV190      0.0754
     21  C21      -29.8520   22.6420  -24.1840 C.ar  190  XNV190      0.0627
     22  O22      -28.5950   24.6100  -26.0680 O.2   190  XNV190     -0.2662
     23  C23      -26.1490   26.3160  -26.3970 C.ar  190  XNV190      0.0230
     24  C24      -25.3600   26.9360  -27.3970 C.ar  190  XNV190      0.0202
     25  C25      -24.2290   26.3550  -27.8690 C.ar  190  XNV190      0.0788
     26  O26      -24.1130   23.3830  -25.9440 O.2   190  XNV190     -0.2655
     27  C27      -22.1640   24.8480  -29.2750 C.3   190  XNV190      0.1091
     28  C28      -23.2500   24.6250  -30.2080 C.1   190  XNV190     -0.0754
     29  C29      -24.1250   24.4450  -30.9690 C.1   190  XNV190     -0.0141
     30  O30      -21.3090   25.5170  -26.2390 O.2   190  XNV190     -0.2713
     31  C31      -19.7540   22.5210  -24.6400 C.3   190  XNV190      0.0383
     32  C32      -20.9000   22.9610  -23.7560 C.3   190  XNV190      0.1100
     33  C33      -20.6520   24.3280  -23.0490 C.3   190  XNV190      0.0438
     34  C34      -21.4880   24.2590  -21.7840 C.3   190  XNV190      0.1387
     35  N35      -21.4240   22.8280  -21.4890 N.2   190  XNV190     -0.2063
     36  C36      -21.1300   22.0630  -22.5810 C.1   190  XNV190      0.1250
     37  O37      -21.1100   20.8440  -22.6220 O.2   190  XNV190     -0.2271
     38  O38      -16.2950   25.1460  -26.1250 O.2   190  XNV190     -0.2501
@<TRIPOS>BOND
     1    29    28    3
     2    28    27    1
     3    27    10    1
     4    10    11    1
     5    10     9    1
     6    25    11   ar
     7    25    24   ar
     8     5     4    1
     9     5     6    1
    10    11    12   ar
    11    24    23   ar
    12     3     4    1
    13     3     2    1
    14     4    38    2
    15     9     8   am
    16     9    30    2
    17     8     7    1
    18     6     7    1
    19     2     1    1
    20    23    13   ar
    21    12    26    2
    22    12    13   ar
    23    22    15    2
    24     7    31    1
    25    13    14    1
    26    15    14   am
    27    15    16    1
    28    31    32    1
    29    16    21   ar
    30    16    17   ar
    31    21    19   ar
    32    32    33    1
    33    32    36    1
    34    17    18   ar
    35    19    18   ar
    36    19    20    1
    37    33    34    1
    38    37    36    2
    39    36    35    2
    40    34    35    1
