@<TRIPOS>MOLECULE
3q43_D66_A_1.pdb
 24 24 0 0 0
SMALL
GASTEIGER

@<TRIPOS>ATOM
      1  C1        12.7870    9.3880   19.3530 C.3   1087  D661087     0.2525
      2  N1        11.7900   12.7360   12.2200 N.3   1087  D661087    -0.1293
      3  O1        12.4990   10.7280   18.9290 O.3   1087  D661087    -0.4714
      4  C2        12.7980   11.1710   17.6370 C.ar  1087  D661087     0.1387
      5  N2        16.0230   10.9360   10.6630 N.am  1087  D661087    -0.1934
      6  O2        13.3370   12.3110   10.0810 O.3   1087  D661087    -0.2116
      7  C3        12.7540   12.5200   17.3410 C.ar  1087  D661087     0.0366
      8  O3        14.6360    9.8690   11.9850 O.2   1087  D661087    -0.2705
      9  C4        13.0520   13.0070   16.0490 C.ar  1087  D661087    -0.0011
     10  O4        18.7290    8.9920   12.1680 O.co2 1087  D661087    -0.2437
     11  C5        13.4110   12.1250   15.0400 C.ar  1087  D661087    -0.0204
     12  O5        17.6760   10.8660   12.7480 O.co2 1087  D661087    -0.2437
     13  C6        13.7440   12.6920   13.6700 C.3   1087  D661087     0.0485
     14  C7        13.0500   12.0360   12.4850 C.3   1087  D661087     0.1355
     15  C8        14.0170   12.1470   11.3230 C.3   1087  D661087     0.2467
     16  C9        14.9110   10.8990   11.3390 C.2   1087  D661087     0.2738
     17  C10       16.8830    9.7510   10.7440 C.3   1087  D661087     0.1978
     18  C11       17.7300    9.6240    9.4720 C.3   1087  D661087     0.0333
     19  C12       16.9920    9.0190    8.2750 C.3   1087  D661087     0.0023
     20  C13       16.4860    7.5980    8.5350 C.3   1087  D661087     0.0001
     21  C14       17.9590    9.0950    7.1010 C.3   1087  D661087     0.0001
     22  C15       17.8150    9.8280   11.9350 C.2   1087  D661087     0.3842
     23  C16       13.4760   10.7600   15.3290 C.ar  1087  D661087    -0.0011
     24  C17       13.1640   10.2960   16.6280 C.ar  1087  D661087     0.0366
@<TRIPOS>BOND
     1    21    19    1
     2    19    20    1
     3    19    18    1
     4    18    17    1
     5     6    15    1
     6     5    17    1
     7     5    16   am
     8    17    22    1
     9    15    16    1
    10    15    14    1
    11    16     8    2
    12    22    10   ar
    13    22    12   ar
    14     2    14    1
    15    14    13    1
    16    13    11    1
    17    11    23   ar
    18    11     9   ar
    19    23    24   ar
    20     9     7   ar
    21    24     4   ar
    22     7     4   ar
    23     4     3    1
    24     3     1    1
