@<TRIPOS>MOLECULE
3q44_D50_A_1.pdb
 30 31 0 0 0
SMALL
GASTEIGER

@<TRIPOS>ATOM
      1  C1        17.2420    9.0780    7.0360 C.3   1086  D501086     0.0001
      2  N1        15.4250   10.7780   10.5820 N.am  1086  D501086    -0.1934
      3  O1        13.9390    9.6190   11.7240 O.2   1086  D501086    -0.2705
      4  C2        16.3420    9.0290    8.2410 C.3   1086  D501086     0.0023
      5  N2        11.2460   12.7430   11.9840 N.3   1086  D501086    -0.1293
      6  O2        12.8170   12.1970    9.8930 O.3   1086  D501086    -0.2116
      7  C3        15.8120    7.6000    8.4500 C.3   1086  D501086     0.0001
      8  O3        12.1540   10.1800   18.6040 O.3   1086  D501086    -0.4706
      9  C4        17.1690    9.5400    9.4170 C.3   1086  D501086     0.0333
     10  O4        17.1020   10.7430   12.6490 O.co2 1086  D501086    -0.2437
     11  C5        16.3490    9.6640   10.6690 C.3   1086  D501086     0.1978
     12  O5        18.0750    8.8160   12.1410 O.co2 1086  D501086    -0.2437
     13  C6        14.2660   10.6850   11.1690 C.2   1086  D501086     0.2738
     14  C7        13.4490   11.9820   11.1860 C.3   1086  D501086     0.2467
     15  C8        12.4360   11.9060   12.3170 C.3   1086  D501086     0.1355
     16  C9        13.1310   12.5110   13.5140 C.3   1086  D501086     0.0485
     17  C10       12.8380   11.8650   14.8410 C.ar  1086  D501086    -0.0204
     18  C11       13.2690   10.5600   15.1310 C.ar  1086  D501086    -0.0011
     19  C12       13.0230   10.0080   16.3840 C.ar  1086  D501086     0.0366
     20  C13       12.3690   10.7420   17.3480 C.ar  1086  D501086     0.1390
     21  C14       11.0280   10.4060   19.4460 C.3   1086  D501086     0.2320
     22  C15       11.1280    9.4110   20.5780 C.ar  1086  D501086     0.0212
     23  C16       10.8140    9.7900   21.8870 C.ar  1086  D501086    -0.0007
     24  C17       10.9110    8.8660   22.9270 C.ar  1086  D501086    -0.0002
     25  C18       11.3270    7.5620   22.6600 C.ar  1086  D501086    -0.0000
     26  C19       11.6540    7.1620   21.3580 C.ar  1086  D501086    -0.0002
     27  C20       11.5460    8.1020   20.3210 C.ar  1086  D501086    -0.0007
     28  C21       11.9620   12.0370   17.0600 C.ar  1086  D501086     0.0366
     29  C22       12.1930   12.6210   15.8070 C.ar  1086  D501086    -0.0011
     30  C23       17.2050    9.7750   11.8940 C.2   1086  D501086     0.3842
@<TRIPOS>BOND
     1     1     4    1
     2     4     7    1
     3     4     9    1
     4     9    11    1
     5     6    14    1
     6     2    11    1
     7     2    13   am
     8    11    30    1
     9    13    14    1
    10    13     3    2
    11    14    15    1
    12    30    12   ar
    13    30    10   ar
    14     5    15    1
    15    15    16    1
    16    16    17    1
    17    17    18   ar
    18    17    29   ar
    19    18    19   ar
    20    29    28   ar
    21    19    20   ar
    22    28    20   ar
    23    20     8    1
    24     8    21    1
    25    21    22    1
    26    27    22   ar
    27    27    26   ar
    28    22    23   ar
    29    26    25   ar
    30    23    24   ar
    31    25    24   ar
