@<TRIPOS>MOLECULE
3q4a_III_C_1.pdb
 49 49 0 0 0
SMALL
GASTEIGER

@<TRIPOS>ATOM
      1  N         15.2120    3.6720    3.9220 N.3   460  PRO460     -0.2102
      2  CA        14.6810    3.4620    5.2710 C.3   460  PRO460      0.1504
      3  C         14.4340    4.7520    6.0920 C.2   460  PRO460      0.2576
      4  O         14.6470    5.8560    5.5950 O.2   460  PRO460     -0.2718
      5  CB        15.7580    2.6030    5.9410 C.3   460  PRO460      0.0282
      6  CG        17.0480    2.9000    5.1740 C.3   460  PRO460      0.0208
      7  CD        16.6010    3.1970    3.7630 C.3   460  PRO460      0.0893
      8  N         13.9920    4.6020    7.3370 N.am  461  ILE461     -0.1966
      9  CA        13.8480    5.7560    8.2150 C.3   461  ILE461      0.1727
     10  C         15.1910    6.1620    8.8190 C.2   461  ILE461      0.2617
     11  O         15.4270    7.3230    9.0830 O.2   461  ILE461     -0.2715
     12  CB        12.8280    5.5180    9.3360 C.3   461  ILE461      0.0290
     13  CG1       12.4340    6.8450    9.9850 C.3   461  ILE461      0.0022
     14  CG2       13.3400    4.5450   10.3490 C.3   461  ILE461      0.0023
     15  CD1       11.2580    6.7670   10.8720 C.3   461  ILE461      0.0001
     16  N         16.0620    5.2060    9.0470 N.am  462  SER462     -0.1936
     17  CA        17.3590    5.5010    9.6050 C.3   462  SER462      0.2055
     18  C         18.3020    5.9200    8.4960 C.2   462  SER462      0.2644
     19  O         19.1980    5.2030    8.1100 O.2   462  SER462     -0.2714
     20  CB        17.9000    4.3170   10.3810 C.3   462  SER462      0.2130
     21  OG        17.0990    4.0730   11.5040 O.3   462  SER462     -0.2179
     22  N         18.0660    7.0980    7.9700 N.am  463  SER463     -0.1936
     23  CA        18.8270    7.5940    6.8550 C.3   463  SER463      0.2027
     24  CB        18.1640    7.1600    5.5480 C.3   463  SER463      0.1847
     25  OG        18.6740    7.8470    4.4370 O.3   463  SER463     -0.2679
     26  C         18.8610    9.1210    6.9990 C.2   463  SER463      0.2642
     27  O         17.9600    9.7000    7.5560 O.2   463  SER463     -0.2714
     28  P         19.3090    6.9050    3.2860 P.3   463  SER463      0.5327
     29  O1P       20.2560    5.7820    3.8480 O.3   463  SER463     -0.1145
     30  O2P       18.1150    6.1550    2.5380 O.3   463  SER463     -0.1145
     31  O3P       20.0270    7.8240    2.1980 O.2   463  SER463     -0.2224
     32  N         19.9260    9.7430    6.5160 N.am  464  VAL464     -0.1963
     33  CA        20.0380   11.1920    6.5910 C.3   464  VAL464      0.1727
     34  C         19.3410   11.9230    5.4550 C.2   464  VAL464      0.2617
     35  O         19.1520   11.3730    4.3970 O.2   464  VAL464     -0.2715
     36  CB        21.5200   11.6430    6.6900 C.3   464  VAL464      0.0290
     37  CG1       22.1010   11.1760    7.9750 C.3   464  VAL464      0.0023
     38  CG2       22.3220   11.1290    5.5250 C.3   464  VAL464      0.0023
     39  N         18.9480   13.1650    5.7260 N.am  465  SER465     -0.1915
     40  CA        18.2080   14.0260    4.8150 C.3   465  SER465      0.2277
     41  CB        16.9170   14.5090    5.4810 C.3   465  SER465      0.1869
     42  OG        16.0950   13.4630    5.7050 O.3   465  SER465     -0.2678
     43  C         18.9300   15.2930    4.4170 C.2   465  SER465      0.3868
     44  O         18.3330   16.0770    3.6870 O.co2 465  SER465     -0.2437
     45  OXT       20.0180   15.5610    4.8650 O.co2 465  SER465     -0.2437
     46  P         14.7610   13.9450    6.4490 P.3   465  SER465      0.5327
     47  O1P       13.8030   12.6970    6.1950 O.3   465  SER465     -0.1145
     48  O2P       14.9970   14.2590    7.9790 O.3   465  SER465     -0.1145
     49  O3P       14.1210   15.2050    5.7310 O.2   465  SER465     -0.2224
@<TRIPOS>BOND
     1    31    28    2
     2    30    28    1
     3    28    29    1
     4    28    25    1
     5    44    43   ar
     6     7     1    1
     7     7     6    1
     8     1     2    1
     9    35    34    2
    10    43    40    1
    11    43    45   ar
    12    25    24    1
    13    40    41    1
    14    40    39    1
    15     6     5    1
    16     2     5    1
    17     2     3    1
    18    34    39   am
    19    34    33    1
    20    41    42    1
    21    38    36    1
    22    24    23    1
    23     4     3    2
    24    42    46    1
    25    49    46    2
    26     3     8   am
    27    47    46    1
    28    46    48    1
    29    32    33    1
    30    32    26   am
    31    33    36    1
    32    36    37    1
    33    23    26    1
    34    23    22    1
    35    26    27    2
    36     8     9    1
    37    22    18   am
    38    19    18    2
    39     9    10    1
    40     9    12    1
    41    18    17    1
    42    10    16   am
    43    10    11    2
    44    16    17    1
    45    12    13    1
    46    12    14    1
    47    17    20    1
    48    13    15    1
    49    20    21    1
