@<TRIPOS>MOLECULE
3q4b_RX5_A_1.pdb
 36 38 0 0 0
SMALL
GASTEIGER

@<TRIPOS>ATOM
      1  C1        25.3160   -9.1970   -6.3710 C.3   335  RX5335      0.1075
      2  N1        25.5350   -8.0720   -7.2880 N.3   335  RX5335     -0.2161
      3  O1        25.4310  -11.2350  -11.1690 O.2   335  RX5335     -0.2508
      4  C2        26.2920   -8.4090   -8.5250 C.3   335  RX5335      0.0946
      5  N2        26.0060   -9.1650  -10.8360 N.am  335  RX5335     -0.1870
      6  O2        29.2030   -7.1570  -13.4380 O.3   335  RX5335     -0.3499
      7  C3        25.5220   -9.3270   -9.4650 C.3   335  RX5335      0.1340
      8  N3        26.3380  -10.1480  -12.9240 N.am  335  RX5335     -0.2628
      9  O3        27.8540   -2.6940  -13.6150 O.2   335  RX5335     -0.2246
     10  C4        25.9080  -10.2030  -11.6500 C.2   335  RX5335      0.3233
     11  N4        27.8940   -4.7900  -12.5890 N.am  335  RX5335     -0.1660
     12  O4        25.8550   -3.6220  -12.8980 O.3   335  RX5335     -0.4294
     13  C5        26.9440   -8.9620  -13.5810 C.3   335  RX5335      0.0977
     14  C6        28.4120   -9.3260  -13.8840 C.3   335  RX5335      0.0514
     15  C7        28.4600  -10.5760  -14.8020 C.3   335  RX5335      0.0062
     16  C8        27.6300  -11.7620  -14.2580 C.3   335  RX5335      0.0217
     17  C9        26.2140  -11.3350  -13.7920 C.3   335  RX5335      0.0950
     18  C10       29.1870   -8.1430  -14.4660 C.3   335  RX5335      0.1391
     19  C11       27.6450   -8.9850   -8.1350 C.3   335  RX5335      0.0217
     20  C12       28.7560   -8.7410   -9.1500 C.3   335  RX5335      0.0312
     21  C13       29.8010   -9.8440   -8.9650 C.3   335  RX5335      0.1421
     22  O14       30.8880   -9.6470   -9.8890 O.3   335  RX5335     -0.3538
     23  C15       31.6330   -8.4820   -9.5280 C.3   335  RX5335      0.1422
     24  C16       30.7260   -7.2610   -9.6420 C.3   335  RX5335      0.0322
     25  C17       29.4490   -7.4190   -8.8580 C.3   335  RX5335      0.0051
     26  C18       29.5600   -5.8650  -13.9650 C.3   335  RX5335      0.1660
     27  C19       29.3540   -4.8960  -12.7960 C.3   335  RX5335      0.1506
     28  C20       27.2840   -3.6700  -13.0510 C.2   335  RX5335      0.4213
     29  C21       30.6190   -8.4440  -14.7940 C.ar  335  RX5335      0.0054
     30  C22       31.5410   -8.7370  -13.7920 C.ar  335  RX5335      0.0095
     31  C23       32.8580   -9.0120  -14.1170 C.ar  335  RX5335      0.0574
     32  C24       33.3250   -8.9860  -15.4220 C.ar  335  RX5335      0.0114
     33  C25       32.3940   -8.6870  -16.4120 C.ar  335  RX5335      0.0006
     34  C26       31.0580   -8.4410  -16.1090 C.ar  335  RX5335     -0.0019
     35  C27       25.1110   -2.6210  -13.6230 C.3   335  RX5335      0.2574
     36 CL2        33.9910   -9.4230  -12.8060 Cl    335  RX5335     -0.0823
@<TRIPOS>BOND
     1    33    34   ar
     2    33    32   ar
     3    34    29   ar
     4    32    31   ar
     5    15    16    1
     6    15    14    1
     7    29    18    1
     8    29    30   ar
     9    18    14    1
    10    18     6    1
    11    16    17    1
    12    31    30   ar
    13    31    36    1
    14    26     6    1
    15    26    27    1
    16    14    13    1
    17    17     8    1
    18    35    12    1
    19     9    28    2
    20    13     8    1
    21    28    12    1
    22    28    11   am
    23     8    10   am
    24    27    11    1
    25    10     3    2
    26    10     5   am
    27     5     7    1
    28    22    23    1
    29    22    21    1
    30    24    23    1
    31    24    25    1
    32     7     4    1
    33    20    21    1
    34    20    25    1
    35    20    19    1
    36     4    19    1
    37     4     2    1
    38     2     1    1
