@<TRIPOS>MOLECULE
3q4c_RSW_A_1.pdb
 34 39 0 0 0
SMALL
GASTEIGER

@<TRIPOS>ATOM
      1  O        -20.3540   12.1760   -0.1010 O.2     1  RSW1        0.0000
      2 CL        -13.0590    9.8510   -1.6000 Cl      1  RSW1        0.0000
      3 RU        -13.3560   10.6710    0.4310 Ru      1  RSW1        0.0000
      4  C1       -16.0220   10.9670    0.3480 C.ar    1  RSW1        0.0000
      5  N2       -14.9000   11.7210    0.0210 N.ar    1  RSW1        0.0000
      6  O2       -20.0580    7.9660    1.6330 O.2     1  RSW1        0.0000
      7  C3       -15.4080   12.9740   -0.4950 C.ar    1  RSW1        0.0000
      8  O3       -10.1500    8.3500    1.2960 O.co2   1  RSW1        0.0000
      9  C4       -14.7250   14.1570   -1.0000 C.2     1  RSW1        0.0000
     10  O4        -9.3480    9.8100   -0.1180 O.co2   1  RSW1        0.0000
     11  C5       -15.5360   15.2670   -1.4510 C.2     1  RSW1        0.0000
     12  C6       -16.9780   15.2100   -1.4040 C.2     1  RSW1        0.0000
     13  C7       -17.6640   14.0290   -0.9010 C.3     1  RSW1        0.0000
     14  C8       -16.8710   12.9070   -0.4460 C.ar    1  RSW1        0.0000
     15  C9       -17.2590   11.6310    0.0880 C.ar    1  RSW1        0.0000
     16  C10      -18.4620   10.8120    0.4410 C.ar    1  RSW1        0.0000
     17  C11      -19.8440   11.0860    0.3430 C.1     1  RSW1        0.0000
     18  N12      -20.5970   10.0450    0.7810 N.2     1  RSW1        0.0000
     19  C13      -19.6970    9.1040    1.1600 C.1     1  RSW1        0.0000
     20  C14      -18.3540    9.4820    0.9880 C.ar    1  RSW1        0.0000
     21  C15      -17.0410    8.8480    1.2360 C.ar    1  RSW1        0.0000
     22  C16      -16.7520    7.5300    1.7760 C.2     1  RSW1        0.0000
     23  C17      -15.3760    7.0940    1.9370 C.2     1  RSW1        0.0000
     24  C18      -14.2660    7.9450    1.5710 C.2     1  RSW1        0.0000
     25  N19      -14.5260    9.2510    1.0420 N.pl3   1  RSW1        0.0000
     26  C20      -15.8590    9.6570    0.8880 C.ar    1  RSW1        0.0000
     27  C21      -15.0940    5.7310    2.4940 C.3     1  RSW1        0.0000
     28  C22      -11.3770   10.3930    1.2350 C.ar    1  RSW1        0.0000
     29  C23      -11.4920   11.6880    0.6580 C.ar    1  RSW1        0.0000
     30  C24      -12.5130   12.5520    1.0420 C.ar    1  RSW1        0.0000
     31  C25      -13.4610   12.1470    2.0160 C.ar    1  RSW1        0.0000
     32  C26      -13.3600   10.8920    2.6070 C.ar    1  RSW1        0.0000
     33  C27      -12.3290   10.0060    2.2170 C.ar    1  RSW1        0.0000
     34  C28      -10.2680    9.4700    0.8090 C.2     1  RSW1        0.0000
@<TRIPOS>BOND
     1    11    12    2
     2    11     9    1
     3    12    13    1
     4     9     7    2
     5    13    14    1
     6     7    14   ar
     7     7     5   ar
     8    14    15   ar
     9    10    34   ar
    10     1    17    2
    11     5     4   ar
    12     5     3    1
    13    15     4   ar
    14    15    16   ar
    15    17    16    1
    16    17    18    2
    17     4    26   ar
    18     3    29    1
    19     3    25    1
    20    16    20   ar
    21    29    30   ar
    22    29    28   ar
    23    18    19    2
    24    34    28    1
    25    34     8   ar
    26    26    25    1
    27    26    21   ar
    28    20    19    1
    29    20    21   ar
    30    25    24    1
    31    30    31   ar
    32    19     6    2
    33    28    33   ar
    34    21    22    2
    35    24    23    2
    36    22    23    1
    37    23    27    1
    38    31    32   ar
    39    33    32   ar
