@<TRIPOS>MOLECULE
3q4j_III_H_1.pdb
 48 48 0 0 0
SMALL
GASTEIGER

@<TRIPOS>ATOM
      1  C         12.1900  -16.7280   25.2870 C.2    69  ACE69       0.2423
      2  O         11.8090  -17.6830   25.9550 O.2    69  ACE69      -0.2733
      3  CH3       13.1410  -15.7430   25.9240 C.3    69  ACE69       0.0964
      4  N         11.7780  -16.4840   24.0120 N.am   70  GLN70      -0.1978
      5  CA        10.8260  -17.2830   23.2460 C.3    70  GLN70       0.1732
      6  C         11.0260  -18.8180   23.2430 C.2    70  GLN70       0.2616
      7  O         11.9870  -19.3400   22.6440 O.2    70  GLN70      -0.2715
      8  CB        10.6680  -16.7430   21.8160 C.3    70  GLN70       0.0408
      9  CG         9.5030  -17.3990   21.0190 C.3    70  GLN70       0.0908
     10  CD         8.1330  -17.2590   21.6880 C.2    70  GLN70       0.2608
     11  OE1        7.4180  -18.2500   21.9010 O.2    70  GLN70      -0.2717
     12  NE2        7.7690  -16.0300   22.0960 N.am   70  GLN70      -0.0878
     13  N         10.0770  -19.5310   23.8890 N.am   71  LEU71      -0.1963
     14  CA        10.0740  -20.9930   23.9300 C.3    71  LEU71       0.1728
     15  C          9.3370  -21.5410   22.6900 C.2    71  LEU71       0.2616
     16  O          8.6030  -20.8120   22.0080 O.2    71  LEU71      -0.2715
     17  CB         9.5070  -21.5520   25.2540 C.3    71  LEU71       0.0311
     18  CG        10.2640  -21.1760   26.5500 C.3    71  LEU71       0.0022
     19  CD1        9.3690  -21.3160   27.7730 C.3    71  LEU71       0.0001
     20  CD2       11.5120  -22.0450   26.7360 C.3    71  LEU71       0.0001
     21  N          9.5570  -22.8130   22.3790 N.am   72  ASP72      -0.1957
     22  CA         8.9660  -23.4580   21.2130 C.3    72  ASP72       0.1840
     23  C          7.8050  -24.3690   21.5580 C.2    72  ASP72       0.2622
     24  O          7.8470  -25.0310   22.5890 O.2    72  ASP72      -0.2715
     25  CB        10.0570  -24.1790   20.3970 C.3    72  ASP72       0.1450
     26  CG        10.8050  -23.2190   19.4720 C.2    72  ASP72       0.3671
     27  OD1       11.5580  -22.3580   19.9860 O.co2  72  ASP72      -0.2456
     28  OD2       10.5760  -23.2780   18.2310 O.co2  72  ASP72      -0.2456
     29  N          6.7660  -24.3940   20.6940 N.am   73  LEU73      -0.1963
     30  CA         5.5980  -25.2600   20.8390 C.3    73  LEU73       0.1728
     31  C          5.9490  -26.7250   20.5850 C.2    73  LEU73       0.2617
     32  O          5.3430  -27.6280   21.1890 O.2    73  LEU73      -0.2715
     33  CB         4.4870  -24.8290   19.8680 C.3    73  LEU73       0.0311
     34  CG         3.4840  -23.8170   20.3450 C.3    73  LEU73       0.0022
     35  CD1        2.4330  -23.6490   19.2950 C.3    73  LEU73       0.0001
     36  CD2        2.8070  -24.2510   21.6510 C.3    73  LEU73       0.0001
     37  N          6.8970  -26.9410   19.6440 N.am   74  PHE74      -0.1938
     38  CA         7.3780  -28.2650   19.2110 C.3    74  PHE74       0.2021
     39  C          8.7520  -28.0890   18.5100 C.2    74  PHE74       0.3845
     40  O          9.1000  -26.9370   18.1260 O.co2  74  PHE74      -0.2437
     41  CB         6.3400  -28.9320   18.2710 C.3    74  PHE74       0.0596
     42  CG         5.8190  -28.0300   17.1710 C.ar   74  PHE74      -0.0199
     43  CD1        6.5020  -27.9090   15.9630 C.ar   74  PHE74      -0.0042
     44  CD2        4.6610  -27.2810   17.3520 C.ar   74  PHE74      -0.0042
     45  CE1        6.0470  -27.0440   14.9720 C.ar   74  PHE74      -0.0003
     46  CE2        4.2300  -26.3790   16.3750 C.ar   74  PHE74      -0.0003
     47  CZ         4.9180  -26.2810   15.1860 C.ar   74  PHE74      -0.0000
     48  OXT        9.4690  -29.1020   18.3450 O.co2  74  PHE74      -0.2437
@<TRIPOS>BOND
     1    45    47   ar
     2    45    43   ar
     3    47    46   ar
     4    43    42   ar
     5    46    44   ar
     6    42    44   ar
     7    42    41    1
     8    40    39   ar
     9    28    26   ar
    10    41    38    1
    11    48    39   ar
    12    39    38    1
    13    38    37    1
    14    35    34    1
    15    26    27   ar
    16    26    25    1
    17    37    31   am
    18    33    34    1
    19    33    30    1
    20    34    36    1
    21    25    22    1
    22    31    30    1
    23    31    32    2
    24    29    30    1
    25    29    23   am
    26     9    10    1
    27     9     8    1
    28    22    23    1
    29    22    21    1
    30    23    24    2
    31    10    11    2
    32    10    12   am
    33     8     5    1
    34    16    15    2
    35    21    15   am
    36     7     6    2
    37    15    14    1
    38     6     5    1
    39     6    13   am
    40     5     4    1
    41    13    14    1
    42    14    17    1
    43     4     1   am
    44    17    18    1
    45     1     3    1
    46     1     2    2
    47    18    20    1
    48    18    19    1
