@<TRIPOS>MOLECULE
3q4p_M7G_A_1.pdb
 29 31 0 0 0
SMALL
GASTEIGER

@<TRIPOS>ATOM
      1  PA        -6.0150  -21.2420  -22.0490 P.3   247  M7G247      0.2231
      2  O1A       -7.2220  -22.0650  -22.2380 O.3   247  M7G247     -0.4370
      3  O2A       -5.7050  -20.0860  -22.8920 O.2   247  M7G247     -0.5169
      4  O3A       -4.8070  -22.2830  -21.8960 O.3   247  M7G247     -0.2261
      5  O5'       -5.9650  -20.6710  -20.6450 O.3   247  M7G247     -0.3111
      6  PB        -4.1770  -23.3060  -22.9450 P.3   247  M7G247      0.5373
      7  O1B       -4.3810  -22.7360  -24.2920 O.2   247  M7G247     -0.2221
      8  O2B       -2.7780  -23.2180  -22.5620 O.3   247  M7G247     -0.1143
      9  O3B       -4.8720  -24.5790  -22.6520 O.3   247  M7G247     -0.1143
     10  C5'       -5.9420  -21.5870  -19.6490 C.3   247  M7G247      0.1813
     11  C4'       -4.8030  -21.3540  -18.6950 C.3   247  M7G247      0.1799
     12  O4'       -5.5620  -21.5700  -17.5560 O.3   247  M7G247     -0.3326
     13  C3'       -4.0280  -22.6570  -18.8110 C.3   247  M7G247      0.2158
     14  O3'       -3.3060  -23.0200  -17.6260 O.3   247  M7G247     -0.2175
     15  C2'       -5.1890  -23.5810  -18.7920 C.3   247  M7G247      0.2310
     16  O2'       -4.7140  -24.8160  -18.3010 O.3   247  M7G247     -0.2158
     17  C1'       -6.0270  -22.8740  -17.7560 C.3   247  M7G247      0.2287
     18  N9        -7.4040  -22.8480  -18.1700 N.pl3 247  M7G247     -0.2454
     19  C8        -7.6600  -23.5110  -19.4250 C.3   247  M7G247      0.1735
     20  N7        -9.0830  -23.2850  -19.3790 N.3   247  M7G247     -0.2343
     21  CM7       -9.2320  -23.4650  -20.8360 C.3   247  M7G247      0.0924
     22  C5        -9.5370  -22.6360  -18.3060 C.3   247  M7G247      0.2475
     23  C6       -10.8500  -22.2220  -17.8380 C.1   247  M7G247      0.2145
     24  O6       -11.8660  -22.4570  -18.5060 O.2   247  M7G247     -0.2115
     25  N1       -10.8690  -21.5920  -16.6590 N.2   247  M7G247     -0.2526
     26  C2        -9.7630  -21.3490  -15.9400 C.1   247  M7G247      0.2525
     27  N2        -9.8360  -20.7230  -14.7780 N.pl3 247  M7G247     -0.0226
     28  N3        -8.5480  -21.7180  -16.3130 N.2   247  M7G247     -0.3118
     29  C4        -8.3920  -22.3540  -17.4760 C.2   247  M7G247      0.2086
@<TRIPOS>BOND
     1     7     6    2
     2     6     9    1
     3     6     8    1
     4     6     4    1
     5     3     1    2
     6     2     1    1
     7     1     4    1
     8     1     5    1
     9    21    20    1
    10     5    10    1
    11    10    11    1
    12    19    20    1
    13    19    18    1
    14    20    22    1
    15    13    15    1
    16    13    11    1
    17    13    14    1
    18    15    16    1
    19    15    17    1
    20    11    12    1
    21    24    23    2
    22    22    23    1
    23    22    29    1
    24    18    17    1
    25    18    29    1
    26    23    25    2
    27    17    12    1
    28    29    28    2
    29    25    26    2
    30    28    26    2
    31    26    27    1
