@<TRIPOS>MOLECULE
3q4t_TAK_A_1.pdb
 30 34 0 0 0
SMALL
GASTEIGER

@<TRIPOS>ATOM
      1  C1       -46.7840   44.1660    0.3160 C.3     2  TAK2        0.0722
      2  C2       -46.2710   43.0220   -0.5810 C.3     2  TAK2        0.0174
      3  C3       -47.3430   41.9320   -0.7550 C.3     2  TAK2        0.0029
      4  C4       -48.7170   42.5230   -1.1260 C.3     2  TAK2        0.0174
      5  C5       -49.1060   43.7130   -0.2210 C.3     2  TAK2        0.0722
      6  N1       -48.0380   44.7420   -0.2270 N.3     2  TAK2       -0.2696
      7  C6       -48.4310   45.9220    0.5840 C.3     2  TAK2        0.1200
      8  C7       -49.2410   46.9850   -0.2110 C.3     2  TAK2        0.2226
      9  O1       -48.6970   47.4010   -1.5080 O.3     2  TAK2       -0.4740
     10  C8       -47.9590   48.5570   -1.5380 C.ar    2  TAK2        0.1386
     11  C9       -46.6830   48.5120   -2.1110 C.ar    2  TAK2        0.0369
     12  C10      -45.8950   49.6660   -2.1890 C.ar    2  TAK2        0.0030
     13  C11      -48.4470   49.7830   -1.0400 C.ar    2  TAK2        0.0369
     14  C12      -47.6440   50.9380   -1.1070 C.ar    2  TAK2        0.0030
     15  C13      -46.3460   50.9020   -1.6820 C.ar    2  TAK2        0.0039
     16  C14      -45.5060   52.0530   -1.7700 C.2     2  TAK2        0.0734
     17  C15      -44.1400   51.9050   -2.0610 C.3     2  TAK2        0.2621
     18  C16      -45.9800   53.3570   -1.5450 C.2     2  TAK2        0.2351
     19  N2       -45.1940   54.4450   -1.6390 N.2     2  TAK2       -0.0380
     20  C17      -43.8810   54.3410   -1.9500 C.2     2  TAK2        0.3334
     21  N3       -43.3030   53.0600   -2.1850 N.pl3   2  TAK2       -0.0747
     22  N4       -42.0910   53.1920   -2.4460 N.2     2  TAK2       -0.0898
     23  C18      -41.7700   54.4990   -2.4220 C.2     2  TAK2        0.1324
     24  C19      -42.8530   55.2510   -2.1310 C.3     2  TAK2        0.1750
     25  C20      -42.9440   56.6580   -1.9810 C.ar    2  TAK2       -0.0021
     26  C21      -42.2580   57.5340   -2.8390 C.ar    2  TAK2        0.0174
     27  C22      -42.3510   58.9320   -2.6330 C.ar    2  TAK2        0.0986
     28  N5       -43.1060   59.4740   -1.6640 N.ar    2  TAK2       -0.2423
     29  C23      -43.7820   58.6650   -0.8370 C.ar    2  TAK2        0.0986
     30  C24      -43.7180   57.2610   -0.9590 C.ar    2  TAK2        0.0174
@<TRIPOS>BOND
     1    26    27   ar
     2    26    25   ar
     3    27    28   ar
     4    22    23    2
     5    22    21    1
     6    23    24    1
     7    12    11   ar
     8    12    15   ar
     9    21    17    1
    10    21    20    1
    11    24    25    1
    12    24    20    1
    13    11    10   ar
    14    17    16    1
    15    25    30   ar
    16    20    19    2
    17    16    15    1
    18    16    18    2
    19    15    14   ar
    20    28    29   ar
    21    19    18    1
    22    10     9    1
    23    10    13   ar
    24     9     8    1
    25     4     3    1
    26     4     5    1
    27    14    13   ar
    28    30    29   ar
    29     3     2    1
    30     2     1    1
    31     6     5    1
    32     6     1    1
    33     6     7    1
    34     8     7    1
