@<TRIPOS>MOLECULE
3q4u_LDN_A_1.pdb
 31 36 0 0 0
SMALL
GASTEIGER

@<TRIPOS>ATOM
      1  CAA       26.2170  -18.7570    9.0750 C.ar    3  LDN3        0.0015
      2  CAB       25.7500  -19.8650    8.3770 C.ar    3  LDN3        0.0001
      3  CAC       23.6500  -15.8280    6.3500 C.ar    3  LDN3        0.0988
      4  CAD       23.1560  -16.9040    5.5860 C.ar    3  LDN3        0.0210
      5  CAE       20.6280  -24.9920    6.7030 C.ar    3  LDN3        0.0012
      6  CAF       19.7360  -24.7050    4.4960 C.ar    3  LDN3        0.0012
      7  CAG       20.0860  -26.2740    6.7770 C.ar    3  LDN3        0.0145
      8  CAH       19.2320  -26.0160    4.5710 C.ar    3  LDN3        0.0145
      9  CAI       25.7750  -17.4930    8.7280 C.ar    3  LDN3        0.0191
     10  CAJ       24.8380  -19.6650    7.3410 C.ar    3  LDN3        0.0015
     11  CAK       21.4360  -22.2280    6.7180 C.2     3  LDN3        0.2355
     12  CAL       22.8450  -19.2980    3.7390 C.2     3  LDN3        0.1363
     13  CAM       21.3020  -22.3510    4.3260 C.3     3  LDN3        0.2600
     14  CAN       19.3700  -30.3050    4.8990 C.3     3  LDN3        0.1101
     15  CAO       18.2400  -30.2220    7.0930 C.3     3  LDN3        0.1101
     16  CAP       18.7230  -28.9590    4.6080 C.3     3  LDN3        0.1096
     17  CAQ       18.9440  -28.8370    7.1040 C.3     3  LDN3        0.1096
     18  NAR       24.5100  -16.0440    7.3500 N.ar    3  LDN3       -0.2438
     19  NAS       22.0270  -20.9940    6.6690 N.2     3  LDN3       -0.0344
     20  NAT       22.2480  -20.4290    3.2910 N.pl3   3  LDN3       -0.0549
     21  NAU       18.5880  -31.0490    5.9120 N.3     3  LDN3       -0.2144
     22  CAV       20.4340  -24.1830    5.5960 C.ar    3  LDN3        0.0038
     23  CAW       21.0210  -22.9020    5.5640 C.2     3  LDN3        0.0732
     24  CAX       19.3940  -26.7930    5.6990 C.ar    3  LDN3        0.0479
     25  CAY       23.4700  -18.2170    5.8910 C.ar    3  LDN3        0.0116
     26  CAZ       22.9090  -19.2730    5.0580 C.2     3  LDN3        0.1044
     27  CBA       24.8790  -17.2900    7.6820 C.ar    3  LDN3        0.0813
     28  CBB       24.4010  -18.4050    6.9550 C.ar    3  LDN3        0.0180
     29  CBC       22.3050  -20.4510    5.4590 C.2     3  LDN3        0.3475
     30  NBD       18.9250  -28.1420    5.8090 N.pl3   3  LDN3       -0.3045
     31  NBE       21.9260  -21.1290    4.2630 N.pl3   3  LDN3       -0.0803
@<TRIPOS>BOND
     1    20    12    1
     2    20    31    1
     3    12    26    2
     4    31    13    1
     5    31    29    1
     6    13    23    1
     7     6     8   ar
     8     6    22   ar
     9     8    24   ar
    10    16    14    1
    11    16    30    1
    12    14    21    1
    13    26    29    1
    14    26    25    1
    15    29    19    2
    16    23    22    1
    17    23    11    2
    18     4    25   ar
    19     4     3   ar
    20    22     5   ar
    21    24    30    1
    22    24     7   ar
    23    30    17    1
    24    25    28   ar
    25    21    15    1
    26     3    18   ar
    27    19    11    1
    28     5     7   ar
    29    28    10   ar
    30    28    27   ar
    31    15    17    1
    32    10     2   ar
    33    18    27   ar
    34    27     9   ar
    35     2     1   ar
    36     9     1   ar
