@<TRIPOS>MOLECULE
3q4z_ANP_A_1.pdb
 31 33 0 0 0
SMALL
GASTEIGER

@<TRIPOS>ATOM
      1  PG        15.8570  -10.0600    7.7650 P.3   800  ANP800      0.4884
      2  O1G       15.8530  -10.0660    6.2230 O.2   800  ANP800     -0.2331
      3  O2G       17.0000  -11.0280    8.2770 O.3   800  ANP800     -0.1240
      4  O3G       16.1270   -8.6670    8.2550 O.3   800  ANP800     -0.1240
      5  PB        14.4710  -11.0710   10.0350 P.3   800  ANP800      0.4669
      6  O1B       15.9790  -10.7140   10.3230 O.2   800  ANP800     -0.2351
      7  O2B       13.8750  -10.0550   11.2380 O.3   800  ANP800     -0.1253
      8  N3B       14.3570  -10.5750    8.3310 N.3   800  ANP800     -0.0163
      9  PA        14.4220  -13.7860    9.1570 P.3   800  ANP800      0.2220
     10  O1A       15.5870  -14.7910    9.2220 O.3   800  ANP800     -0.4370
     11  O2A       14.4240  -13.0920    7.7840 O.2   800  ANP800     -0.5170
     12  O3A       14.5710  -12.7240   10.3580 O.3   800  ANP800     -0.2360
     13  O5'       13.0650  -14.5680    9.3760 O.3   800  ANP800     -0.3111
     14  C5'       13.0910  -15.7030   10.2000 C.3   800  ANP800      0.1813
     15  C4'       12.3290  -15.7070   11.3920 C.3   800  ANP800      0.1821
     16  O4'       12.6860  -16.9400   12.1430 O.3   800  ANP800     -0.3135
     17  C3'       12.6850  -14.5820   12.2650 C.3   800  ANP800      0.2184
     18  O3'       11.5560  -14.1180   12.8800 O.3   800  ANP800     -0.2174
     19  C2'       13.6210  -15.1340   13.2690 C.3   800  ANP800      0.2570
     20  O2'       13.3100  -14.6040   14.4960 O.3   800  ANP800     -0.2130
     21  C1'       13.4120  -16.6080   13.2880 C.3   800  ANP800      0.3186
     22  N9        14.6120  -17.4690   13.3340 N.pl3 800  ANP800     -0.1439
     23  C8        15.6650  -17.4030   12.5200 C.3   800  ANP800      0.3377
     24  N7        16.5260  -18.3590   12.8830 N.2   800  ANP800     -0.2095
     25  C5        16.0130  -19.0440   13.9290 C.2   800  ANP800      0.2526
     26  C6        16.4620  -20.1280   14.7070 C.2   800  ANP800      0.4393
     27  N6        17.7550  -20.7680   14.4510 N.pl3 800  ANP800      0.2180
     28  N1        15.6850  -20.5740   15.6970 N.2   800  ANP800      0.0021
     29  C2        14.5080  -20.0100   15.9490 C.3   800  ANP800      0.5254
     30  N3        14.0510  -18.9780   15.2290 N.2   800  ANP800     -0.0055
     31  C4        14.7810  -18.4760   14.2150 C.2   800  ANP800      0.3518
@<TRIPOS>BOND
     1     2     1    2
     2     1     4    1
     3     1     3    1
     4     1     8    1
     5    11     9    2
     6     8     5    1
     7     9    10    1
     8     9    13    1
     9     9    12    1
    10    13    14    1
    11     5     6    2
    12     5    12    1
    13     5     7    1
    14    14    15    1
    15    15    16    1
    16    15    17    1
    17    16    21    1
    18    17    18    1
    19    17    19    1
    20    23    24    1
    21    23    22    1
    22    24    25    2
    23    19    21    1
    24    19    20    1
    25    21    22    1
    26    22    31    1
    27    25    31    1
    28    25    26    1
    29    31    30    2
    30    27    26    1
    31    26    28    2
    32    30    29    1
    33    28    29    1
