@<TRIPOS>MOLECULE
3q53_ATP_A_1.pdb
 31 33 0 0 0
SMALL
GASTEIGER

@<TRIPOS>ATOM
      1  PG       -15.1870  -31.4480   22.4170 P.3     1  ATP1        0.5373
      2  O1G      -15.1700  -30.1720   23.2210 O.3     1  ATP1       -0.1143
      3  O2G      -14.5230  -32.6010   23.1300 O.3     1  ATP1       -0.1143
      4  O3G      -16.5150  -31.7970   21.7850 O.2     1  ATP1       -0.2221
      5  PB       -12.8340  -31.8280   20.8410 P.3     1  ATP1        0.2277
      6  O1B      -12.4870  -32.8430   21.8990 O.3     1  ATP1       -0.4368
      7  O2B      -11.8260  -30.7720   20.4660 O.2     1  ATP1       -0.5168
      8  O3B      -14.2480  -31.1120   21.1460 O.3     1  ATP1       -0.2258
      9  PA       -13.3900  -34.1990   19.4090 P.3     1  ATP1        0.2189
     10  O1A      -14.2600  -34.4930   18.2270 O.2     1  ATP1       -0.5170
     11  O2A      -13.7630  -34.7580   20.7600 O.3     1  ATP1       -0.4371
     12  O3A      -13.2210  -32.5980   19.4840 O.3     1  ATP1       -0.2700
     13  O5'      -11.8800  -34.6210   19.0730 O.3     1  ATP1       -0.3112
     14  C5'      -11.1840  -35.5650   19.8770 C.3     1  ATP1        0.1813
     15  C4'       -9.6820  -35.3880   19.6650 C.3     1  ATP1        0.1821
     16  O4'       -9.3490  -35.8230   18.3410 O.3     1  ATP1       -0.3135
     17  C3'       -9.2400  -33.9320   19.7870 C.3     1  ATP1        0.2184
     18  O3'       -7.9480  -33.9410   20.4020 O.3     1  ATP1       -0.2174
     19  C2'       -9.0860  -33.4810   18.3490 C.3     1  ATP1        0.2570
     20  O2'       -8.1130  -32.4380   18.2000 O.3     1  ATP1       -0.2130
     21  C1'       -8.6780  -34.7700   17.6430 C.3     1  ATP1        0.3186
     22  N9        -9.0810  -34.7610   16.2130 N.pl3   1  ATP1       -0.1439
     23  C8       -10.3300  -34.5820   15.7300 C.3     1  ATP1        0.3377
     24  N7       -10.3300  -34.6330   14.3790 N.2     1  ATP1       -0.2095
     25  C5        -9.0570  -34.8330   13.9660 C.2     1  ATP1        0.2526
     26  C6        -8.3750  -34.9770   12.6650 C.2     1  ATP1        0.4393
     27  N6        -9.0860  -34.8920   11.5070 N.pl3   1  ATP1        0.2180
     28  N1        -7.0330  -35.1740   12.6830 N.2     1  ATP1        0.0021
     29  C2        -6.3270  -35.2400   13.8330 C.3     1  ATP1        0.5254
     30  N3        -6.8920  -35.1270   15.0530 N.2     1  ATP1       -0.0055
     31  C4        -8.2330  -34.9210   15.1830 C.2     1  ATP1        0.3518
@<TRIPOS>BOND
     1    27    26    1
     2    26    28    2
     3    26    25    1
     4    28    29    1
     5    29    30    1
     6    25    24    2
     7    25    31    1
     8    24    23    1
     9    30    31    2
    10    31    22    1
    11    23    22    1
    12    22    21    1
    13    21    16    1
    14    21    19    1
    15    20    19    1
    16    10     9    2
    17    16    15    1
    18    19    17    1
    19    13     9    1
    20    13    14    1
    21     9    12    1
    22     9    11    1
    23    12     5    1
    24    15    17    1
    25    15    14    1
    26    17    18    1
    27     7     5    2
    28     5     8    1
    29     5     6    1
    30     8     1    1
    31     4     1    2
    32     1     3    1
    33     1     2    1
