@<TRIPOS>MOLECULE
3q5d_GDP_A_1.pdb
 28 30 0 0 0
SMALL
GASTEIGER

@<TRIPOS>ATOM
      1  PB         5.5080   36.7040   37.2870 P.3   3850  GDP3850     0.5373
      2  O1B        6.8470   36.9480   37.9290 O.3   3850  GDP3850    -0.1143
      3  O2B        4.3910   36.8940   38.2890 O.3   3850  GDP3850    -0.1143
      4  O3B        5.3500   37.7220   36.1750 O.2   3850  GDP3850    -0.2221
      5  O3A        5.4800   35.1900   36.7530 O.3   3850  GDP3850    -0.2261
      6  PA         4.2130   34.1940   36.8640 P.3   3850  GDP3850     0.2231
      7  O1A        2.9730   34.7100   36.1650 O.2   3850  GDP3850    -0.5169
      8  O2A        3.9060   33.8400   38.2990 O.3   3850  GDP3850    -0.4370
      9  O5'        4.7510   32.8710   36.1270 O.3   3850  GDP3850    -0.3111
     10  C5'        5.4680   32.9230   34.8970 C.3   3850  GDP3850     0.1813
     11  C4'        5.4970   31.5170   34.3100 C.3   3850  GDP3850     0.1799
     12  O4'        6.4390   30.6910   35.0140 O.3   3850  GDP3850    -0.3326
     13  C3'        4.1580   30.8270   34.4620 C.3   3850  GDP3850     0.2158
     14  O3'        4.0530   29.9210   33.3660 O.3   3850  GDP3850    -0.2175
     15  C2'        4.3070   30.0260   35.7360 C.3   3850  GDP3850     0.2310
     16  O2'        3.4310   28.8980   35.7700 O.3   3850  GDP3850    -0.2158
     17  C1'        5.7700   29.6160   35.6880 C.3   3850  GDP3850     0.2293
     18  N9         6.3480   29.4970   37.0470 N.pl3 3850  GDP3850    -0.2354
     19  C8         5.8010   29.8770   38.2090 C.3   3850  GDP3850     0.2246
     20  N7         6.6490   29.6280   39.2370 N.2   3850  GDP3850    -0.2322
     21  C5         7.7780   29.1010   38.7390 C.2   3850  GDP3850     0.2182
     22  C6         9.0810   28.6090   39.2570 C.1   3850  GDP3850     0.2372
     23  O6         9.3260   28.6290   40.4790 O.2   3850  GDP3850    -0.2069
     24  N1         9.9800   28.1420   38.3690 N.2   3850  GDP3850    -0.2485
     25  C2         9.7040   28.1100   37.0360 C.1   3850  GDP3850     0.2531
     26  N2        10.5890   27.6370   36.1360 N.pl3 3850  GDP3850    -0.0226
     27  N3         8.5390   28.5280   36.5190 N.2   3850  GDP3850    -0.3074
     28  C4         7.5600   29.0240   37.2940 C.2   3850  GDP3850     0.2300
@<TRIPOS>BOND
     1    14    13    1
     2    11    13    1
     3    11    10    1
     4    11    12    1
     5    13    15    1
     6    10     9    1
     7    12    17    1
     8    17    15    1
     9    17    18    1
    10    15    16    1
    11     9     6    1
    12    26    25    1
    13     7     6    2
    14     4     1    2
    15    27    25    2
    16    27    28    2
    17     5     6    1
    18     5     1    1
    19     6     8    1
    20    25    24    2
    21    18    28    1
    22    18    19    1
    23     1     2    1
    24     1     3    1
    25    28    21    1
    26    19    20    1
    27    24    22    2
    28    21    20    2
    29    21    22    1
    30    22    23    2
