@<TRIPOS>MOLECULE
3q5e_GDP_A_1.pdb
 28 30 0 0 0
SMALL
GASTEIGER

@<TRIPOS>ATOM
      1  PB        -5.0020   25.5630  -17.9100 P.3   3850  GDP3850     0.5373
      2  O1B       -6.0460   25.1910  -16.8900 O.3   3850  GDP3850    -0.1143
      3  O2B       -5.0460   24.5540  -19.0260 O.2   3850  GDP3850    -0.2221
      4  O3B       -5.2470   26.9730  -18.4140 O.3   3850  GDP3850    -0.1143
      5  O3A       -3.5810   25.4470  -17.1910 O.3   3850  GDP3850    -0.2261
      6  PA        -2.3460   26.2280  -17.8290 P.3   3850  GDP3850     0.2231
      7  O1A       -2.7840   27.1790  -18.9160 O.2   3850  GDP3850    -0.5169
      8  O2A       -1.4050   25.2260  -18.4010 O.3   3850  GDP3850    -0.4370
      9  O5'       -1.7440   26.9480  -16.5300 O.3   3850  GDP3850    -0.3111
     10  C5'       -2.1720   28.2600  -16.1640 C.3   3850  GDP3850     0.1813
     11  C4'       -0.9330   29.0300  -15.7450 C.3   3850  GDP3850     0.1799
     12  O4'       -0.4590   28.5700  -14.4780 O.3   3850  GDP3850    -0.3326
     13  C3'        0.1520   28.7410  -16.7570 C.3   3850  GDP3850     0.2158
     14  O3'        0.7620   29.9660  -17.1270 O.3   3850  GDP3850    -0.2175
     15  C2'        1.1810   27.9050  -16.0490 C.3   3850  GDP3850     0.2310
     16  O2'        2.4730   28.3650  -16.4520 O.3   3850  GDP3850    -0.2158
     17  C1'        0.8860   28.1050  -14.5640 C.3   3850  GDP3850     0.2293
     18  N9         0.9430   26.8330  -13.7950 N.pl3 3850  GDP3850    -0.2354
     19  C8         1.0900   25.5910  -14.2970 C.3   3850  GDP3850     0.2246
     20  N7         1.0760   24.6440  -13.3200 N.2   3850  GDP3850    -0.2322
     21  C5         0.9060   25.2760  -12.1530 C.2   3850  GDP3850     0.2182
     22  C6         0.7970   24.8710  -10.7340 C.1   3850  GDP3850     0.2372
     23  O6         0.8610   23.6790  -10.3960 O.2   3850  GDP3850    -0.2069
     24  N1         0.6260   25.8360   -9.8230 N.2   3850  GDP3850    -0.2485
     25  C2         0.5440   27.1400  -10.1640 C.1   3850  GDP3850     0.2531
     26  N2         0.3690   28.0500   -9.1790 N.pl3 3850  GDP3850    -0.0226
     27  N3         0.6290   27.5870  -11.4480 N.2   3850  GDP3850    -0.3074
     28  C4         0.8080   26.7180  -12.4710 C.2   3850  GDP3850     0.2300
@<TRIPOS>BOND
     1     3     1    2
     2     7     6    2
     3     4     1    1
     4     8     6    1
     5     1     5    1
     6     1     2    1
     7     6     5    1
     8     6     9    1
     9    14    13    1
    10    13    15    1
    11    13    11    1
    12     9    10    1
    13    16    15    1
    14    10    11    1
    15    15    17    1
    16    11    12    1
    17    17    12    1
    18    17    18    1
    19    19    18    1
    20    19    20    1
    21    18    28    1
    22    20    21    2
    23    28    21    1
    24    28    27    2
    25    21    22    1
    26    27    25    2
    27    22    23    2
    28    22    24    2
    29    25    24    2
    30    25    26    1
