@<TRIPOS>MOLECULE
3q5h_RX6_A_1.pdb
 36 38 0 0 0
SMALL
GASTEIGER

@<TRIPOS>ATOM
      1  C1        29.3250   -8.1790  -14.4320 C.3   335  RX6335      0.1391
      2  N1        28.0580   -4.7840  -12.6560 N.am  335  RX6335     -0.1660
      3  O1        31.0520   -9.9120  -10.0740 O.3   335  RX6335     -0.3538
      4  C2        25.5970   -2.3910  -13.6530 C.3   335  RX6335      0.2574
      5  O2        26.1080   -3.5270  -12.9560 O.3   335  RX6335     -0.4294
      6  C3        30.7050   -8.5840  -14.7400 C.ar  335  RX6335      0.0054
      7  O3        29.5180   -7.1390  -13.4800 O.3   335  RX6335     -0.3499
      8  C4        31.6370   -8.8650  -13.7180 C.ar  335  RX6335      0.0095
      9  C5        31.0880   -8.6270  -16.0780 C.ar  335  RX6335     -0.0019
     10  C6        32.9420   -9.1790  -14.0670 C.ar  335  RX6335      0.0574
     11  C7        32.3930   -8.9560  -16.4020 C.ar  335  RX6335      0.0006
     12  C8        33.3200   -9.2400  -15.4040 C.ar  335  RX6335      0.0114
     13  C9        27.5340   -3.6600  -13.0580 C.2   335  RX6335      0.4213
     14 CL28       34.1620   -9.6080  -12.8200 Cl    335  RX6335     -0.0823
     15  C32       26.7500   -9.1000   -9.3050 C.3   335  RX6335      0.1143
     16  C33       25.3610   -8.7490   -8.7700 C.3   335  RX6335      0.1104
     17  C34       27.8460   -8.1340   -8.8950 C.3   335  RX6335      0.0257
     18  N35       25.3620   -8.3010   -7.3510 N.3   335  RX6335     -0.2147
     19  O35       28.2100   -2.7530  -13.5180 O.2   335  RX6335     -0.2246
     20  C36       29.1960   -8.3850   -9.5840 C.3   335  RX6335      0.0315
     21  C37       30.2060   -7.4120   -8.9690 C.3   335  RX6335      0.0051
     22  C38       31.6230   -7.6980   -9.5030 C.3   335  RX6335      0.0322
     23  C39       32.0760   -9.1720   -9.4930 C.3   335  RX6335      0.1422
     24  C40       29.7630   -9.7850   -9.3930 C.3   335  RX6335      0.1421
     25  N42       26.7750   -9.1200  -10.7390 N.am  335  RX6335     -0.1887
     26  C43       26.4560  -10.1950  -11.4480 C.2   335  RX6335      0.3232
     27  O44       26.0930  -11.2620  -10.8930 O.2   335  RX6335     -0.2508
     28  N45       26.5650  -10.0780  -12.7750 N.am  335  RX6335     -0.2628
     29  C46       27.6880  -11.6930  -14.1880 C.3   335  RX6335      0.0217
     30  C47       28.5430  -10.5400  -14.6900 C.3   335  RX6335      0.0062
     31  C48       28.5380   -9.2900  -13.7570 C.3   335  RX6335      0.0514
     32  C49       27.0590   -8.8830  -13.4760 C.3   335  RX6335      0.0977
     33  C50       26.2840  -11.1890  -13.6740 C.3   335  RX6335      0.0950
     34  C51       25.5810   -9.3180   -6.3310 C.3   335  RX6335      0.1075
     35  CT2       29.7150   -5.8290  -14.0100 C.3   335  RX6335      0.1660
     36  CT3       29.4820   -4.9310  -12.7790 C.3   335  RX6335      0.1506
@<TRIPOS>BOND
     1    11     9   ar
     2    11    12   ar
     3     9     6   ar
     4    12    10   ar
     5     6     1    1
     6     6     8   ar
     7    30    29    1
     8    30    31    1
     9     1    31    1
    10     1     7    1
    11    29    33    1
    12    10     8   ar
    13    10    14    1
    14    35     7    1
    15    35    36    1
    16    31    32    1
    17    33    28    1
    18     4     5    1
    19    19    13    2
    20    32    28    1
    21    13     5    1
    22    13     2   am
    23    36     2    1
    24    28    26   am
    25    26    27    2
    26    26    25   am
    27    25    15    1
    28     3    23    1
    29     3    24    1
    30    20    24    1
    31    20    21    1
    32    20    17    1
    33    22    23    1
    34    22    21    1
    35    15    17    1
    36    15    16    1
    37    16    18    1
    38    18    34    1
