@<TRIPOS>MOLECULE
3q5i_ANP_A_1.pdb
 31 33 0 0 0
SMALL
GASTEIGER

@<TRIPOS>ATOM
      1  PG        -6.8760  -16.4230  -35.9530 P.3   1634  ANP1634     0.4884
      2  O1G       -7.0940  -16.4990  -34.4510 O.3   1634  ANP1634    -0.1240
      3  O2G       -5.9960  -17.5820  -36.5170 O.2   1634  ANP1634    -0.2331
      4  O3G       -6.4280  -15.0060  -36.2120 O.3   1634  ANP1634    -0.1240
      5  PB        -8.7600  -17.4750  -37.9530 P.3   1634  ANP1634     0.4669
      6  O1B       -9.2900  -18.7660  -37.3600 O.3   1634  ANP1634    -0.1253
      7  O2B       -9.6970  -16.7380  -38.9170 O.2   1634  ANP1634    -0.2351
      8  N3B       -8.4280  -16.3860  -36.6790 N.3   1634  ANP1634    -0.0163
      9  PA        -6.9320  -16.9170  -40.0750 P.3   1634  ANP1634     0.2220
     10  O1A       -5.5480  -17.2540  -40.6290 O.3   1634  ANP1634    -0.4370
     11  O2A       -8.0580  -17.3070  -41.0700 O.2   1634  ANP1634    -0.5170
     12  O3A       -7.3460  -17.7610  -38.7560 O.3   1634  ANP1634    -0.2360
     13  O5'       -6.7500  -15.3140  -39.6790 O.3   1634  ANP1634    -0.3111
     14  C5'       -5.7460  -14.8960  -38.6600 C.3   1634  ANP1634     0.1813
     15  C4'       -4.5480  -13.8880  -38.8560 C.3   1634  ANP1634     0.1821
     16  O4'       -4.2740  -12.8710  -37.7830 O.3   1634  ANP1634    -0.3135
     17  C3'       -3.2190  -14.6980  -38.8870 C.3   1634  ANP1634     0.2184
     18  O3'       -2.1580  -14.0610  -39.6180 O.3   1634  ANP1634    -0.2174
     19  C2'       -2.8310  -14.6380  -37.4490 C.3   1634  ANP1634     0.2570
     20  O2'       -1.4540  -15.0230  -37.2560 O.3   1634  ANP1634    -0.2130
     21  C1'       -3.0330  -13.1610  -37.0990 C.3   1634  ANP1634     0.3186
     22  N9        -3.0390  -13.0890  -35.6120 N.pl3 1634  ANP1634    -0.1439
     23  C8        -4.0370  -13.6020  -34.8330 C.3   1634  ANP1634     0.3377
     24  N7        -3.8080  -13.4320  -33.5290 N.2   1634  ANP1634    -0.2095
     25  C5        -2.6420  -12.8100  -33.4460 C.2   1634  ANP1634     0.2526
     26  C6        -1.8530  -12.3760  -32.3330 C.2   1634  ANP1634     0.4393
     27  N6        -2.3400  -12.5920  -31.0990 N.pl3 1634  ANP1634     0.2180
     28  N1        -0.6850  -11.7830  -32.5780 N.2   1634  ANP1634     0.0021
     29  C2        -0.2390  -11.6030  -33.8310 C.3   1634  ANP1634     0.5254
     30  N3        -0.9160  -11.9620  -34.9120 N.2   1634  ANP1634    -0.0055
     31  C4        -2.1260  -12.5700  -34.7900 C.2   1634  ANP1634     0.3518
@<TRIPOS>BOND
     1    11     9    2
     2    10     9    1
     3     9    13    1
     4     9    12    1
     5    13    14    1
     6    18    17    1
     7     7     5    2
     8    17    15    1
     9    17    19    1
    10    15    14    1
    11    15    16    1
    12    12     5    1
    13     5     6    1
    14     5     8    1
    15    16    21    1
    16    19    20    1
    17    19    21    1
    18    21    22    1
    19     8     1    1
    20     3     1    2
    21     4     1    1
    22     1     2    1
    23    22    23    1
    24    22    31    1
    25    30    31    2
    26    30    29    1
    27    23    24    1
    28    31    25    1
    29    29    28    1
    30    24    25    2
    31    25    26    1
    32    28    26    2
    33    26    27    1
