@<TRIPOS>MOLECULE
3q5j_D1S_A_1.pdb
 45 46 0 0 0
SMALL
GASTEIGER

@<TRIPOS>ATOM
      1  CAA       -6.2000   20.1970    6.1850 C.3   214  D1S214      0.1742
      2  CAB       -8.3410   21.0540   15.2000 C.3   214  D1S214      0.1741
      3  CAC      -11.7830   19.7290    7.7670 C.3   214  D1S214      0.0236
      4  CAD       -7.0560   24.6270    9.4930 C.3   214  D1S214      0.0297
      5  CAE      -10.4530   21.0180   11.7340 C.3   214  D1S214      0.0004
      6  CAF       -5.1050   24.6760   12.4880 C.3   214  D1S214      0.0074
      7  CAG      -13.7110   29.0370   11.1610 C.3   214  D1S214      0.0897
      8  CAH      -13.9000   26.6470   11.5650 C.3   214  D1S214      0.0897
      9  NAI       -3.3050   24.1780    6.4790 N.am  214  D1S214     -0.0475
     10  OAJ       -3.2840   23.2550    8.5450 O.2   214  D1S214     -0.2227
     11  OAK      -12.5260   21.9110    5.9720 O.2   214  D1S214     -0.2139
     12  OAL       -9.8670   26.7120    9.7840 O.2   214  D1S214     -0.2895
     13  OAM      -12.6680   22.2850   10.1310 O.2   214  D1S214     -0.2844
     14  OAN       -6.8550   23.6730   14.4980 O.3   214  D1S214     -0.2202
     15  CAO       -8.9530   20.5740    8.5990 C.2   214  D1S214     -0.0269
     16  CAP       -9.8120   21.2990    7.7750 C.2   214  D1S214     -0.0134
     17  CAQ       -7.5760   20.8250    8.6130 C.3   214  D1S214      0.0593
     18  CAR       -5.8730   22.9020   10.9400 C.2   214  D1S214     -0.0288
     19  CAS      -10.9990   25.0760    8.7360 C.3   214  D1S214      0.1336
     20  CAT      -11.5140   27.7080   12.7380 C.3   214  D1S214      0.0406
     21  CAU      -11.1260   26.3030   13.2290 C.3   214  D1S214      0.1137
     22  CAV      -12.9060   28.1100   13.2460 C.3   214  D1S214      0.0740
     23  CAW      -11.6730   23.1160   12.5720 C.3   214  D1S214      0.0312
     24  CAX       -9.1790   22.8760   12.9100 C.3   214  D1S214      0.0325
     25  NAY      -10.2660   25.6720   12.2250 N.pl3 214  D1S214     -0.2349
     26  NAZ      -12.1890   23.3940    7.6360 N.2   214  D1S214     -0.3369
     27  OBA       -6.7170   21.5140    6.4140 O.3   214  D1S214     -0.3492
     28  OBB       -7.9730   20.7600   13.8460 O.3   214  D1S214     -0.3510
     29  OBC       -5.2530   23.4380    7.4830 O.3   214  D1S214     -0.4294
     30  CBD       -3.8980   23.6090    7.5360 C.2   214  D1S214      0.4413
     31  CBE      -11.1990   21.1340    7.7930 C.3   214  D1S214      0.1400
     32  CBF       -6.2440   23.3300    9.6780 C.2   214  D1S214     -0.0063
     33  CBG      -12.0300   22.1930    7.0630 C.1   214  D1S214      0.1830
     34  CBH      -11.6990   23.8720    8.7960 C.2   214  D1S214      0.1677
     35  CBI      -11.4730   23.8680   11.2300 C.2   214  D1S214      0.0367
     36  CBJ      -10.7800   25.0900   11.1340 C.2   214  D1S214      0.0994
     37  CBK      -10.5100   25.6670    9.8880 C.2   214  D1S214      0.1947
     38  CBL      -11.9910   23.3150   10.0490 C.2   214  D1S214      0.2195
     39  CBM      -10.5180   22.1110   12.8160 C.3   214  D1S214      0.0070
     40  CBN       -6.2820   23.7470   12.1500 C.3   214  D1S214      0.0544
     41  CBO       -7.0040   21.8250    7.8170 C.3   214  D1S214      0.1635
     42  CBP       -6.6510   22.8380   13.3350 C.3   214  D1S214      0.1828
     43  CBQ       -7.9080   21.9750   13.0300 C.3   214  D1S214      0.1458
     44  CBR       -5.8240   22.5200    8.4630 C.3   214  D1S214      0.2158
     45  NBS      -13.9140   27.9900   12.1770 N.3   214  D1S214     -0.2703
@<TRIPOS>BOND
     1    11    33    2
     2     1    27    1
     3    27    41    1
     4     9    30   am
     5    33    26    2
     6    33    31    1
     7    29    30    1
     8    29    44    1
     9    30    10    2
    10    26    34    2
    11     3    31    1
    12    16    31    1
    13    16    15    2
    14    41    44    1
    15    41    17    1
    16    44    32    1
    17    15    17    1
    18    19    34    1
    19    19    37    1
    20    34    38    1
    21     4    32    1
    22    32    18    2
    23    12    37    2
    24    37    36    1
    25    38    13    2
    26    38    35    1
    27    18    40    1
    28    36    35    2
    29    36    25    1
    30     7    45    1
    31    35    23    1
    32     8    45    1
    33     5    39    1
    34    40     6    1
    35    40    42    1
    36    45    22    1
    37    25    21    1
    38    23    39    1
    39    20    21    1
    40    20    22    1
    41    39    24    1
    42    24    43    1
    43    43    42    1
    44    43    28    1
    45    42    14    1
    46    28     2    1
