@<TRIPOS>MOLECULE
3q5k_D1U_A_1.pdb
 30 32 0 0 0
SMALL
GASTEIGER

@<TRIPOS>ATOM
      1  CAA       -9.9040   -2.9970    9.9310 C.3   214  D1U214      0.0692
      2  CAB      -15.6290   -5.0540   18.8330 C.3   214  D1U214      0.0008
      3  CAC      -14.2890   -3.0760   18.0630 C.3   214  D1U214      0.0008
      4  NAD      -12.5070   -8.3580   11.5670 N.am  214  D1U214     -0.0837
      5  OAE      -10.7550   -7.0830   12.1540 O.2   214  D1U214     -0.2666
      6  OAF      -17.2490   -0.7740   17.2980 O.2   214  D1U214     -0.2913
      7  FAG      -16.2270    0.8950   15.1510 F     214  D1U214     -0.1643
      8  FAH      -16.0730    0.3580   13.1330 F     214  D1U214     -0.1643
      9  FAI      -17.9820    0.1030   14.1360 F     214  D1U214     -0.1643
     10  CAJ      -15.0920   -5.4910   13.4930 C.ar  214  D1U214      0.0194
     11  CAK      -14.2280   -6.4760   13.0080 C.ar  214  D1U214      0.0075
     12  CAL      -13.3140   -3.8760   13.2610 C.ar  214  D1U214      0.0354
     13  CAM      -10.5620   -3.3030   12.8800 C.3   214  D1U214      0.1238
     14  CAN       -9.0600   -3.3440   12.5830 C.3   214  D1U214      0.0809
     15  CAO      -16.8160   -3.0060   18.0380 C.3   214  D1U214      0.0696
     16  CAP      -15.5960   -4.4440   16.4170 C.3   214  D1U214      0.0464
     17  NAQ      -15.5770   -2.1160   13.6440 N.ar  214  D1U214     -0.1613
     18  NAR      -11.2030   -4.5530   12.4180 N.pl3 214  D1U214     -0.2365
     19  SAS       -8.6800   -3.8880   10.8760 S.3   214  D1U214     -0.1375
     20  CAT      -11.9650   -7.2520   12.0820 C.2   214  D1U214      0.2854
     21  CAU      -16.8460   -1.8890   16.9820 C.2   214  D1U214      0.1757
     22  CAV      -14.6350   -4.1760   13.5730 C.ar  214  D1U214      0.0837
     23  CAW      -12.4610   -4.8520   12.7530 C.ar  214  D1U214      0.0713
     24  CAX      -12.9240   -6.1590   12.6260 C.ar  214  D1U214      0.0716
     25  CAY      -15.7430   -3.2880   15.4220 C.ar  214  D1U214      0.0646
     26  CAZ      -16.2080   -1.3700   14.5400 C.ar  214  D1U214      0.1763
     27  CBA      -16.3590   -2.0910   15.7040 C.ar  214  D1U214      0.0716
     28  NBB      -15.3550   -3.2220   14.1470 N.ar  214  D1U214     -0.2336
     29  CBC      -15.5780   -3.8950   17.8450 C.3   214  D1U214      0.0128
     30  CBD      -16.6630    0.0410   14.2510 C.3   214  D1U214      0.4366
@<TRIPOS>BOND
     1     1    19    1
     2    19    14    1
     3     4    20   am
     4    20     5    2
     5    20    24    1
     6    18    23    1
     7    18    13    1
     8    14    13    1
     9    24    23   ar
    10    24    11   ar
    11    23    12   ar
    12    11    10   ar
    13     8    30    1
    14    12    22   ar
    15    10    22   ar
    16    22    28    1
    17    17    28   ar
    18    17    26   ar
    19     9    30    1
    20    28    25   ar
    21    30    26    1
    22    30     7    1
    23    26    27   ar
    24    25    27   ar
    25    25    16    1
    26    27    21    1
    27    16    29    1
    28    21     6    2
    29    21    15    1
    30    29    15    1
    31    29     3    1
    32    29     2    1
