@<TRIPOS>MOLECULE
3q5l_KX2_A_1.pdb
 46 48 0 0 0
SMALL
GASTEIGER

@<TRIPOS>ATOM
      1  C1       -49.2740  -54.5590  -20.6910 C.1   801  KX2801      0.2003
      2  N1       -50.0460  -53.5650  -21.1510 N.2   801  KX2801     -0.3338
      3  O1       -48.7150  -54.5000  -19.6220 O.2   801  KX2801     -0.2096
      4  C2       -49.1280  -55.7960  -21.4380 C.2   801  KX2801      0.0728
      5  N2       -56.5510  -60.0580  -20.5330 N.am  801  KX2801     -0.0475
      6  O2       -52.6620  -58.6120  -20.3550 O.3   801  KX2801     -0.3451
      7  C3       -50.2270  -56.5750  -21.5620 C.2   801  KX2801      0.0081
      8  O3       -54.8900  -58.6990  -21.4810 O.3   801  KX2801     -0.4290
      9  C4       -50.2410  -57.8550  -22.2650 C.2   801  KX2801     -0.0016
     10  O4       -56.1050  -60.1920  -22.7290 O.2   801  KX2801     -0.2227
     11  C5       -51.3470  -58.6110  -22.3580 C.2   801  KX2801      0.0069
     12  O5       -54.0480  -57.0500  -28.3540 O.3   801  KX2801     -0.2202
     13  C6       -52.6430  -58.1800  -21.7350 C.3   801  KX2801      0.1811
     14  O6       -51.2880  -58.1170  -27.7340 O.3   801  KX2801     -0.3510
     15  C7       -53.8440  -58.7590  -22.4400 C.3   801  KX2801      0.2197
     16  C8       -54.2600  -57.9250  -23.6100 C.2   801  KX2801     -0.0059
     17  O8       -54.1520  -52.7750  -23.2030 O.2   801  KX2801     -0.2895
     18  C9       -54.1600  -58.4050  -24.8610 C.2   801  KX2801     -0.0288
     19  O9       -48.9350  -53.9970  -23.8170 O.2   801  KX2801     -0.2844
     20  C10      -54.5770  -57.6020  -26.0780 C.3   801  KX2801      0.0544
     21  C11      -53.5720  -57.7710  -27.2230 C.3   801  KX2801      0.1828
     22  C12      -52.1370  -57.3690  -26.8620 C.3   801  KX2801      0.1458
     23  C13      -51.9270  -55.8550  -26.9310 C.3   801  KX2801      0.0325
     24  C14      -50.4830  -55.3520  -26.6990 C.3   801  KX2801      0.0070
     25  C15      -50.4150  -53.8490  -26.3260 C.3   801  KX2801      0.0312
     26  C16      -50.9910  -53.6040  -24.9340 C.2   801  KX2801      0.0367
     27  C17      -52.4350  -53.2980  -24.7530 C.2   801  KX2801      0.0995
     28  C18      -52.9420  -53.0650  -23.3840 C.2   801  KX2801      0.1947
     29  C19      -52.1040  -53.1810  -22.2760 C.3   801  KX2801      0.1336
     30  C20      -50.7620  -53.4990  -22.3630 C.2   801  KX2801      0.1680
     31  C21      -50.1440  -53.7120  -23.7080 C.2   801  KX2801      0.2195
     32  C22      -47.7860  -56.1580  -21.9840 C.3   801  KX2801      0.0447
     33  C23      -52.4590  -60.0240  -20.1110 C.3   801  KX2801      0.1746
     34  C24      -55.8940  -59.7060  -21.6280 C.2   801  KX2801      0.4413
     35  C25      -54.8130  -56.5620  -23.3110 C.3   801  KX2801      0.0297
     36  C26      -55.9330  -58.0890  -26.5680 C.3   801  KX2801      0.0074
     37  C27      -51.2650  -57.5860  -29.0670 C.3   801  KX2801      0.1741
     38  C28      -49.7610  -56.1880  -25.6510 C.3   801  KX2801      0.0004
     39  N29      -53.1850  -53.0300  -25.8310 N.pl3 801  KX2801     -0.2335
     40  C30      -54.0290  -51.8360  -25.8010 C.3   801  KX2801      0.1296
     41  C31      -53.1800  -50.6360  -25.3860 C.3   801  KX2801      0.0957
     42  N32      -53.6700  -49.3670  -25.9070 N.3   801  KX2801     -0.2712
     43  C33      -53.9010  -49.1300  -27.3310 C.3   801  KX2801      0.0722
     44  C34      -53.7840  -47.6070  -27.4140 C.3   801  KX2801      0.0188
     45  C35      -53.8080  -47.0510  -25.9900 C.3   801  KX2801      0.0188
     46  C36      -53.8660  -48.2210  -25.0090 C.3   801  KX2801      0.0722
@<TRIPOS>BOND
     1    37    14    1
     2    12    21    1
     3    14    22    1
     4    44    43    1
     5    44    45    1
     6    43    42    1
     7    21    22    1
     8    21    20    1
     9    23    22    1
    10    23    24    1
    11    24    25    1
    12    24    38    1
    13    36    20    1
    14    25    26    1
    15    20    18    1
    16    45    46    1
    17    42    41    1
    18    42    46    1
    19    39    40    1
    20    39    27    1
    21    40    41    1
    22    26    27    2
    23    26    31    1
    24    18    16    2
    25    27    28    1
    26    19    31    2
    27    31    30    1
    28    16    35    1
    29    16    15    1
    30    28    17    2
    31    28    29    1
    32    10    34    2
    33    15    13    1
    34    15     8    1
    35    30    29    1
    36    30     2    2
    37    11     9    2
    38    11    13    1
    39     9     7    1
    40    32     4    1
    41    13     6    1
    42    34     8    1
    43    34     5   am
    44     7     4    2
    45     4     1    1
    46     2     1    2
    47     1     3    2
    48     6    33    1
