@<TRIPOS>MOLECULE
3q5p_TAC_A_1.pdb
 32 35 0 0 0
SMALL
GASTEIGER

@<TRIPOS>ATOM
      1  C1        58.0330   22.0240   64.7160 C.3   7101  TAC7101     0.1933
      2  O1        56.9000   21.1790   64.9540 O.3   7101  TAC7101    -0.2198
      3  C2        58.2940   22.1220   63.2430 C.3   7101  TAC7101     0.1443
      4  C21       57.8460   21.0910   62.3420 C.2   7101  TAC7101     0.2654
      5  O21       57.6710   19.9560   62.7560 O.2   7101  TAC7101    -0.2715
      6  N21       57.6580   21.4900   61.0920 N.am  7101  TAC7101    -0.0877
      7  C3        58.9390   23.1850   62.7910 C.3   7101  TAC7101     0.1777
      8  O3        58.6790   23.7030   61.5890 O.3   7101  TAC7101    -0.2211
      9  C4        59.9150   23.7580   63.7860 C.3   7101  TAC7101     0.0912
     10  N4        60.8890   24.7130   63.2310 N.3   7101  TAC7101    -0.2692
     11  C42       62.2370   24.7910   63.7670 C.3   7101  TAC7101     0.0897
     12  C43       60.5400   25.5780   62.1180 C.3   7101  TAC7101     0.0897
     13  C41       59.0430   24.3320   64.9300 C.3   7101  TAC7101     0.0503
     14  C5        59.8290   24.5250   66.2200 C.3   7101  TAC7101     0.0070
     15  C51       58.9520   25.1410   67.3090 C.3   7101  TAC7101     0.0374
     16  C6        59.7580   25.1670   68.5900 C.3   7101  TAC7101     0.1453
     17  C62       60.9760   26.0480   68.3790 C.3   7101  TAC7101     0.0375
     18  O6        60.2010   23.8220   68.7900 O.3   7101  TAC7101    -0.2212
     19  C61       58.9080   25.6210   69.7700 C.ar  7101  TAC7101     0.0065
     20  C7        59.4520   26.2990   70.8630 C.ar  7101  TAC7101    -0.0020
     21  C8        58.6800   26.7120   71.9510 C.ar  7101  TAC7101     0.0030
     22  C9        57.3120   26.4780   72.0100 C.ar  7101  TAC7101     0.0418
     23  C10       56.6550   25.8130   70.9770 C.ar  7101  TAC7101     0.1938
     24  O10       55.3070   25.6190   71.1050 O.3   7101  TAC7101    -0.2868
     25  C1A       57.4470   25.3550   69.7780 C.ar  7101  TAC7101     0.0450
     26  C11       56.8880   24.6060   68.5860 C.3   7101  TAC7101     0.1796
     27  O11       55.6220   24.1830   68.5890 O.3   7101  TAC7101    -0.2181
     28  C1B       57.6890   24.3520   67.5280 C.3   7101  TAC7101     0.0705
     29  C12       57.3740   23.3940   66.6530 C.3   7101  TAC7101     0.1850
     30  O12       56.6770   22.3410   67.0790 O.3   7101  TAC7101    -0.2203
     31  C1C       57.7890   23.4570   65.1940 C.3   7101  TAC7101     0.1840
     32  O1C       56.6810   23.9960   64.4450 O.3   7101  TAC7101    -0.2204
@<TRIPOS>BOND
     1     6     4   am
     2     8     7    1
     3    12    10    1
     4     4     5    2
     5     4     3    1
     6     7     3    1
     7     7     9    1
     8    10    11    1
     9    10     9    1
    10     3     1    1
    11     9    13    1
    12    32    31    1
    13     1     2    1
    14     1    31    1
    15    13    31    1
    16    13    14    1
    17    31    29    1
    18    14    15    1
    19    29    30    1
    20    29    28    1
    21    15    28    1
    22    15    16    1
    23    28    26    1
    24    17    16    1
    25    26    27    1
    26    26    25    1
    27    16    18    1
    28    16    19    1
    29    19    25   ar
    30    19    20   ar
    31    25    23   ar
    32    20    21   ar
    33    23    24    1
    34    23    22   ar
    35    21    22   ar
