@<TRIPOS>MOLECULE
3q5r_KAN_A_1.pdb
 33 35 0 0 0
SMALL
GASTEIGER

@<TRIPOS>ATOM
      1  C1        57.4010   22.7160   63.6890 C.3   2002  KAN2002     0.2695
      2  C2        57.9770   21.9140   62.5000 C.3   2002  KAN2002     0.2406
      3  C3        59.0340   22.6480   61.6400 C.3   2002  KAN2002     0.2198
      4  C4        59.7600   23.8700   62.2070 C.3   2002  KAN2002     0.2133
      5  C5        59.4200   24.0590   63.6680 C.3   2002  KAN2002     0.1696
      6  C6        60.2180   25.2130   64.3270 C.3   2002  KAN2002     0.1415
      7  C7        56.6400   22.4780   67.3250 C.3   2002  KAN2002     0.1231
      8  C8        57.7990   23.4650   67.5870 C.3   2002  KAN2002     0.1680
      9  C9        58.8120   23.3240   66.4400 C.3   2002  KAN2002     0.2088
     10  C10       58.6310   21.9630   65.7330 C.3   2002  KAN2002     0.1680
     11  C11       58.5120   20.8940   66.8050 C.3   2002  KAN2002     0.1231
     12  C12       57.1390   21.0310   67.4590 C.3   2002  KAN2002     0.0432
     13  C13       57.5200   25.5310   68.9530 C.3   2002  KAN2002     0.2684
     14  C14       58.9530   26.0030   69.2960 C.3   2002  KAN2002     0.2279
     15  C15       59.1050   26.1550   70.8090 C.3   2002  KAN2002     0.1599
     16  C16       57.8400   26.6960   71.4570 C.3   2002  KAN2002     0.2017
     17  C17       56.6560   25.7460   71.2330 C.3   2002  KAN2002     0.1824
     18  C18       55.3210   26.5060   71.0820 C.3   2002  KAN2002     0.2142
     19  N1        61.6480   24.9370   64.4340 N.3   2002  KAN2002    -0.1286
     20  N2        59.5700   21.1160   67.7880 N.3   2002  KAN2002    -0.1302
     21  N3        55.4620   22.7060   68.1530 N.3   2002  KAN2002    -0.1302
     22  N4        60.1790   27.0780   71.0730 N.3   2002  KAN2002    -0.1272
     23  O5        57.9670   24.0510   63.8330 O.3   2002  KAN2002    -0.3268
     24  O6        58.3800   20.5930   62.9280 O.3   2002  KAN2002    -0.2149
     25  O7        58.2890   23.2400   60.5930 O.3   2002  KAN2002    -0.2174
     26  O8        61.1850   23.7610   62.1320 O.3   2002  KAN2002    -0.2176
     27  O9        57.4510   21.8970   64.8830 O.3   2002  KAN2002    -0.3269
     28  O10       60.1950   23.5640   66.8170 O.3   2002  KAN2002    -0.2178
     29  O11       57.3460   24.8280   67.6870 O.3   2002  KAN2002    -0.3269
     30  O12       56.8910   24.8910   70.0890 O.3   2002  KAN2002    -0.3257
     31  O13       60.0060   25.1620   68.7690 O.3   2002  KAN2002    -0.2161
     32  O14       58.0970   26.8800   72.8510 O.3   2002  KAN2002    -0.2188
     33  O15       54.9040   26.5210   69.6870 O.3   2002  KAN2002    -0.2176
@<TRIPOS>BOND
     1    25     3    1
     2     3     4    1
     3     3     2    1
     4    26     4    1
     5     4     5    1
     6     2    24    1
     7     2     1    1
     8     5    23    1
     9     5     6    1
    10     1    23    1
    11     1    27    1
    12     6    19    1
    13    27    10    1
    14    10     9    1
    15    10    11    1
    16     9    28    1
    17     9     8    1
    18    11    12    1
    19    11    20    1
    20     7    12    1
    21     7     8    1
    22     7    21    1
    23     8    29    1
    24    29    13    1
    25    31    14    1
    26    13    14    1
    27    13    30    1
    28    14    15    1
    29    33    18    1
    30    30    17    1
    31    15    22    1
    32    15    16    1
    33    18    17    1
    34    17    16    1
    35    16    32    1
