@<TRIPOS>MOLECULE
3q5s_ACH_A_1.pdb
 10 9 0 0 0
SMALL
GASTEIGER

@<TRIPOS>ATOM
      1  N1        60.8280   23.9890   63.1890 N.4   1289  ACH1289     0.3882
      2  C2        59.7090   24.2870   62.2420 C.3   1289  ACH1289    -0.0251
      3  C3        58.9620   23.0870   61.5990 C.3   1289  ACH1289     0.1864
      4  O4        57.8100   22.7620   62.3960 O.3   1289  ACH1289    -0.4508
      5  C5        57.6530   21.4550   63.0780 C.2   1289  ACH1289     0.3175
      6  O7        57.1340   21.3940   64.1970 O.2   1289  ACH1289    -0.2501
      7  C6        58.1360   20.2130   62.3780 C.3   1289  ACH1289     0.1212
      8  C8        61.0210   25.0980   64.1260 C.3   1289  ACH1289    -0.0958
      9  C9        62.1170   23.8080   62.4900 C.3   1289  ACH1289    -0.0958
     10  C10       60.5010   22.8310   64.0210 C.3   1289  ACH1289    -0.0958
@<TRIPOS>BOND
     1     3     2    1
     2     3     4    1
     3     2     1    1
     4     7     5    1
     5     4     5    1
     6     9     1    1
     7     5     6    2
     8     1    10    1
     9     1     8    1
