@<TRIPOS>MOLECULE
3q60_ATP_A_1.pdb
 31 33 0 0 0
SMALL
GASTEIGER

@<TRIPOS>ATOM
      1  PG        -9.1310    9.6650  -21.4100 P.3   600  ATP600      0.5373
      2  O1G       -7.8470    8.8460  -21.4680 O.3   600  ATP600     -0.1143
      3  O2G      -10.0210    9.5350  -22.5880 O.2   600  ATP600     -0.2221
      4  O3G      -10.1090    9.4290  -20.2190 O.3   600  ATP600     -0.1143
      5  PB        -8.5140   11.8800  -19.9900 P.3   600  ATP600      0.2277
      6  O1B       -7.5500   13.0080  -20.1740 O.2   600  ATP600     -0.5168
      7  O2B       -8.1490   11.0130  -18.8340 O.3   600  ATP600     -0.4368
      8  O3B       -8.6620   11.1570  -21.3800 O.3   600  ATP600     -0.2258
      9  PA       -11.2710   12.3140  -18.9610 P.3   600  ATP600      0.2189
     10  O1A      -10.9610   11.1250  -18.0710 O.3   600  ATP600     -0.4371
     11  O2A      -12.3920   12.2390  -19.9180 O.2   600  ATP600     -0.5170
     12  O3A       -9.9290   12.6610  -19.8340 O.3   600  ATP600     -0.2700
     13  O5'      -11.4300   13.7060  -18.1700 O.3   600  ATP600     -0.3112
     14  C5'      -10.5410   14.0130  -17.0590 C.3   600  ATP600      0.1813
     15  C4'      -11.2910   14.0300  -15.7640 C.3   600  ATP600      0.1821
     16  O4'      -12.2840   15.0450  -15.9240 O.3   600  ATP600     -0.3135
     17  C3'      -12.0230   12.7430  -15.3820 C.3   600  ATP600      0.2184
     18  O3'      -12.0060   12.6470  -13.9140 O.3   600  ATP600     -0.2174
     19  C2'      -13.4530   13.0300  -15.8840 C.3   600  ATP600      0.2570
     20  O2'      -14.4520   12.2350  -15.2470 O.3   600  ATP600     -0.2130
     21  C1'      -13.5780   14.5250  -15.6480 C.3   600  ATP600      0.3186
     22  N9       -14.5700   15.1200  -16.5570 N.pl3 600  ATP600     -0.1439
     23  C8       -14.6550   14.9560  -17.9130 C.3   600  ATP600      0.3377
     24  N7       -15.7510   15.5990  -18.3820 N.2   600  ATP600     -0.2095
     25  C5       -16.3690   16.1680  -17.3020 C.2   600  ATP600      0.2526
     26  C6       -17.5680   16.9680  -17.1160 C.2   600  ATP600      0.4393
     27  N6       -18.2880   17.2880  -18.1710 N.pl3 600  ATP600      0.2180
     28  N1       -17.8980   17.3220  -15.8540 N.2   600  ATP600      0.0021
     29  C2       -17.1610   16.9570  -14.7820 C.3   600  ATP600      0.5254
     30  N3       -16.0130   16.2440  -14.8550 N.2   600  ATP600     -0.0055
     31  C4       -15.6380   15.8210  -16.1190 C.2   600  ATP600      0.3518
@<TRIPOS>BOND
     1     3     1    2
     2     2     1    1
     3     1     8    1
     4     1     4    1
     5     8     5    1
     6     6     5    2
     7     5    12    1
     8     5     7    1
     9    11     9    2
    10    12     9    1
    11     9    13    1
    12     9    10    1
    13    24    23    1
    14    24    25    2
    15    27    26    1
    16    13    14    1
    17    23    22    1
    18    25    26    1
    19    25    31    1
    20    26    28    2
    21    14    15    1
    22    22    31    1
    23    22    21    1
    24    31    30    2
    25    16    15    1
    26    16    21    1
    27    19    21    1
    28    19    17    1
    29    19    20    1
    30    28    29    1
    31    15    17    1
    32    17    18    1
    33    30    29    1
