@<TRIPOS>MOLECULE
3q65_NAP_A_1.pdb
 48 52 0 0 0
SMALL
GASTEIGER

@<TRIPOS>ATOM
      1  PA        14.7020   -4.6560    8.8800 P.3   318  NAP318      0.2189
      2  O1A       15.3640   -5.9550    9.1560 O.2   318  NAP318     -0.5170
      3  O2A       15.3420   -3.4530    9.3540 O.3   318  NAP318     -0.4371
      4  O5B       13.1770   -4.7860    9.4130 O.3   318  NAP318     -0.3112
      5  C5B       12.1480   -3.8010    9.3340 C.3   318  NAP318      0.1813
      6  C4B       10.8620   -4.3490    9.9150 C.3   318  NAP318      0.1820
      7  O4B       11.1510   -4.6770   11.3030 O.3   318  NAP318     -0.3136
      8  C3B        9.8250   -3.2080    9.9370 C.3   318  NAP318      0.2157
      9  O3B        8.7010   -3.7730    9.5360 O.3   318  NAP318     -0.2175
     10  C2B        9.7490   -2.7910   11.4090 C.3   318  NAP318      0.2314
     11  O2B        8.3870   -2.4390   11.7380 O.3   318  NAP318     -0.2630
     12  C1B       10.1190   -4.0570   12.1190 C.3   318  NAP318      0.3158
     13  N9A       10.7400   -3.7700   13.4260 N.pl3 318  NAP318     -0.1439
     14  C8A       11.7170   -2.8930   13.7140 C.3   318  NAP318      0.3377
     15  N7A       12.0320   -2.9450   15.0360 N.2   318  NAP318     -0.2095
     16  C5A       11.2290   -3.8680   15.5670 C.2   318  NAP318      0.2526
     17  C6A       11.0560   -4.3470   16.8610 C.2   318  NAP318      0.4393
     18  N6A       11.8360   -3.8540   17.8320 N.pl3 318  NAP318      0.2180
     19  N1A       10.1290   -5.3040   17.0850 N.2   318  NAP318      0.0021
     20  C2A        9.3650   -5.7690   16.1030 C.3   318  NAP318      0.5254
     21  N3A        9.5040   -5.3310   14.8500 N.2   318  NAP318     -0.0055
     22  C4A       10.4120   -4.3810   14.5550 C.2   318  NAP318      0.3518
     23  O3        14.3460   -4.5540    7.3290 O.3   318  NAP318     -0.2703
     24  PN        14.9830   -3.6550    6.2710 P.3   318  NAP318      0.2189
     25  O1N       14.2400   -2.3870    6.3060 O.3   318  NAP318     -0.4371
     26  O2N       14.9220   -4.5190    5.0700 O.2   318  NAP318     -0.5170
     27  O5D       16.5430   -3.3140    6.5230 O.3   318  NAP318     -0.3112
     28  C5D       16.9070   -2.1960    7.3320 C.3   318  NAP318      0.1813
     29  C4D       17.5370   -1.0540    6.5430 C.3   318  NAP318      0.1799
     30  O4D       18.6750   -1.5890    5.8800 O.3   318  NAP318     -0.3327
     31  C3D       16.6010   -0.6830    5.4120 C.3   318  NAP318      0.2158
     32  O3D       15.5480    0.1440    5.8690 O.3   318  NAP318     -0.2175
     33  C2D       17.5660    0.0650    4.5270 C.3   318  NAP318      0.2309
     34  O2D       17.9380    1.3230    5.1360 O.3   318  NAP318     -0.2158
     35  C1D       18.7420   -0.9250    4.5690 C.3   318  NAP318      0.2263
     36  N1N       18.6390   -1.8360    3.4180 N.pl3 318  NAP318     -0.2787
     37  C2N       19.5320   -1.6900    2.3570 C.3   318  NAP318      0.1244
     38  C3N       19.4950   -2.4930    1.2350 C.2   318  NAP318      0.0544
     39  C7N       20.5160   -2.3420    0.1120 C.2   318  NAP318      0.2818
     40  O7N       20.3180   -2.8110   -1.0210 O.2   318  NAP318     -0.2670
     41  N7N       21.6590   -1.7460    0.4700 N.am  318  NAP318     -0.0839
     42  C4N       18.5240   -3.4700    1.1650 C.2   318  NAP318      0.0033
     43  C5N       17.6260   -3.6170    2.1930 C.2   318  NAP318      0.0157
     44  C6N       17.6720   -2.8240    3.3420 C.2   318  NAP318      0.0633
     45  P2B        7.9930   -0.8650   11.6930 P.3   318  NAP318      0.5328
     46  O1X        8.7290   -0.1190   10.5730 O.2   318  NAP318     -0.2224
     47  O2X        6.4210   -0.8860   11.4460 O.3   318  NAP318     -0.1145
     48  O3X        8.1160   -0.3450   13.1750 O.3   318  NAP318     -0.1145
@<TRIPOS>BOND
     1    40    39    2
     2    39    41   am
     3    39    38    1
     4    42    38    2
     5    42    43    1
     6    38    37    1
     7    43    44    2
     8    37    36    1
     9    44    36    1
    10    36    35    1
    11    33    35    1
    12    33    34    1
    13    33    31    1
    14    35    30    1
    15    26    24    2
    16    31    32    1
    17    31    29    1
    18    30    29    1
    19    24    25    1
    20    24    27    1
    21    24    23    1
    22    27    28    1
    23    29    28    1
    24    23     1    1
    25     1     2    2
    26     1     3    1
    27     1     4    1
    28     5     4    1
    29     5     6    1
    30     9     8    1
    31     6     8    1
    32     6     7    1
    33     8    10    1
    34    46    45    2
    35     7    12    1
    36    10    11    1
    37    10    12    1
    38    47    45    1
    39    45    11    1
    40    45    48    1
    41    12    13    1
    42    13    14    1
    43    13    22    1
    44    14    15    1
    45    22    21    2
    46    22    16    1
    47    21    20    1
    48    15    16    2
    49    16    17    1
    50    20    19    1
    51    17    19    2
    52    17    18    1
