@<TRIPOS>MOLECULE
3q67_NAP_A_1.pdb
 48 52 0 0 0
SMALL
GASTEIGER

@<TRIPOS>ATOM
      1  PA        14.4750   -4.5610    9.3180 P.3   318  NAP318      0.2189
      2  O1A       15.0850   -5.9120    9.3930 O.2   318  NAP318     -0.5170
      3  O2A       15.1560   -3.4330    9.9280 O.3   318  NAP318     -0.4371
      4  O5B       12.9770   -4.7430    9.8400 O.3   318  NAP318     -0.3112
      5  C5B       12.0480   -3.6790    9.7710 C.3   318  NAP318      0.1813
      6  C4B       10.7030   -4.2140   10.2570 C.3   318  NAP318      0.1820
      7  O4B       10.8170   -4.6060   11.6140 O.3   318  NAP318     -0.3136
      8  C3B        9.5390   -3.2340   10.2110 C.3   318  NAP318      0.2157
      9  O3B        8.3690   -3.9600    9.9110 O.3   318  NAP318     -0.2175
     10  C2B        9.4960   -2.6400   11.6140 C.3   318  NAP318      0.2314
     11  O2B        8.2040   -2.1930   11.9830 O.3   318  NAP318     -0.2630
     12  C1B        9.9090   -3.8790   12.4250 C.3   318  NAP318      0.3158
     13  N9A       10.5430   -3.5750   13.7260 N.pl3 318  NAP318     -0.1439
     14  C8A       11.5660   -2.6980   13.9510 C.3   318  NAP318      0.3377
     15  N7A       11.8960   -2.7010   15.2680 N.2   318  NAP318     -0.2095
     16  C5A       11.1040   -3.6290   15.8620 C.2   318  NAP318      0.2526
     17  C6A       11.0220   -4.0310   17.2040 C.2   318  NAP318      0.4393
     18  N6A       11.8910   -3.5660   18.1030 N.pl3 318  NAP318      0.2180
     19  N1A       10.0980   -4.9980   17.5170 N.2   318  NAP318      0.0021
     20  C2A        9.2780   -5.5460   16.5540 C.3   318  NAP318      0.5254
     21  N3A        9.3440   -5.1450   15.2390 N.2   318  NAP318     -0.0055
     22  C4A       10.2500   -4.1850   14.9170 C.2   318  NAP318      0.3518
     23  O3        14.1480   -4.3190    7.7560 O.3   318  NAP318     -0.2703
     24  PN        14.7390   -3.4480    6.5330 P.3   318  NAP318      0.2189
     25  O1N       14.0210   -2.1540    6.4500 O.3   318  NAP318     -0.4371
     26  O2N       14.6570   -4.3580    5.3520 O.2   318  NAP318     -0.5170
     27  O5D       16.2830   -3.2260    6.8020 O.3   318  NAP318     -0.3112
     28  C5D       16.7680   -2.1550    7.5660 C.3   318  NAP318      0.1813
     29  C4D       17.3150   -1.0600    6.6840 C.3   318  NAP318      0.1799
     30  O4D       18.4500   -1.4990    5.9300 O.3   318  NAP318     -0.3327
     31  C3D       16.3490   -0.4820    5.6490 C.3   318  NAP318      0.2158
     32  O3D       15.2900    0.2960    6.1580 O.3   318  NAP318     -0.2175
     33  C2D       17.3450    0.2490    4.7720 C.3   318  NAP318      0.2309
     34  O2D       17.6820    1.5070    5.3630 O.3   318  NAP318     -0.2158
     35  C1D       18.5190   -0.7480    4.7270 C.3   318  NAP318      0.2263
     36  N1N       18.4440   -1.6920    3.5770 N.pl3 318  NAP318     -0.2787
     37  C2N       19.3400   -1.5140    2.5520 C.3   318  NAP318      0.1244
     38  C3N       19.2770   -2.3790    1.4770 C.2   318  NAP318      0.0544
     39  C7N       20.3270   -2.2860    0.4280 C.2   318  NAP318      0.2818
     40  O7N       20.0630   -2.9180   -0.7460 O.2   318  NAP318     -0.2670
     41  N7N       21.4540   -1.6310    0.6180 N.am  318  NAP318     -0.0839
     42  C4N       18.3270   -3.4050    1.3980 C.2   318  NAP318      0.0033
     43  C5N       17.4370   -3.5820    2.4510 C.2   318  NAP318      0.0157
     44  C6N       17.5170   -2.7140    3.5370 C.2   318  NAP318      0.0633
     45  P2B        7.7940   -0.6420   12.0850 P.3   318  NAP318      0.5328
     46  O1X        8.6390    0.1690   11.1610 O.2   318  NAP318     -0.2224
     47  O2X        6.3080   -0.6260   11.7050 O.3   318  NAP318     -0.1145
     48  O3X        7.9640   -0.2310   13.5290 O.3   318  NAP318     -0.1145
@<TRIPOS>BOND
     1    40    39    2
     2    39    41   am
     3    39    38    1
     4    42    38    2
     5    42    43    1
     6    38    37    1
     7    43    44    2
     8    37    36    1
     9    44    36    1
    10    36    35    1
    11    35    33    1
    12    35    30    1
    13    33    34    1
    14    33    31    1
    15    26    24    2
    16    31    32    1
    17    31    29    1
    18    30    29    1
    19    25    24    1
    20    24    27    1
    21    24    23    1
    22    29    28    1
    23    27    28    1
    24    23     1    1
    25     1     2    2
    26     1     4    1
    27     1     3    1
    28     5     4    1
    29     5     6    1
    30     9     8    1
    31     8     6    1
    32     8    10    1
    33     6     7    1
    34    46    45    2
    35     7    12    1
    36    10    11    1
    37    10    12    1
    38    47    45    1
    39    11    45    1
    40    45    48    1
    41    12    13    1
    42    13    14    1
    43    13    22    1
    44    14    15    1
    45    22    21    2
    46    22    16    1
    47    21    20    1
    48    15    16    2
    49    16    17    1
    50    20    19    1
    51    17    19    2
    52    17    18    1
