@<TRIPOS>MOLECULE
3q6i_NAD_A_1.pdb
 44 48 0 0 0
SMALL
GASTEIGER

@<TRIPOS>ATOM
      1  PA         9.8550  -15.7870    0.5750 P.3     1  NAD1        0.2189
      2  O1A       11.1670  -15.8960   -0.1010 O.2     1  NAD1       -0.5170
      3  O2A        9.8460  -16.3900    1.9560 O.3     1  NAD1       -0.4371
      4  O5B        8.7690  -16.4610   -0.4430 O.3     1  NAD1       -0.3112
      5  C5B        7.4100  -16.5530   -0.0730 C.3     1  NAD1        0.1813
      6  C4B        6.7510  -17.8990   -0.3680 C.3     1  NAD1        0.1821
      7  O4B        6.5400  -18.0610   -1.7690 O.3     1  NAD1       -0.3135
      8  C3B        7.5740  -19.0820    0.1240 C.3     1  NAD1        0.2184
      9  O3B        6.7680  -19.8190    1.0090 O.3     1  NAD1       -0.2174
     10  C2B        7.9070  -19.8880   -1.1190 C.3     1  NAD1        0.2570
     11  O2B        7.7400  -21.2860   -0.9450 O.3     1  NAD1       -0.2130
     12  C1B        6.8860  -19.3760   -2.1290 C.3     1  NAD1        0.3186
     13  N9A        7.3790  -19.5780   -3.4960 N.pl3   1  NAD1       -0.1439
     14  C8A        8.6500  -19.4950   -3.9990 C.3     1  NAD1        0.3377
     15  N7A        8.6080  -19.8340   -5.3210 N.2     1  NAD1       -0.2095
     16  C5A        7.3370  -20.1310   -5.6310 C.2     1  NAD1        0.2526
     17  C6A        6.7180  -20.5310   -6.7970 C.2     1  NAD1        0.4393
     18  N6A        7.4340  -21.0020   -7.8070 N.pl3   1  NAD1        0.2180
     19  N1A        5.3500  -20.7720   -6.7680 N.2     1  NAD1        0.0021
     20  C2A        4.5880  -20.6100   -5.6300 C.3     1  NAD1        0.5254
     21  N3A        5.2250  -20.2060   -4.4880 N.2     1  NAD1       -0.0055
     22  C4A        6.5620  -19.9860   -4.4930 C.2     1  NAD1        0.3518
     23  O3         9.4720  -14.2050    0.6670 O.3     1  NAD1       -0.2703
     24  PN         9.2120  -13.4560    2.0650 P.3     1  NAD1        0.2189
     25  O1N       10.5240  -13.1130    2.6420 O.2     1  NAD1       -0.5170
     26  O2N        8.2460  -14.1570    2.9420 O.3     1  NAD1       -0.4371
     27  O5D        8.5270  -12.1020    1.5280 O.3     1  NAD1       -0.3112
     28  C5D        7.3780  -12.1190    0.6850 C.3     1  NAD1        0.1813
     29  C4D        7.6100  -11.2850   -0.5620 C.3     1  NAD1        0.1799
     30  O4D        8.0650  -10.0440   -0.1170 O.3     1  NAD1       -0.3327
     31  C3D        8.7300  -11.8440   -1.4280 C.3     1  NAD1        0.2158
     32  O3D        8.4910  -11.5820   -2.7870 O.3     1  NAD1       -0.2175
     33  C2D        9.9570  -11.0600   -1.0590 C.3     1  NAD1        0.2309
     34  O2D       10.7650  -10.9960   -2.2100 O.3     1  NAD1       -0.2158
     35  C1D        9.3400   -9.7340   -0.6320 C.3     1  NAD1        0.2263
     36  N1N       10.0720   -9.0010    0.4040 N.pl3   1  NAD1       -0.2787
     37  C2N       10.3970   -9.5610    1.6350 C.3     1  NAD1        0.1244
     38  C3N       11.1020   -8.7960    2.5970 C.2     1  NAD1        0.0544
     39  C7N       11.5920   -9.3920    3.8950 C.2     1  NAD1        0.2818
     40  O7N       11.2960  -10.7240    4.2630 O.2     1  NAD1       -0.2670
     41  N7N       12.3190   -8.6340    4.7090 N.am    1  NAD1       -0.0839
     42  C4N       11.4560   -7.4660    2.2970 C.2     1  NAD1        0.0033
     43  C5N       11.1150   -6.9180    1.0470 C.2     1  NAD1        0.0157
     44  C6N       10.4110   -7.6980    0.1150 C.2     1  NAD1        0.0633
@<TRIPOS>BOND
     1    18    17    1
     2    17    19    2
     3    17    16    1
     4    19    20    1
     5    16    15    2
     6    16    22    1
     7    20    21    1
     8    15    14    1
     9    22    21    2
    10    22    13    1
    11    14    13    1
    12    13    12    1
    13    32    31    1
    14    34    33    1
    15    12     7    1
    16    12    10    1
    17     7     6    1
    18    31    33    1
    19    31    29    1
    20    10    11    1
    21    10     8    1
    22    33    35    1
    23    35    30    1
    24    35    36    1
    25    29    30    1
    26    29    28    1
    27     4     5    1
    28     4     1    1
    29     6     5    1
    30     6     8    1
    31     2     1    2
    32    44    36    1
    33    44    43    2
    34     8     9    1
    35    36    37    1
    36     1    23    1
    37     1     3    1
    38    23    24    1
    39    28    27    1
    40    43    42    1
    41    27    24    1
    42    37    38    1
    43    24    25    2
    44    24    26    1
    45    42    38    2
    46    38    39    1
    47    39    40    2
    48    39    41   am
