@<TRIPOS>MOLECULE
3q6j_KPC_A_1.pdb
 11 10 0 0 0
SMALL
GASTEIGER

@<TRIPOS>ATOM
      1  CAK      -17.6600    3.4860   11.0820 C.3   526  KPC526      0.0732
      2  CAJ      -18.1430    3.0330   12.4270 C.2   526  KPC526      0.1619
      3  OAC      -17.7350    1.9980   12.9450 O.2   526  KPC526     -0.2951
      4  CAI      -19.1320    3.9800   13.0760 C.3   526  KPC526      0.1218
      5  SAH      -19.7080    3.6640   14.7040 S.3   526  KPC526     -0.1306
      6  CAG      -20.2450    1.9730   14.7050 C.3   526  KPC526      0.0794
      7  CAF      -21.5970    1.8280   13.9970 C.3   526  KPC526      0.1169
      8  SAE      -22.0000    0.1880   13.9010 S.3   526  KPC526     -0.1951
      9  OAD      -22.1790   -0.3270   15.2760 O.3   526  KPC526     -0.3075
     10  OAL      -23.3410    0.0440   13.3030 O.3   526  KPC526     -0.3075
     11  OAB      -20.9790   -0.5510   13.1590 O.3   526  KPC526     -0.3075
@<TRIPOS>BOND
     1     1     2    1
     2     2     3    2
     3     2     4    1
     4     4     5    1
     5    11     8    1
     6    10     8    1
     7     8     7    1
     8     8     9    1
     9     7     6    1
    10     5     6    1
