@<TRIPOS>MOLECULE
3q6j_NAP_A_1.pdb
 48 52 0 0 0
SMALL
GASTEIGER

@<TRIPOS>ATOM
      1  PA       -26.8800    6.3930   34.5620 P.3   1526  NAP1526     0.2189
      2  O1A      -28.2440    6.3060   35.1910 O.3   1526  NAP1526    -0.4371
      3  O2A      -25.7350    5.5280   35.0430 O.2   1526  NAP1526    -0.5170
      4  O5B      -26.5070    7.9460   34.8150 O.3   1526  NAP1526    -0.3112
      5  C5B      -25.3640    8.5550   34.2560 C.3   1526  NAP1526     0.1813
      6  C4B      -25.0350    9.7530   35.1270 C.3   1526  NAP1526     0.1820
      7  O4B      -26.1220   10.6690   35.0920 O.3   1526  NAP1526    -0.3136
      8  C3B      -24.8610    9.3370   36.5840 C.3   1526  NAP1526     0.2157
      9  O3B      -23.6570    9.9490   37.0070 O.3   1526  NAP1526    -0.2175
     10  C2B      -26.0520    9.9090   37.3430 C.3   1526  NAP1526     0.2314
     11  O2B      -25.6420   10.4360   38.5840 O.3   1526  NAP1526    -0.2630
     12  C1B      -26.4720   11.0480   36.4310 C.3   1526  NAP1526     0.3158
     13  N9A      -27.9040   11.4170   36.4730 N.pl3 1526  NAP1526    -0.1439
     14  C8A      -28.9340   10.7260   35.9910 C.3   1526  NAP1526     0.3377
     15  N7A      -30.0650   11.4370   36.2150 N.2   1526  NAP1526    -0.2095
     16  C5A      -29.7240   12.5870   36.8250 C.2   1526  NAP1526     0.2526
     17  C6A      -30.4370   13.6910   37.2870 C.2   1526  NAP1526     0.4393
     18  N6A      -31.7860   13.7420   37.1390 N.pl3 1526  NAP1526     0.2180
     19  N1A      -29.7680   14.7120   37.8850 N.2   1526  NAP1526     0.0021
     20  C2A      -28.4330   14.6660   38.0190 C.3   1526  NAP1526     0.5254
     21  N3A      -27.7210   13.6100   37.5860 N.2   1526  NAP1526    -0.0055
     22  C4A      -28.3530   12.5650   36.9860 C.2   1526  NAP1526     0.3518
     23  O3       -27.0780    6.2030   32.9610 O.3   1526  NAP1526    -0.2703
     24  PN       -26.0200    5.4020   32.0390 P.3   1526  NAP1526     0.2189
     25  O1N      -26.0690    3.9470   32.4380 O.3   1526  NAP1526    -0.4371
     26  O2N      -24.7090    6.1440   32.1000 O.2   1526  NAP1526    -0.5170
     27  O5D      -26.6200    5.5280   30.5410 O.3   1526  NAP1526    -0.3112
     28  C5D      -25.8270    5.9400   29.4200 C.3   1526  NAP1526     0.1813
     29  C4D      -24.9160    4.7970   28.9400 C.3   1526  NAP1526     0.1799
     30  O4D      -24.0230    5.2180   27.8770 O.3   1526  NAP1526    -0.3327
     31  C3D      -24.0670    4.2310   30.0840 C.3   1526  NAP1526     0.2158
     32  O3D      -24.2560    2.8210   30.3350 O.3   1526  NAP1526    -0.2175
     33  C2D      -22.6440    4.4730   29.6340 C.3   1526  NAP1526     0.2309
     34  O2D      -21.8230    3.3580   29.9780 O.3   1526  NAP1526    -0.2158
     35  C1D      -22.7120    4.6850   28.1270 C.3   1526  NAP1526     0.2263
     36  N1N      -21.5600    5.5260   27.7700 N.pl3 1526  NAP1526    -0.2787
     37  C2N      -20.3790    4.9040   27.6320 C.3   1526  NAP1526     0.1244
     38  C3N      -19.2070    5.5880   27.3140 C.2   1526  NAP1526     0.0544
     39  C7N      -17.8860    4.8540   27.1780 C.2   1526  NAP1526     0.2818
     40  O7N      -16.7440    5.5050   27.3590 O.2   1526  NAP1526    -0.2670
     41  N7N      -17.8200    3.5410   26.9210 N.am  1526  NAP1526    -0.0839
     42  C4N      -19.2550    7.0880   27.1220 C.2   1526  NAP1526     0.0033
     43  C5N      -20.5860    7.6650   27.3050 C.2   1526  NAP1526     0.0157
     44  C6N      -21.6760    6.8530   27.6200 C.2   1526  NAP1526     0.0633
     45  P2B      -25.7700    9.5240   39.9240 P.3   1526  NAP1526     0.5328
     46  O1X      -25.4450    8.1030   39.5100 O.2   1526  NAP1526    -0.2224
     47  O2X      -24.7360   10.2440   40.7830 O.3   1526  NAP1526    -0.1145
     48  O3X      -27.2220    9.6780   40.3460 O.3   1526  NAP1526    -0.1145
@<TRIPOS>BOND
     1    41    39   am
     2    42    43    1
     3    42    38    2
     4    39    38    1
     5    39    40    2
     6    43    44    2
     7    38    37    1
     8    44    36    1
     9    37    36    1
    10    36    35    1
    11    30    35    1
    12    30    29    1
    13    35    33    1
    14    29    28    1
    15    29    31    1
    16    28    27    1
    17    33    34    1
    18    33    31    1
    19    31    32    1
    20    27    24    1
    21    24    26    2
    22    24    25    1
    23    24    23    1
    24    23     1    1
    25     5     4    1
    26     5     6    1
    27     1     4    1
    28     1     3    2
    29     1     2    1
    30     7     6    1
    31     7    12    1
    32     6     8    1
    33    14    15    1
    34    14    13    1
    35    15    16    2
    36    12    13    1
    37    12    10    1
    38    13    22    1
    39     8     9    1
    40     8    10    1
    41    16    22    1
    42    16    17    1
    43    22    21    2
    44    18    17    1
    45    17    19    2
    46    10    11    1
    47    21    20    1
    48    19    20    1
    49    11    45    1
    50    46    45    2
    51    45    48    1
    52    45    47    1
