@<TRIPOS>MOLECULE
3q6k_SRO_A_1.pdb
 13 14 0 0 0
SMALL
GASTEIGER

@<TRIPOS>ATOM
      1  OH        38.6400   12.6350  -27.9670 O.3   383  SRO383     -0.2866
      2  CZ3       38.1740   13.3240  -26.8940 C.ar  383  SRO383      0.1958
      3  CH2       37.0700   14.1810  -27.0860 C.ar  383  SRO383      0.0436
      4  CZ2       36.5820   14.9050  -25.9910 C.ar  383  SRO383      0.0219
      5  CE2       37.2280   14.7180  -24.7550 C.ar  383  SRO383      0.0760
      6  NE1       37.0460   15.2160  -23.4990 N.2   383  SRO383     -0.2659
      7  CD1       37.9730   14.6990  -22.6410 C.3   383  SRO383      0.1477
      8  CG        38.7860   13.8310  -23.3540 C.2   383  SRO383     -0.0171
      9  CD2       38.3160   13.8390  -24.6830 C.ar  383  SRO383      0.0144
     10  CE3       38.7520   13.1750  -25.7280 C.ar  383  SRO383      0.0429
     11  CB        39.9250   13.0510  -22.7470 C.3   383  SRO383      0.0445
     12  CA        41.2510   13.5550  -23.2970 C.3   383  SRO383      0.1137
     13  NZ        42.0970   12.4390  -23.6520 N.3   383  SRO383     -0.1310
@<TRIPOS>BOND
     1     1     2    1
     2     3     2   ar
     3     3     4   ar
     4     2    10   ar
     5     4     5   ar
     6    10     9   ar
     7     5     9   ar
     8     5     6    2
     9     9     8    2
    10    13    12    1
    11     6     7    1
    12     8    11    1
    13     8     7    1
    14    12    11    1
