@<TRIPOS>MOLECULE
3q6w_Q6W_A_1.pdb
 39 44 0 0 0
SMALL
GASTEIGER

@<TRIPOS>ATOM
      1  C         -5.6000   -7.0780  -15.2230 C.ar    1  Q6W1        0.0566
      2  N         -6.3860   -8.6130  -16.8900 N.ar    1  Q6W1       -0.2437
      3  O         -4.8230   -6.1970  -13.2410 O.2     1  Q6W1       -0.2865
      4  C1        -6.6170   -7.7750  -15.8560 C.ar    1  Q6W1        0.0844
      5  C2        -8.0340   -7.7080  -15.5540 C.ar    1  Q6W1        0.0192
      6  C3        -8.7110   -6.7540  -14.8890 C.ar    1  Q6W1        0.0016
      7  C4        -8.3180   -5.5750  -14.1670 C.ar    1  Q6W1        0.0031
      8  C5        -6.9250   -5.3440  -13.7590 C.ar    1  Q6W1        0.0387
      9  C6        -5.7460   -6.2180  -14.0470 C.ar    1  Q6W1        0.1970
     10  C7        -4.3010   -7.2240  -15.6800 C.ar    1  Q6W1        0.0063
     11  C8        -4.0510   -8.0540  -16.7550 C.ar    1  Q6W1        0.0223
     12  C9        -5.1190   -8.7360  -17.3050 C.ar    1  Q6W1        0.0989
     13  C10       -9.2330   -4.6700  -13.7780 C.ar    1  Q6W1       -0.0002
     14  C11       -8.8940   -3.5000  -12.9990 C.ar    1  Q6W1       -0.0043
     15  C12       -7.6390   -3.2650  -12.5840 C.ar    1  Q6W1       -0.0216
     16  C13       -6.5570   -4.1940  -12.8960 C.ar    1  Q6W1       -0.0011
     17  C14       -2.7090   -8.1840  -17.2860 C.ar    1  Q6W1        0.0411
     18  C15       -7.1680   -2.1060  -11.7920 C.3     1  Q6W1        0.0360
     19  C16       -6.5250   -1.0660  -12.6940 C.3     1  Q6W1        0.0915
     20  C17       -5.0890   -1.3600  -13.0670 C.2     1  Q6W1        0.2421
     21  N18       -4.6470   -0.4730  -14.0310 N.am    1  Q6W1       -0.1989
     22  O19       -4.4020   -2.2610  -12.5900 O.2     1  Q6W1       -0.2733
     23  C20       -2.3800   -8.8230  -18.4630 C.ar    1  Q6W1        0.0966
     24  N21       -1.0300   -8.6380  -18.6100 N.ar    1  Q6W1       -0.2512
     25  N22       -0.4660   -7.9000  -17.6450 N.ar    1  Q6W1       -0.1677
     26  C23       -1.4950   -7.6230  -16.8230 C.ar    1  Q6W1        0.1217
     27  C24       -0.2020   -9.1230  -19.7070 C.3     1  Q6W1        0.1081
     28  C25        0.9190  -10.0110  -19.1880 C.3     1  Q6W1        0.0432
     29  C26        1.9230  -10.3500  -20.2840 C.3     1  Q6W1        0.0907
     30  N27        2.4250   -9.0730  -20.8470 N.3     1  Q6W1       -0.2179
     31  C28        1.3480   -8.2810  -21.5000 C.3     1  Q6W1        0.0907
     32  C29        0.3670   -7.9060  -20.4130 C.3     1  Q6W1        0.0432
     33  C30       -3.2680   -0.4040  -14.4410 C.3     1  Q6W1        0.1605
     34  C31       -2.4670    0.5750  -13.6300 C.ar    1  Q6W1        0.0809
     35  N32       -1.6360    1.3800  -14.3100 N.ar    1  Q6W1       -0.2464
     36  C33       -0.9210    2.2550  -13.5880 C.ar    1  Q6W1        0.0985
     37  C34       -0.9860    2.3730  -12.2150 C.ar    1  Q6W1        0.0207
     38  C35       -1.8470    1.5330  -11.5390 C.ar    1  Q6W1        0.0029
     39  C36       -2.5960    0.6230  -12.2570 C.ar    1  Q6W1        0.0165
@<TRIPOS>BOND
     1    31    30    1
     2    31    32    1
     3    30    29    1
     4    32    27    1
     5    29    28    1
     6    27    28    1
     7    27    24    1
     8    24    23   ar
     9    24    25   ar
    10    23    17   ar
    11    25    26   ar
    12    12     2   ar
    13    12    11   ar
    14    17    26   ar
    15    17    11    1
    16     2     4   ar
    17    11    10   ar
    18     4     5   ar
    19     4     1   ar
    20    10     1   ar
    21     5     6   ar
    22     1     9   ar
    23     6     7   ar
    24    33    21    1
    25    33    34    1
    26    35    34   ar
    27    35    36   ar
    28     7    13   ar
    29     7     8   ar
    30     9     8   ar
    31     9     3    2
    32    21    20   am
    33    13    14   ar
    34     8    16   ar
    35    34    39   ar
    36    36    37   ar
    37    20    19    1
    38    20    22    2
    39    14    15   ar
    40    16    15   ar
    41    19    18    1
    42    15    18    1
    43    39    38   ar
    44    37    38   ar
