@<TRIPOS>MOLECULE
3q6x_ZZ7_A_1.pdb
 25 26 0 0 0
SMALL
GASTEIGER

@<TRIPOS>ATOM
      1  O1        17.6400   -8.3310   24.6000 O.co2   1  ZZ71       -0.2441
      2  C2        17.7930   -8.0100   25.7940 C.2     1  ZZ71        0.3811
      3  O2        16.9780   -7.3350   26.4620 O.co2   1  ZZ71       -0.2441
      4  C12       19.1460   -8.3400   26.4420 C.3     1  ZZ71        0.1857
      5  C6        19.0850   -9.5020   27.4640 C.3     1  ZZ71        0.0658
      6  C1        18.4140   -9.0590   28.7820 C.3     1  ZZ71        0.0129
      7  C16       18.4300  -10.7830   26.8890 C.3     1  ZZ71        0.0129
      8  S1        20.8740   -9.7160   27.7530 S.3     1  ZZ71       -0.1211
      9  N3        20.1200   -8.7220   25.3710 N.3     1  ZZ71       -0.1956
     10  C13       21.3370   -9.2910   26.0260 C.3     1  ZZ71        0.1514
     11  C14       22.5380   -8.3180   25.9550 C.3     1  ZZ71        0.2237
     12  C15       22.1860   -6.8300   26.1960 C.2     1  ZZ71        0.3865
     13  O4        22.8670   -6.2150   27.0510 O.co2   1  ZZ71       -0.2437
     14  N1        23.5380   -8.7020   26.9510 N.am    1  ZZ71       -0.1917
     15  C3        24.5880   -9.4350   26.6520 C.2     1  ZZ71        0.2636
     16  O3        24.7920   -9.8900   25.5390 O.2     1  ZZ71       -0.2714
     17  C4        25.5870   -9.6080   27.8010 C.3     1  ZZ71        0.1915
     18  N2        26.9240   -9.9910   27.3010 N.3     1  ZZ71       -0.1182
     19  C5        25.0960  -10.5550   28.9000 C.ar    1  ZZ71        0.0038
     20  C7        25.6590  -10.3800   30.1630 C.ar    1  ZZ71       -0.0024
     21  C8        25.2780  -11.1910   31.2270 C.ar    1  ZZ71       -0.0003
     22  C9        24.3170  -12.1670   31.0250 C.ar    1  ZZ71       -0.0000
     23  C10       23.7420  -12.3460   29.7680 C.ar    1  ZZ71       -0.0003
     24  C11       24.1260  -11.5330   28.7000 C.ar    1  ZZ71       -0.0024
     25  OXT       21.3020   -6.3180   25.4790 O.co2   1  ZZ71       -0.2437
@<TRIPOS>BOND
     1     1     2   ar
     2     9    10    1
     3     9     4    1
     4    25    12   ar
     5    16    15    2
     6     2     4    1
     7     2     3   ar
     8    11    10    1
     9    11    12    1
    10    11    14    1
    11    10     8    1
    12    12    13   ar
    13     4     5    1
    14    15    14   am
    15    15    17    1
    16     7     5    1
    17    18    17    1
    18     5     8    1
    19     5     6    1
    20    17    19    1
    21    24    19   ar
    22    24    23   ar
    23    19    20   ar
    24    23    22   ar
    25    20    21   ar
    26    22    21   ar
