@<TRIPOS>MOLECULE
3q6y_S47_A_1.pdb
 33 37 0 0 0
SMALL
GASTEIGER

@<TRIPOS>ATOM
      1  C1         0.2330    4.8870    9.5580 C.3   5001  S475001     0.2272
      2  N1         2.3590    4.1100    9.0660 N.3   5001  S475001    -0.2102
      3  O1         0.2500    6.0130    8.7810 O.3   5001  S475001    -0.4467
      4  C2        -0.9330    6.4020    8.0790 C.2   5001  S475001     0.3215
      5  O2        -2.0330    6.0620    8.5500 O.2   5001  S475001    -0.2497
      6  O3         0.7540    4.1230   11.6360 O.3   5001  S475001    -0.4467
      7  C4         1.0640    5.1250   10.7510 C.3   5001  S475001     0.2272
      8  O4         1.7550    5.0720   13.3820 O.2   5001  S475001    -0.2497
      9  C5         1.0330    4.2160   12.9860 C.2   5001  S475001     0.3215
     10  C6        -0.8540    7.6380    7.1740 C.3   5001  S475001     0.1359
     11  C7         0.9590    3.7910    8.8810 C.3   5001  S475001     0.1361
     12  C13       -0.7980    9.0110    7.8790 C.ar  5001  S475001    -0.0111
     13  C14       -1.9840    9.7320    8.1030 C.ar  5001  S475001    -0.0037
     14  C15       -1.9380   10.9900    8.7450 C.ar  5001  S475001    -0.0003
     15  C16       -0.6840   11.5310    9.1700 C.ar  5001  S475001    -0.0000
     16  C17        0.5380   10.7850    8.9390 C.ar  5001  S475001    -0.0003
     17  C18        0.4910    9.5660    8.3170 C.ar  5001  S475001    -0.0034
     18  C19        1.6950    8.8330    8.0870 C.ar  5001  S475001    -0.0003
     19  C20       -1.6930    3.1220   14.7930 C.ar  5001  S475001    -0.0037
     20  C21        2.9960   10.5980    9.1370 C.ar  5001  S475001    -0.0000
     21  C22        1.8070   11.3300    9.3640 C.ar  5001  S475001    -0.0000
     22  C23        2.9460    9.3710    8.5100 C.ar  5001  S475001    -0.0000
     23  C24       -3.0710    2.7740   14.7480 C.ar  5001  S475001    -0.0003
     24  C25       -3.5630    1.9910   13.6910 C.ar  5001  S475001    -0.0000
     25  C26       -2.6700    1.5390   12.6500 C.ar  5001  S475001    -0.0003
     26  C27       -1.3290    1.8760   12.6970 C.ar  5001  S475001    -0.0034
     27  C28       -3.1740    0.7430   11.5800 C.ar  5001  S475001    -0.0000
     28  C29       -2.3000    0.2890   10.5460 C.ar  5001  S475001    -0.0000
     29  C30       -0.9120    0.6360   10.5880 C.ar  5001  S475001    -0.0000
     30  C31       -0.4210    1.4060   11.6240 C.ar  5001  S475001    -0.0003
     31  C32        2.4470    4.9600   10.2370 C.3   5001  S475001     0.1361
     32  C33       -0.8230    2.6820   13.7910 C.ar  5001  S475001    -0.0111
     33  C34        0.6140    3.0660   13.8590 C.3   5001  S475001     0.1359
@<TRIPOS>BOND
     1    10    12    1
     2    10     4    1
     3    12    13   ar
     4    12    17   ar
     5     4     5    2
     6     4     3    1
     7    18    17   ar
     8    18    22   ar
     9    13    14   ar
    10    17    16   ar
    11    22    20   ar
    12    14    15   ar
    13     3     1    1
    14    11     2    1
    15    11     1    1
    16    16    15   ar
    17    16    21   ar
    18     2    31    1
    19    20    21   ar
    20     1     7    1
    21    31     7    1
    22    28    29   ar
    23    28    27   ar
    24    29    30   ar
    25     7     6    1
    26    27    25   ar
    27    30    26   ar
    28     6     9    1
    29    25    26   ar
    30    25    24   ar
    31    26    32   ar
    32     9     8    2
    33     9    33    1
    34    24    23   ar
    35    32    33    1
    36    32    19   ar
    37    23    19   ar
