@<TRIPOS>MOLECULE
3q6z_APR_A_1.pdb
 36 39 0 0 0
SMALL
GASTEIGER

@<TRIPOS>ATOM
      1  N1        18.0150   25.5180   15.6540 N.2     1  APR1        0.0021
      2  C2        17.9270   24.4720   16.4920 C.3     1  APR1        0.5254
      3  N3        17.0890   23.4510   16.2850 N.2     1  APR1       -0.0055
      4  C4        16.2890   23.4600   15.2090 C.2     1  APR1        0.3518
      5  C5        16.3360   24.5230   14.2850 C.2     1  APR1        0.2526
      6  C6        17.2510   25.5890   14.5370 C.2     1  APR1        0.4393
      7  N6        17.4000   26.6520   13.7260 N.pl3   1  APR1        0.2180
      8  N7        15.4300   24.2200   13.3120 N.2     1  APR1       -0.2095
      9  C8        14.8540   23.0470   13.6260 C.3     1  APR1        0.3377
     10  N9        15.3810   22.5840   14.7770 N.pl3   1  APR1       -0.1439
     11  C1'       15.0320   21.3330   15.5130 C.3     1  APR1        0.3186
     12  C2'       13.6880   20.9140   14.9430 C.3     1  APR1        0.2570
     13  O2'       12.6590   21.6580   15.6060 O.3     1  APR1       -0.2130
     14  C3'       13.6520   19.4450   15.3210 C.3     1  APR1        0.2184
     15  O3'       13.2640   19.3480   16.6760 O.3     1  APR1       -0.2174
     16  O4'       15.9240   20.2410   15.2660 O.3     1  APR1       -0.3135
     17  C4'       15.1200   19.0080   15.1460 C.3     1  APR1        0.1821
     18  C5'       15.4020   18.3070   13.7740 C.3     1  APR1        0.1813
     19  O5'       14.7700   19.0290   12.6870 O.3     1  APR1       -0.3112
     20  PA        15.4290   19.2230   11.2560 P.3     1  APR1        0.2189
     21  O1A       16.6810   19.9870   11.4840 O.3     1  APR1       -0.4371
     22  O2A       14.4720   19.8250   10.2880 O.2     1  APR1       -0.5170
     23  O3A       15.8680   17.5870   10.8840 O.3     1  APR1       -0.2703
     24  PB        15.1420   16.4690    9.8170 P.3     1  APR1        0.2189
     25  O1B       13.7660   16.7060   10.3370 O.2     1  APR1       -0.5170
     26  O2B       16.0510   15.3940   10.3620 O.3     1  APR1       -0.4371
     27  O5D       15.6730   17.3990    8.6690 O.3     1  APR1       -0.3112
     28  C5D       16.8150   17.0280    7.9370 C.3     1  APR1        0.1813
     29  O4D       16.6290   19.2720    7.3780 O.3     1  APR1       -0.3237
     30  O1D       17.1240   20.7250    5.7280 O.3     1  APR1       -0.1869
     31  C1D       17.6910   20.1980    6.9610 C.3     1  APR1        0.3023
     32  O2D       19.9810   19.8330    5.9950 O.3     1  APR1       -0.2148
     33  C2D       18.9150   19.2790    6.8060 C.3     1  APR1        0.2433
     34  O3D       17.9780   18.5080    4.6610 O.3     1  APR1       -0.2175
     35  C3D       18.2350   18.1310    6.0500 C.3     1  APR1        0.2168
     36  C4D       16.8990   17.9980    6.7850 C.3     1  APR1        0.1807
@<TRIPOS>BOND
     1    34    35    1
     2    30    31    1
     3    32    33    1
     4    35    36    1
     5    35    33    1
     6    36    29    1
     7    36    28    1
     8    33    31    1
     9    31    29    1
    10    28    27    1
    11    27    24    1
    12    24    25    2
    13    24    26    1
    14    24    23    1
    15    22    20    2
    16    23    20    1
    17    20    21    1
    18    20    19    1
    19    19    18    1
    20     8     9    1
    21     8     5    2
    22     9    10    1
    23     7     6    1
    24    18    17    1
    25     5     6    1
    26     5     4    1
    27     6     1    2
    28    10     4    1
    29    10    11    1
    30    12    14    1
    31    12    11    1
    32    12    13    1
    33    17    16    1
    34    17    14    1
    35     4     3    2
    36    16    11    1
    37    14    15    1
    38     1     2    1
    39     3     2    1
