@<TRIPOS>MOLECULE
3q71_AR6_A_1.pdb
 36 39 0 0 0
SMALL
GASTEIGER

@<TRIPOS>ATOM
      1  N1       -26.1410    7.4810  -26.1010 N.2   800  AR6800      0.0021
      2  C2       -26.6720    7.7100  -24.9000 C.3   800  AR6800      0.5254
      3  N3       -26.2090    8.6540  -24.0750 N.2   800  AR6800     -0.0055
      4  C4       -25.1560    9.4030  -24.4570 C.2   800  AR6800      0.3518
      5  C5       -24.5760    9.1870  -25.6930 C.2   800  AR6800      0.2526
      6  C6       -25.0910    8.2070  -26.5250 C.2   800  AR6800      0.4393
      7  N6       -24.5250    8.0090  -27.7070 N.pl3 800  AR6800      0.2180
      8  N7       -23.5710   10.0480  -25.8240 N.2   800  AR6800     -0.2095
      9  C8       -23.5050   10.7840  -24.7170 C.3   800  AR6800      0.3377
     10  N9       -24.4680   10.3820  -23.8790 N.pl3 800  AR6800     -0.1439
     11  PA       -24.6150   16.1480  -24.0100 P.3   800  AR6800      0.2189
     12  PB       -26.4940   17.9730  -22.7600 P.3   800  AR6800      0.2189
     13  C1'      -24.7700   10.9580  -22.5880 C.3   800  AR6800      0.3186
     14  O1A      -24.5300   15.6700  -25.3940 O.2   800  AR6800     -0.5170
     15  O1B      -27.9870   17.9130  -22.7760 O.2   800  AR6800     -0.5170
     16  C1D      -26.0790   22.2470  -25.4920 C.3   800  AR6800      0.3023
     17  O1D      -26.9450   22.9730  -26.2740 O.3   800  AR6800     -0.1869
     18  C2'      -23.6440   11.7200  -21.9370 C.3   800  AR6800      0.2570
     19  O2'      -22.9660   10.8410  -21.0600 O.3   800  AR6800     -0.2130
     20  O2A      -23.5300   17.0070  -23.4920 O.3   800  AR6800     -0.4371
     21  O2B      -25.7600   17.8200  -21.4870 O.3   800  AR6800     -0.4371
     22  C2D      -24.7130   22.0690  -26.1570 C.3   800  AR6800      0.2433
     23  O2D      -24.6060   22.9350  -27.2750 O.3   800  AR6800     -0.2148
     24  C3'      -24.4180   12.7600  -21.1380 C.3   800  AR6800      0.2184
     25  O3'      -24.7260   12.2140  -19.8580 O.3   800  AR6800     -0.2174
     26  O3A      -26.0410   16.8450  -23.8400 O.3   800  AR6800     -0.2703
     27  C3D      -24.7360   20.6480  -26.6490 C.3   800  AR6800      0.2168
     28  O3D      -25.2790   20.6440  -27.9680 O.3   800  AR6800     -0.2175
     29  C4'      -25.7330   12.9420  -21.9190 C.3   800  AR6800      0.1821
     30  O4'      -25.6300   12.0370  -23.0310 O.3   800  AR6800     -0.3135
     31  C4D      -25.7870   20.0030  -25.7710 C.3   800  AR6800      0.1807
     32  O4D      -26.7550   21.0030  -25.5480 O.3   800  AR6800     -0.3237
     33  C5'      -25.8820   14.3940  -22.4160 C.3   800  AR6800      0.1813
     34  O5'      -24.6810   14.8430  -23.0660 O.3   800  AR6800     -0.3112
     35  C5D      -25.2330   19.5190  -24.4800 C.3   800  AR6800      0.1813
     36  O5D      -26.2440   19.3660  -23.4990 O.3   800  AR6800     -0.3112
@<TRIPOS>BOND
     1    28    27    1
     2     7     6    1
     3    23    22    1
     4    27    22    1
     5    27    31    1
     6     6     1    2
     7     6     5    1
     8    17    16    1
     9    22    16    1
    10     1     2    1
    11     8     5    2
    12     8     9    1
    13    31    32    1
    14    31    35    1
    15     5     4    1
    16    32    16    1
    17    14    11    2
    18     2     3    1
    19     9    10    1
    20    35    36    1
    21     4     3    2
    22     4    10    1
    23    11    26    1
    24    11    20    1
    25    11    34    1
    26    10    13    1
    27    26    12    1
    28    36    12    1
    29    34    33    1
    30    30    13    1
    31    30    29    1
    32    15    12    2
    33    12    21    1
    34    13    18    1
    35    33    29    1
    36    18    24    1
    37    18    19    1
    38    29    24    1
    39    24    25    1
