@<TRIPOS>MOLECULE
3q72_GNP_A_1.pdb
 32 34 0 0 0
SMALL
GASTEIGER

@<TRIPOS>ATOM
      1  PG        -5.1250   -3.0910   -0.9780 P.3   256  GNP256      0.4884
      2  O1G       -4.1650   -2.8370    0.1660 O.3   256  GNP256     -0.1240
      3  O2G       -6.5440   -3.2810   -0.5090 O.3   256  GNP256     -0.1240
      4  O3G       -4.5360   -4.2360   -1.7610 O.2   256  GNP256     -0.2331
      5  N3B       -5.1500   -1.8640   -2.0010 N.3   256  GNP256     -0.0163
      6  PB        -3.8800   -1.1130   -2.6210 P.3   256  GNP256      0.4669
      7  O1B       -3.3110   -0.1630   -1.6390 O.3   256  GNP256     -0.1253
      8  O2B       -2.9370   -2.1020   -3.1550 O.2   256  GNP256     -0.2351
      9  O3A       -4.4050   -0.2300   -3.7510 O.3   256  GNP256     -0.2360
     10  PA        -4.4130   -0.5120   -5.2550 P.3   256  GNP256      0.2220
     11  O1A       -4.9390   -1.8740   -5.4650 O.3   256  GNP256     -0.4370
     12  O2A       -3.1260   -0.1570   -5.8690 O.2   256  GNP256     -0.5170
     13  O5'       -5.4510    0.4920   -5.8510 O.3   256  GNP256     -0.3111
     14  C5'       -6.7550    0.5460   -5.3190 C.3   256  GNP256      0.1813
     15  C4'       -7.6960    1.1200   -6.3600 C.3   256  GNP256      0.1799
     16  O4'       -7.4160    2.5390   -6.5210 O.3   256  GNP256     -0.3326
     17  C3'       -7.5410    0.4870   -7.7330 C.3   256  GNP256      0.2158
     18  O3'       -8.8370    0.1900   -8.2500 O.3   256  GNP256     -0.2175
     19  C2'       -6.7480    1.5250   -8.5480 C.3   256  GNP256      0.2310
     20  O2'       -7.0940    1.6180   -9.9230 O.3   256  GNP256     -0.2158
     21  C1'       -7.0780    2.8470   -7.8580 C.3   256  GNP256      0.2293
     22  N9        -5.9770    3.8120   -7.8500 N.pl3 256  GNP256     -0.2354
     23  C8        -4.7150    3.6330   -7.3470 C.3   256  GNP256      0.2246
     24  N7        -3.9520    4.6770   -7.4890 N.2   256  GNP256     -0.2322
     25  C5        -4.7520    5.6080   -8.1280 C.2   256  GNP256      0.2182
     26  C6        -4.4670    6.9310   -8.5420 C.1   256  GNP256      0.2372
     27  O6        -3.4180    7.5670   -8.4240 O.2   256  GNP256     -0.2069
     28  N1        -5.5530    7.5240   -9.1600 N.2   256  GNP256     -0.2485
     29  C2        -6.7670    6.9130   -9.3520 C.1   256  GNP256      0.2531
     30  N2        -7.7060    7.6380   -9.9710 N.pl3 256  GNP256     -0.0226
     31  N3        -7.0500    5.6800   -8.9630 N.2   256  GNP256     -0.3074
     32  C4        -6.0000    5.0860   -8.3600 C.2   256  GNP256      0.2300
@<TRIPOS>BOND
     1    30    29    1
     2    20    19    1
     3    29    28    2
     4    29    31    2
     5    28    26    2
     6    31    32    2
     7    19    21    1
     8    19    17    1
     9    26    27    2
    10    26    25    1
    11    32    25    1
    12    32    22    1
    13    18    17    1
    14    25    24    2
    15    21    22    1
    16    21    16    1
    17    22    23    1
    18    17    15    1
    19    24    23    1
    20    16    15    1
    21    15    14    1
    22    12    10    2
    23    13    14    1
    24    13    10    1
    25    11    10    1
    26    10     9    1
    27     9     6    1
    28     8     6    2
    29     6     5    1
    30     6     7    1
    31     5     1    1
    32     4     1    2
    33     1     3    1
    34     1     2    1
