@<TRIPOS>MOLECULE
3q73_3CX_B_1.pdb
 15 15 0 0 0
SMALL
GASTEIGER

@<TRIPOS>ATOM
      1  OAA       30.7770  -19.1710  -36.2810 O.3   522  3CX522     -0.3071
      2  OAB       30.4300  -21.4990  -35.8080 O.3   522  3CX522     -0.3071
      3  OAC       32.9620  -22.8830  -35.1240 O.2   522  3CX522     -0.2928
      4  OAD       31.3230  -20.0580  -34.1170 O.3   522  3CX522     -0.3071
      5  CAE       39.3110  -24.9740  -36.6100 C.3   522  3CX522      0.0001
      6  CAF       38.5710  -24.0850  -37.5570 C.3   522  3CX522      0.0014
      7  CAG       39.2040  -24.5140  -35.1900 C.3   522  3CX522      0.0014
      8  CAH       37.1670  -23.8130  -37.1190 C.3   522  3CX522      0.0174
      9  CAI       37.7890  -24.2920  -34.7750 C.3   522  3CX522      0.0174
     10  CAJ       35.0950  -22.0010  -35.6250 C.3   522  3CX522      0.1545
     11  CAK       32.9330  -20.7150  -36.0880 C.3   522  3CX522      0.1707
     12  NAL       35.7100  -23.2370  -35.2300 N.3   522  3CX522     -0.2116
     13  CAM       33.6060  -21.9220  -35.5310 C.2   522  3CX522      0.1881
     14  CAN       37.0930  -23.3500  -35.6930 C.3   522  3CX522      0.0733
     15  SAO       31.2900  -20.3400  -35.5570 S.3   522  3CX522     -0.1887
@<TRIPOS>BOND
     1     6     8    1
     2     6     5    1
     3     8    14    1
     4     5     7    1
     5     1    15    1
     6    11    15    1
     7    11    13    1
     8     2    15    1
     9    14    12    1
    10    14     9    1
    11    10    13    1
    12    10    12    1
    13    15     4    1
    14    13     3    2
    15     7     9    1
