@<TRIPOS>MOLECULE
3q75_FII_B_1.pdb
 24 23 0 0 0
SMALL
GASTEIGER

@<TRIPOS>ATOM
      1  C1        27.5460  -37.4560   -4.3820 C.3   522  FII522      0.0260
      2  C2        27.3320  -35.9550   -4.4150 C.2   522  FII522     -0.0478
      3  C6        26.1220  -35.4060   -5.1690 C.3   522  FII522      0.0260
      4  C10       28.2670  -35.1680   -3.7390 C.2   522  FII522     -0.0342
      5  C11       28.4000  -33.7950   -3.5830 C.3   522  FII522      0.0297
      6  C12       29.6350  -33.3580   -4.3730 C.3   522  FII522      0.0263
      7  C15       30.7860  -32.7270   -3.5680 C.2   522  FII522     -0.0478
      8  C18       31.7640  -31.8440   -4.3580 C.3   522  FII522      0.0260
      9  C22       30.9840  -32.9310   -2.1960 C.2   522  FII522     -0.0342
     10  C23       32.0080  -32.3590   -1.4260 C.3   522  FII522      0.0297
     11  C24       32.4840  -33.2720   -0.2890 C.3   522  FII522      0.0264
     12  C27       33.5900  -32.6440    0.5790 C.2   522  FII522     -0.0453
     13  C30       33.3200  -31.3440    1.3510 C.3   522  FII522      0.0261
     14  C34       34.8270  -33.2820    0.6870 C.2   522  FII522     -0.0002
     15  C35       35.9260  -32.8570    1.4400 C.3   522  FII522      0.1990
     16  O36       37.1410  -32.8790    0.6720 O.3   522  FII522     -0.2391
     17  N42       37.1430  -32.0070   -0.3830 N.am  522  FII522     -0.0618
     18  C43       37.8040  -30.8460   -0.3560 C.2   522  FII522      0.2747
     19  O44       38.4540  -30.4380    0.6050 O.2   522  FII522     -0.2705
     20  C45       37.7260  -30.0330   -1.6540 C.3   522  FII522      0.1477
     21  P46       37.7720  -28.2320   -1.3520 P.3   522  FII522      0.1265
     22  O49       37.2540  -27.6000   -2.7370 O.2   522  FII522     -0.4596
     23  O50       36.6320  -27.9600   -0.2730 O.3   522  FII522     -0.3568
     24  O51       39.0920  -27.7150   -0.9350 O.3   522  FII522     -0.3568
@<TRIPOS>BOND
     1     3     2    1
     2     2     1    1
     3     2     4    2
     4     6     5    1
     5     6     7    1
     6     8     7    1
     7     4     5    1
     8     7     9    2
     9    22    21    2
    10     9    10    1
    11    20    21    1
    12    20    18    1
    13    10    11    1
    14    21    24    1
    15    21    23    1
    16    17    18   am
    17    17    16    1
    18    18    19    2
    19    11    12    1
    20    12    14    2
    21    12    13    1
    22    16    15    1
    23    14    15    1
