@<TRIPOS>MOLECULE
3q75_III_G_1.pdb
 45 44 0 0 0
SMALL
GASTEIGER

@<TRIPOS>ATOM
      1  N         45.5100  -34.9950   -3.1290 N.3     6  THR6       -0.1203
      2  CA        44.5210  -33.9000   -2.8840 C.3     6  THR6        0.1994
      3  C         43.3600  -33.9670   -3.8900 C.2     6  THR6        0.2618
      4  O         42.7670  -32.9380   -4.2470 O.2     6  THR6       -0.2717
      5  CB        45.1930  -32.5020   -2.9410 C.3     6  THR6        0.1784
      6  OG1       46.5630  -32.6020   -2.5330 O.3     6  THR6       -0.2211
      7  CG2       44.4660  -31.5050   -2.0300 C.3     6  THR6        0.0376
      8  N         43.0390  -35.1820   -4.3390 N.am    7  LYS7       -0.1965
      9  CA        41.9470  -35.4070   -5.2920 C.3     7  LYS7        0.1728
     10  C         40.6070  -34.9310   -4.7280 C.2     7  LYS7        0.2616
     11  O         40.5150  -34.5840   -3.5510 O.2     7  LYS7       -0.2715
     12  CB        41.8560  -36.8940   -5.6600 C.3     7  LYS7        0.0311
     13  CG        43.0670  -37.4380   -6.4070 C.3     7  LYS7        0.0038
     14  CD        42.8180  -38.8590   -6.9000 C.3     7  LYS7        0.0206
     15  CE        44.0320  -39.4160   -7.6310 C.3     7  LYS7        0.1093
     16  NZ        43.8290  -40.8420   -8.0280 N.3     7  LYS7       -0.1314
     17  N         39.5770  -34.8920   -5.5700 N.am    8  CYS8       -0.1954
     18  CA        38.2180  -34.6490   -5.0870 C.3     8  CYS8        0.1843
     19  C         37.5200  -35.9660   -4.7550 C.2     8  CYS8        0.2625
     20  O         37.6450  -36.9440   -5.4910 O.2     8  CYS8       -0.2714
     21  CB        37.4060  -33.8440   -6.0990 C.3     8  CYS8        0.0997
     22  SG        37.9410  -32.1260   -6.2530 S.3     8  CYS8       -0.0797
     23  N         36.8010  -35.9780   -3.6340 N.am    9  VAL9       -0.1963
     24  CA        36.1030  -37.1650   -3.1420 C.3     9  VAL9        0.1727
     25  C         34.6410  -36.7980   -2.8700 C.2     9  VAL9        0.2616
     26  O         34.3560  -35.8360   -2.1520 O.2     9  VAL9       -0.2715
     27  CB        36.7770  -37.7360   -1.8530 C.3     9  VAL9        0.0290
     28  CG1       36.0040  -38.9260   -1.3000 C.3     9  VAL9        0.0023
     29  CG2       38.2350  -38.1300   -2.1160 C.3     9  VAL9        0.0023
     30  N         33.7230  -37.5570   -3.4650 N.am   10  VAL10      -0.1963
     31  CA        32.2890  -37.2980   -3.3170 C.3    10  VAL10       0.1727
     32  C         31.5830  -38.4620   -2.6370 C.2    10  VAL10       0.2617
     33  O         30.4200  -38.3540   -2.2520 O.2    10  VAL10      -0.2715
     34  CB        31.5970  -37.0060   -4.6780 C.3    10  VAL10       0.0290
     35  CG1       32.2240  -35.8040   -5.3460 C.3    10  VAL10       0.0023
     36  CG2       31.6360  -38.2290   -5.5990 C.3    10  VAL10       0.0023
     37  N         32.3000  -39.5730   -2.4970 N.am   11  MET11      -0.1941
     38  CA        31.7260  -40.7960   -1.9640 C.3    11  MET11       0.1987
     39  C         32.7230  -41.6060   -1.1360 C.2    11  MET11       0.3842
     40  O         33.9370  -41.5200   -1.3340 O.co2  11  MET11      -0.2437
     41  CB        31.1970  -41.6470   -3.1110 C.3    11  MET11       0.0449
     42  CG        30.2290  -42.6980   -2.6610 C.3    11  MET11       0.0599
     43  SD        29.8590  -43.8260   -3.9850 S.3    11  MET11      -0.1393
     44  CE        29.7100  -45.3150   -3.0000 C.3    11  MET11       0.0692
     45  OXT       32.3260  -42.3730   -0.2540 O.co2  11  MET11      -0.2437
@<TRIPOS>BOND
     1    16    15    1
     2    15    14    1
     3    14    13    1
     4    13    12    1
     5    22    21    1
     6    21    18    1
     7    12     9    1
     8    36    34    1
     9    17    18    1
    10    17    10   am
    11    20    19    2
    12    35    34    1
    13     9    10    1
    14     9     8    1
    15    18    19    1
    16    19    23   am
    17    10    11    2
    18    34    31    1
    19     8     3   am
    20     4     3    2
    21    43    44    1
    22    43    42    1
    23     3     2    1
    24    23    24    1
    25    30    31    1
    26    30    25   am
    27    31    32    1
    28    24    25    1
    29    24    27    1
    30     1     2    1
    31    41    42    1
    32    41    38    1
    33     5     2    1
    34     5     6    1
    35     5     7    1
    36    25    26    2
    37    32    37   am
    38    32    33    2
    39    37    38    1
    40    29    27    1
    41    38    39    1
    42    27    28    1
    43    40    39   ar
    44    39    45   ar
