@<TRIPOS>MOLECULE
3q75_3CX_B_1.pdb
 15 15 0 0 0
SMALL
GASTEIGER

@<TRIPOS>ATOM
      1  OAA       29.9390  -18.2230  -36.3540 O.3   523  3CX523     -0.3074
      2  OAB       29.5070  -20.6020  -36.0070 O.3   523  3CX523     -0.3074
      3  OAC       31.8990  -21.8910  -34.8170 O.3   523  3CX523     -0.2198
      4  OAD       30.3210  -19.2350  -34.2220 O.3   523  3CX523     -0.3074
      5  CAE       38.3020  -24.2430  -36.5820 C.3   523  3CX523      0.0001
      6  CAF       37.6360  -23.2080  -37.5010 C.3   523  3CX523      0.0014
      7  CAG       38.2520  -23.7670  -35.1200 C.3   523  3CX523      0.0014
      8  CAH       36.1930  -22.9070  -37.0600 C.3   523  3CX523      0.0174
      9  CAI       36.8020  -23.5230  -34.6700 C.3   523  3CX523      0.0174
     10  CAJ       34.1280  -21.1060  -35.4670 C.3   523  3CX523      0.1231
     11  CAK       32.1350  -19.7800  -36.0660 C.3   523  3CX523      0.1395
     12  NAL       34.6810  -22.4320  -35.1680 N.3   523  3CX523     -0.2167
     13  CAM       32.6480  -21.2030  -35.8390 C.3   523  3CX523      0.1890
     14  CAN       36.0930  -22.4970  -35.5720 C.3   523  3CX523      0.0729
     15  SAO       30.3920  -19.4480  -35.6330 S.3   523  3CX523     -0.1934
@<TRIPOS>BOND
     1     6     8    1
     2     6     5    1
     3     8    14    1
     4     5     7    1
     5     1    15    1
     6    11    13    1
     7    11    15    1
     8     2    15    1
     9    13    10    1
    10    13     3    1
    11    15     4    1
    12    14    12    1
    13    14     9    1
    14    10    12    1
    15     7     9    1
