@<TRIPOS>MOLECULE
3q76_FUC_A_1.pdb
 10 10 0 0 0
SMALL
GASTEIGER

@<TRIPOS>ATOM
      1  C1       111.7970   68.7190   10.2560 C.3   402  FUC402      0.1776
      2  C2       113.0800   68.4050   11.0210 C.3   402  FUC402      0.2141
      3  C3       113.4800   69.5840   11.8930 C.3   402  FUC402      0.2172
      4  C4       112.3070   69.9960   12.7840 C.3   402  FUC402      0.2116
      5  C5       111.0960   70.2530   11.8950 C.3   402  FUC402      0.1483
      6  C6       109.8840   70.7160   12.6930 C.3   402  FUC402      0.0349
      7  O2       114.1480   68.1800   10.1240 O.3   402  FUC402     -0.2176
      8  O3       114.6360   69.2600   12.6360 O.3   402  FUC402     -0.2175
      9  O4       111.9980   68.9990   13.7410 O.3   402  FUC402     -0.2177
     10  O5       110.7810   69.0790   11.1730 O.3   402  FUC402     -0.3508
@<TRIPOS>BOND
     1     7     2    1
     2     1     2    1
     3     1    10    1
     4     2     3    1
     5    10     5    1
     6     3     8    1
     7     3     4    1
     8     5     6    1
     9     5     4    1
    10     4     9    1
