@<TRIPOS>MOLECULE
3q77_2HY_A_1.pdb
 32 34 0 0 0
SMALL
GASTEIGER

@<TRIPOS>ATOM
      1  C1        38.2000  -13.2210    2.2430 C.1   500  2HY500      0.2760
      2  F1        39.1390   -7.8320   -1.7260 F     500  2HY500     -0.1659
      3  N1        39.2950  -12.6890    1.6630 N.am  500  2HY500     -0.1883
      4  O1        37.0960  -13.1700    1.6640 O.2   500  2HY500     -0.1923
      5  C2        39.4290  -13.9090    4.2780 C.2   500  2HY500      0.1526
      6  F2        37.3250   -8.2510   -0.6500 F     500  2HY500     -0.1659
      7  N2        38.2380  -13.8330    3.4410 N.2   500  2HY500     -0.3205
      8  O2        42.9990  -13.2280    3.9280 O.2   500  2HY500     -0.2448
      9  C3        40.6140  -13.3850    3.6000 C.2   500  2HY500      0.1167
     10  F3        39.1040   -7.8500    0.4240 F     500  2HY500     -0.1659
     11  N3        37.8100   -9.1960    8.8700 N.1   500  2HY500     -0.1908
     12  O3        41.7620  -13.9940    5.7280 O.3   500  2HY500     -0.4425
     13  C4        40.4970  -12.7320    2.2730 C.2   500  2HY500      0.0543
     14  C5        39.1430  -12.0520    0.4100 C.ar  500  2HY500      0.0671
     15  C6        38.9860  -10.6600    0.4420 C.ar  500  2HY500      0.0198
     16  C7        38.8210   -9.9210   -0.7260 C.ar  500  2HY500      0.0727
     17  C8        38.8040  -10.5890   -1.9490 C.ar  500  2HY500      0.0039
     18  C9        38.9460  -11.9830   -1.9810 C.ar  500  2HY500      0.0013
     19  C10       39.1150  -12.7170   -0.8070 C.ar  500  2HY500      0.0159
     20  C11       38.6270   -8.4240   -0.6640 C.3   500  2HY500      0.4186
     21  C13       39.0900  -12.8800    5.3190 C.ar  500  2HY500      0.0309
     22  C14       38.8380  -11.5500    4.9440 C.ar  500  2HY500      0.0033
     23  C15       38.5020  -10.5780    5.8870 C.ar  500  2HY500      0.0104
     24  C16       38.4140  -10.9210    7.2320 C.ar  500  2HY500      0.0684
     25  C17       38.6650  -12.2440    7.6230 C.ar  500  2HY500      0.0104
     26  C18       39.0010  -13.2090    6.6700 C.ar  500  2HY500      0.0033
     27  C19       38.0970  -10.0230    8.1010 C.1   500  2HY500      0.1004
     28  C20       41.8910  -13.5000    4.3750 C.2   500  2HY500      0.3448
     29  C21       42.8830  -14.5830    6.3670 C.3   500  2HY500      0.2442
     30  C22       43.0210  -13.9290    7.7280 C.3   500  2HY500      0.2293
     31  C23       41.7240  -12.1490    1.6100 C.3   500  2HY500      0.0489
     32  O33       43.9530  -14.6830    8.5100 O.3   500  2HY500     -0.2162
@<TRIPOS>BOND
     1    18    17   ar
     2    18    19   ar
     3    17    16   ar
     4     2    20    1
     5    19    14   ar
     6    16    20    1
     7    16    15   ar
     8    20     6    1
     9    20    10    1
    10    14    15   ar
    11    14     3    1
    12    31    13    1
    13     3     1   am
    14     3    13    1
    15     4     1    2
    16     1     7    2
    17    13     9    2
    18     7     5    2
    19     9     5    1
    20     9    28    1
    21     8    28    2
    22     5    21    1
    23    28    12    1
    24    22    21   ar
    25    22    23   ar
    26    21    26   ar
    27    12    29    1
    28    23    24   ar
    29    29    30    1
    30    26    25   ar
    31    24    25   ar
    32    24    27    1
    33    30    32    1
    34    27    11    3
