@<TRIPOS>MOLECULE
3q77_FUC_A_1.pdb
 10 10 0 0 0
SMALL
GASTEIGER

@<TRIPOS>ATOM
      1  C1        32.2240    8.4070  -10.1470 C.3   402  FUC402      0.1776
      2  C2        31.2780    8.3860   -8.9480 C.3   402  FUC402      0.2141
      3  C3        31.8250    7.4660   -7.8740 C.3   402  FUC402      0.2172
      4  C4        33.2440    7.8970   -7.5430 C.3   402  FUC402      0.2116
      5  C5        34.0840    7.9500   -8.8110 C.3   402  FUC402      0.1483
      6  C6        35.4780    8.4470   -8.4620 C.3   402  FUC402      0.0349
      7  O2        30.0000    7.8930   -9.2960 O.3   402  FUC402     -0.2176
      8  O3        31.0070    7.5840   -6.7350 O.3   402  FUC402     -0.2175
      9  O4        33.2240    9.1780   -6.9530 O.3   402  FUC402     -0.2177
     10  O5        33.5010    8.8460   -9.7270 O.3   402  FUC402     -0.3508
@<TRIPOS>BOND
     1     1    10    1
     2     1     2    1
     3    10     5    1
     4     7     2    1
     5     2     3    1
     6     5     6    1
     7     5     4    1
     8     3     4    1
     9     3     8    1
    10     4     9    1
