@<TRIPOS>MOLECULE
3q78_3CX_B_1.pdb
 15 15 0 0 0
SMALL
GASTEIGER

@<TRIPOS>ATOM
      1  OAA       30.4840  -18.7590  -36.2960 O.3   522  3CX522     -0.3071
      2  OAB       30.1690  -20.9800  -35.8360 O.3   522  3CX522     -0.3071
      3  OAC       32.6080  -22.6850  -35.0060 O.2   522  3CX522     -0.2928
      4  OAD       30.8720  -19.9790  -34.1040 O.3   522  3CX522     -0.3071
      5  CAE       38.7220  -24.7120  -36.7380 C.3   522  3CX522      0.0001
      6  CAF       37.6330  -24.1920  -37.6040 C.3   522  3CX522      0.0014
      7  CAG       38.2190  -24.8570  -35.3360 C.3   522  3CX522      0.0014
      8  CAH       37.1680  -22.8500  -37.1410 C.3   522  3CX522      0.0174
      9  CAI       37.7510  -23.5550  -34.7710 C.3   522  3CX522      0.0174
     10  CAJ       34.6950  -21.8890  -35.8440 C.3   522  3CX522      0.1545
     11  CAK       32.4050  -20.6960  -36.3100 C.3   522  3CX522      0.1707
     12  NAL       35.4480  -23.0450  -35.4210 N.3   522  3CX522     -0.2116
     13  CAM       33.1880  -21.8110  -35.6170 C.2   522  3CX522      0.1881
     14  CAN       36.8600  -22.7520  -35.6690 C.3   522  3CX522      0.0733
     15  SAO       31.1250  -19.8740  -35.5380 S.3   522  3CX522     -0.1887
@<TRIPOS>BOND
     1     6     8    1
     2     6     5    1
     3     8    14    1
     4     5     7    1
     5    11    13    1
     6    11    15    1
     7     1    15    1
     8    10    13    1
     9    10    12    1
    10     2    15    1
    11    14    12    1
    12    14     9    1
    13    13     3    2
    14    15     4    1
    15     7     9    1
