@<TRIPOS>MOLECULE
3q78_FPS_B_1.pdb
 24 23 0 0 0
SMALL
GASTEIGER

@<TRIPOS>ATOM
      1  C1        36.5570  -32.4490    0.6130 C.3   524  FPS524      0.0942
      2  S1        37.6590  -33.0170   -0.7330 S.3   524  FPS524     -0.0237
      3  C2        35.2220  -32.5450    0.2380 C.2   524  FPS524     -0.0224
      4  C3        34.2490  -33.3100    0.8700 C.2   524  FPS524     -0.0470
      5  C4        34.6120  -34.1470    2.0980 C.3   524  FPS524      0.0261
      6  C5        32.8140  -33.3140    0.3390 C.3   524  FPS524      0.0264
      7  C6        32.7720  -33.7670   -1.1220 C.3   524  FPS524      0.0297
      8  C7        31.4640  -33.9910   -1.5360 C.2   524  FPS524     -0.0342
      9  C8        30.9670  -33.7910   -2.8190 C.2   524  FPS524     -0.0478
     10  C10       29.4970  -34.0840   -3.1240 C.3   524  FPS524      0.0263
     11  C9        31.8910  -33.2770   -3.9250 C.3   524  FPS524      0.0260
     12  C11       29.3490  -34.8100   -4.4630 C.3   524  FPS524      0.0297
     13  C12       29.0140  -36.1460   -4.2700 C.2   524  FPS524     -0.0342
     14  C13       27.8190  -36.7510   -4.6410 C.2   524  FPS524     -0.0478
     15  C14       26.7270  -35.9290   -5.3290 C.3   524  FPS524      0.0260
     16  C15       27.5960  -38.2380   -4.3610 C.3   524  FPS524      0.0260
     17  PA        38.9440  -31.5050   -0.7870 P.3   524  FPS524      0.4273
     18  O1A       40.3000  -32.1270   -1.4150 O.2   524  FPS524     -0.2431
     19  O2A       39.1720  -30.9230    0.5590 O.3   524  FPS524     -0.1309
     20  O3A       38.3750  -30.4510   -1.8630 O.3   524  FPS524     -0.1955
     21  PB        38.3180  -28.8760   -1.5010 P.3   524  FPS524      0.5394
     22  O1B       38.1720  -28.1130   -2.9200 O.2   524  FPS524     -0.2220
     23  O2B       37.2460  -28.5350   -0.5400 O.3   524  FPS524     -0.1143
     24  O3B       39.7990  -28.5050   -0.9650 O.3   524  FPS524     -0.1143
@<TRIPOS>BOND
     1    15    14    1
     2    14    16    1
     3    14    13    2
     4    12    13    1
     5    12    10    1
     6    11     9    1
     7    10     9    1
     8    22    21    2
     9     9     8    2
    10    20    21    1
    11    20    17    1
    12     8     7    1
    13    21    24    1
    14    21    23    1
    15    18    17    2
    16     7     6    1
    17    17     2    1
    18    17    19    1
    19     2     1    1
    20     3     1    1
    21     3     4    2
    22     6     4    1
    23     4     5    1
