@<TRIPOS>MOLECULE
3q79_FAR_B_1.pdb
 15 14 0 0 0
SMALL
GASTEIGER

@<TRIPOS>ATOM
      1  C1        37.2510  -31.3950   -4.6020 C.3   2010  FAR2010     0.0300
      2  C2        35.7870  -31.6290   -4.7700 C.2   2010  FAR2010    -0.0342
      3  C3        35.0260  -32.0730   -3.7240 C.2   2010  FAR2010    -0.0478
      4  C5        33.6440  -32.5680   -3.9920 C.3   2010  FAR2010     0.0263
      5  C6        32.6880  -31.9490   -3.0270 C.3   2010  FAR2010     0.0297
      6  C7        31.2930  -32.0850   -3.5400 C.2   2010  FAR2010    -0.0342
      7  C8        30.4240  -32.9810   -2.9790 C.2   2010  FAR2010    -0.0478
      8  C9        29.0820  -33.1850   -3.5980 C.3   2010  FAR2010     0.0263
      9  C11       28.7780  -34.6360   -3.7610 C.3   2010  FAR2010     0.0297
     10  C12       27.4380  -34.7730   -4.4030 C.2   2010  FAR2010    -0.0342
     11  C13       26.8800  -36.0030   -4.6000 C.2   2010  FAR2010    -0.0478
     12  C14       27.7110  -37.2250   -4.4030 C.3   2010  FAR2010     0.0260
     13  C15       25.5420  -36.1140   -5.2530 C.3   2010  FAR2010     0.0260
     14  C4        35.6770  -32.3870   -2.4190 C.3   2010  FAR2010     0.0260
     15  C10       30.8680  -33.8430   -1.8460 C.3   2010  FAR2010     0.0260
@<TRIPOS>BOND
     1    13    11    1
     2     2     1    1
     3     2     3    2
     4    11    10    2
     5    11    12    1
     6    10     9    1
     7     4     3    1
     8     4     5    1
     9     9     8    1
    10     3    14    1
    11     8     7    1
    12     6     5    1
    13     6     7    2
    14     7    15    1
