@<TRIPOS>MOLECULE
3q79_3CX_B_1.pdb
 15 15 0 0 0
SMALL
GASTEIGER

@<TRIPOS>ATOM
      1  OAA       19.6390  -60.4450   -0.7020 O.3   525  3CX525     -0.3071
      2  OAB       20.4150  -58.2550   -1.5170 O.3   525  3CX525     -0.3071
      3  OAC       22.3610  -60.5150   -0.0910 O.2   525  3CX525     -0.2928
      4  OAD       19.2510  -59.7780   -3.0060 O.3   525  3CX525     -0.3071
      5  CAE       29.1310  -58.9640   -0.1580 C.3   525  3CX525      0.0258
      6  CAF       28.7510  -60.3870    0.0930 C.2   525  3CX525     -0.0293
      7  CAG       28.0490  -58.0010    0.1860 C.3   525  3CX525      0.0064
      8  CAH       27.3570  -60.7840   -0.2740 C.2   525  3CX525     -0.0137
      9  CAI       26.7310  -58.3050   -0.4580 C.3   525  3CX525      0.0222
     10  CAJ       24.2080  -60.4000   -1.5180 C.3   525  3CX525      0.1548
     11  CAK       21.7580  -60.4170   -2.3430 C.3   525  3CX525      0.1707
     12  NAL       25.0450  -60.0660   -0.3710 N.3   525  3CX525     -0.2071
     13  CAM       22.7450  -60.5830   -1.2280 C.2   525  3CX525      0.1881
     14  CAN       26.4290  -59.7340   -0.8030 C.3   525  3CX525      0.0948
     15  SAO       20.2000  -59.6950   -1.8820 S.3   525  3CX525     -0.1887
@<TRIPOS>BOND
     1     4    15    1
     2    11    15    1
     3    11    13    1
     4    15     2    1
     5    15     1    1
     6    10    13    1
     7    10    12    1
     8    13     3    2
     9    14     9    1
    10    14    12    1
    11    14     8    1
    12     9     7    1
    13     8     6    2
    14     5     6    1
    15     5     7    1
