@<TRIPOS>MOLECULE
3q7a_3FX_B_1.pdb
 15 15 0 0 0
SMALL
GASTEIGER

@<TRIPOS>ATOM
      1  OAA       30.4000  -18.8240  -36.2690 O.3   522  3FX522     -0.3074
      2  OAB       30.8870  -19.8410  -34.1630 O.3   522  3FX522     -0.3074
      3  OAC       32.4790  -22.5110  -34.8840 O.3   522  3FX522     -0.2198
      4  OAD       29.9820  -21.2050  -35.9170 O.3   522  3FX522     -0.3074
      5  CAE       38.9540  -24.6180  -36.6890 C.3   522  3FX522      0.0001
      6  CAF       38.2070  -23.6420  -37.6070 C.3   522  3FX522      0.0014
      7  CAG       38.8760  -24.1710  -35.2170 C.3   522  3FX522      0.0014
      8  CAH       36.7470  -23.4790  -37.1540 C.3   522  3FX522      0.0174
      9  CAI       37.4190  -23.9630  -34.7610 C.3   522  3FX522      0.0174
     10  CAJ       34.6430  -21.6770  -35.6530 C.3   522  3FX522      0.1231
     11  CAK       32.5990  -20.3840  -36.1300 C.3   522  3FX522      0.1395
     12  NAL       35.2410  -22.9600  -35.2650 N.3   522  3FX522     -0.2167
     13  CAM       33.1490  -21.8020  -35.9380 C.3   522  3FX522      0.1890
     14  CAN       36.6530  -23.0030  -35.6870 C.3   522  3FX522      0.0729
     15  SAO       30.8870  -20.0570  -35.5770 S.3   522  3FX522     -0.1934
@<TRIPOS>BOND
     1     6     8    1
     2     6     5    1
     3     8    14    1
     4     5     7    1
     5     1    15    1
     6    11    13    1
     7    11    15    1
     8    13    10    1
     9    13     3    1
    10     4    15    1
    11    14    12    1
    12    14     9    1
    13    10    12    1
    14    15     2    1
    15     7     9    1
