@<TRIPOS>MOLECULE
3q7a_FPP_B_1.pdb
 24 23 0 0 0
SMALL
GASTEIGER

@<TRIPOS>ATOM
      1  C1        36.2420  -31.9090    0.5480 C.3   3011  FPP3011     0.1747
      2  O1        37.3140  -32.5080   -0.1860 O.3   3011  FPP3011    -0.3089
      3  C2        34.9990  -32.3060    0.0420 C.2   3011  FPP3011    -0.0024
      4  C3        34.1030  -33.2480    0.5600 C.2   3011  FPP3011    -0.0454
      5  C4        34.4340  -34.0050    1.8540 C.3   3011  FPP3011     0.0261
      6  C5        32.7510  -33.5550   -0.1240 C.3   3011  FPP3011     0.0264
      7  C6        32.6440  -33.1140   -1.5940 C.3   3011  FPP3011     0.0297
      8  C7        31.4100  -33.4700   -2.1490 C.2   3011  FPP3011    -0.0342
      9  C8        31.0250  -33.3890   -3.4920 C.2   3011  FPP3011    -0.0478
     10  C10       31.9570  -32.7840   -4.5490 C.3   3011  FPP3011     0.0260
     11  C9        29.6070  -33.7700   -3.9430 C.3   3011  FPP3011     0.0263
     12  C11       29.2320  -35.2370   -3.7850 C.3   3011  FPP3011     0.0297
     13  C12       28.0340  -35.4730   -4.4620 C.2   3011  FPP3011    -0.0342
     14  C13       27.4640  -36.6960   -4.8070 C.2   3011  FPP3011    -0.0478
     15  C14       28.1460  -38.0140   -4.4390 C.3   3011  FPP3011     0.0260
     16  C15       26.1300  -36.7280   -5.5600 C.3   3011  FPP3011     0.0260
     17  PA        38.7500  -31.7850   -0.4180 P.3   3011  FPP3011     0.2233
     18  O1A       39.1920  -31.1080    0.8220 O.3   3011  FPP3011    -0.4370
     19  O2A       39.6180  -32.7920   -1.0530 O.2   3011  FPP3011    -0.5169
     20  O3A       38.3760  -30.6840   -1.5520 O.3   3011  FPP3011    -0.2261
     21  PB        38.4340  -29.0590   -1.3510 P.3   3011  FPP3011     0.5373
     22  O1B       39.7830  -28.5470   -1.0230 O.3   3011  FPP3011    -0.1143
     23  O2B       37.3400  -28.6560   -0.2570 O.3   3011  FPP3011    -0.1143
     24  O3B       37.8710  -28.5010   -2.7390 O.2   3011  FPP3011    -0.2221
@<TRIPOS>BOND
     1    16    14    1
     2    14    13    2
     3    14    15    1
     4    10     9    1
     5    13    12    1
     6    11    12    1
     7    11     9    1
     8     9     8    2
     9    24    21    2
    10     8     7    1
    11     7     6    1
    12    20    21    1
    13    20    17    1
    14    21    22    1
    15    21    23    1
    16    19    17    2
    17    17     2    1
    18    17    18    1
    19     2     1    1
    20     6     4    1
    21     3     1    1
    22     3     4    2
    23     4     5    1
