@<TRIPOS>MOLECULE
3q7a_778_B_1.pdb
 29 32 0 0 0
SMALL
GASTEIGER

@<TRIPOS>ATOM
      1  N1        37.5600  -36.7480   -4.7540 N.3   3012  7783012    -0.2584
      2  C2        37.6360  -37.2720   -6.1320 C.3   3012  7783012     0.0949
      3  C3        38.6530  -35.7980   -4.4780 C.3   3012  7783012     0.1187
      4  C4        37.5220  -37.8800   -3.8120 C.3   3012  7783012     0.1593
      5  C5        36.2730  -37.8550   -6.5280 C.3   3012  7783012     0.1155
      6  C7        38.2540  -34.4400   -5.0880 C.ar  3012  7783012     0.0741
      7  C8        36.2710  -38.7190   -4.1340 C.2   3012  7783012     0.2457
      8  N9        35.6990  -38.7010   -5.4340 N.am  3012  7783012    -0.2560
      9  N11       37.4590  -33.5160   -4.5560 N.ar  3012  7783012    -0.3070
     10  C12       38.6170  -33.9790   -6.2850 C.ar  3012  7783012     0.1147
     11  O13       35.7730  -39.4140   -3.2480 O.2   3012  7783012    -0.2730
     12  C14       34.5330  -39.4480   -5.7200 C.ar  3012  7783012     0.0547
     13  C16       36.8280  -33.5750   -3.2280 C.3   3012  7783012     0.1340
     14  C17       37.3420  -32.4850   -5.3840 C.ar  3012  7783012     0.1786
     15  N18       38.0620  -32.7780   -6.4670 N.ar  3012  7783012    -0.2226
     16  C20       33.3580  -38.7630   -6.0290 C.ar  3012  7783012     0.0263
     17  C21       34.5310  -40.8450   -5.7060 C.ar  3012  7783012     0.0150
     18  C25       35.6790  -34.5870   -3.1260 C.ar  3012  7783012     0.0005
     19  C26       32.1880  -39.4610   -6.3230 C.ar  3012  7783012     0.0589
     20  C27       33.3560  -41.5460   -5.9970 C.ar  3012  7783012     0.0021
     21  C28       35.5450  -35.3270   -1.9510 C.ar  3012  7783012    -0.0017
     22  C29       34.7670  -34.7620   -4.1690 C.ar  3012  7783012    -0.0017
     23  C30       32.1820  -40.8550   -6.3050 C.ar  3012  7783012     0.0115
     24 CL31       30.7590  -38.5680   -6.7070 Cl    3012  7783012    -0.0822
     25  C32       34.5070  -36.2490   -1.8170 C.ar  3012  7783012     0.0100
     26  C33       33.7260  -35.6840   -4.0340 C.ar  3012  7783012     0.0100
     27  C34       33.5980  -36.4240   -2.8590 C.ar  3012  7783012     0.0684
     28  C35       32.5320  -37.3650   -2.7220 C.1   3012  7783012     0.1004
     29  N36       31.6830  -38.1150   -2.6160 N.1   3012  7783012    -0.1908
@<TRIPOS>BOND
     1    24    19    1
     2     5     2    1
     3     5     8    1
     4    15    10   ar
     5    15    14   ar
     6    19    23   ar
     7    19    16   ar
     8    23    20   ar
     9    10     6   ar
    10     2     1    1
    11    16    12   ar
    12    20    17   ar
    13    12    17   ar
    14    12     8    1
    15     8     7   am
    16    14     9   ar
    17     6     9   ar
    18     6     3    1
    19     1     3    1
    20     1     4    1
    21     9    13    1
    22    22    26   ar
    23    22    18   ar
    24     7     4    1
    25     7    11    2
    26    26    27   ar
    27    13    18    1
    28    18    21   ar
    29    27    28    1
    30    27    25   ar
    31    28    29    3
    32    21    25   ar
