@<TRIPOS>MOLECULE
3q7d_HEM_A_1.pdb
 43 50 0 0 0
SMALL
GASTEIGER

@<TRIPOS>ATOM
      1  CHA      -27.2560   36.4800   19.3180 C.2   682  HEM682      0.0000
      2  CHB      -23.8710   37.3620   15.9270 C.2   682  HEM682      0.0000
      3  CHC      -25.3240   42.0060   15.8070 C.2   682  HEM682      0.0000
      4  CHD      -29.0190   41.0350   18.8240 C.2   682  HEM682      0.0000
      5  C1A      -26.2000   36.3230   18.4490 C.ar  682  HEM682      0.0000
      6  C2A      -25.3980   35.1290   18.3180 C.ar  682  HEM682      0.0000
      7  C3A      -24.4590   35.3560   17.3900 C.ar  682  HEM682      0.0000
      8  C4A      -24.6280   36.7140   16.8950 C.ar  682  HEM682      0.0000
      9  CMA      -23.3730   34.3440   16.9390 C.3   682  HEM682      0.0000
     10  CAA      -25.5870   33.8370   19.1440 C.3   682  HEM682      0.0000
     11  CBA      -26.7220   32.9890   18.5850 C.3   682  HEM682      0.0000
     12  CGA      -26.9100   31.7970   19.5000 C.2   682  HEM682      0.0000
     13  O1A      -27.8940   31.0260   19.3000 O.co2 682  HEM682      0.0000
     14  O2A      -26.0720   31.6270   20.4350 O.co2 682  HEM682      0.0000
     15  C1B      -23.8750   38.7320   15.7030 C.2   682  HEM682      0.0000
     16  C2B      -22.8400   39.5440   15.0760 C.2   682  HEM682      0.0000
     17  C3B      -23.2590   40.8200   15.0690 C.2   682  HEM682      0.0000
     18  C4B      -24.5670   40.8640   15.6620 C.2   682  HEM682      0.0000
     19  CMB      -21.4960   39.0080   14.5390 C.3   682  HEM682      0.0000
     20  CAB      -22.5710   42.0990   14.5300 C.2   682  HEM682      0.0000
     21  CBB      -21.3850   42.1000   13.9190 C.2   682  HEM682      0.0000
     22  C1C      -26.4710   42.1370   16.5570 C.ar  682  HEM682      0.0000
     23  C2C      -27.2650   43.3330   16.6530 C.ar  682  HEM682      0.0000
     24  C3C      -28.2860   43.1020   17.4960 C.ar  682  HEM682      0.0000
     25  C4C      -28.1820   41.7170   17.9580 C.ar  682  HEM682      0.0000
     26  CMC      -26.9470   44.6470   15.9240 C.3   682  HEM682      0.0000
     27  CAC      -29.3530   44.1710   17.8470 C.2   682  HEM682      0.0000
     28  CBC      -30.2050   44.0410   18.8560 C.2   682  HEM682      0.0000
     29  C1D      -28.8310   39.7580   19.3380 C.2   682  HEM682      0.0000
     30  C2D      -29.5170   39.1830   20.4870 C.2   682  HEM682      0.0000
     31  C3D      -28.9580   37.7640   20.6350 C.2   682  HEM682      0.0000
     32  C4D      -27.9910   37.6210   19.5620 C.2   682  HEM682      0.0000
     33  CMD      -30.5830   39.8380   21.3980 C.3   682  HEM682      0.0000
     34  CAD      -29.3200   36.7150   21.7120 C.3   682  HEM682      0.0000
     35  CBD      -28.2520   36.8060   22.8080 C.3   682  HEM682      0.0000
     36  CGD      -28.3610   35.6950   23.8470 C.2   682  HEM682      0.0000
     37  O1D      -29.4540   35.0730   23.9980 O.co2 682  HEM682      0.0000
     38  O2D      -27.3390   35.4280   24.5400 O.co2 682  HEM682      0.0000
     39  NA       -25.7070   37.2600   17.5640 N.ar  682  HEM682      0.0000
     40  NB       -24.9080   39.5810   16.0450 N.2   682  HEM682      0.0000
     41  NC       -27.0600   41.1690   17.3540 N.ar  682  HEM682      0.0000
     42  ND       -27.9520   38.8030   18.8280 N.2   682  HEM682      0.0000
     43 FE        -26.4440   39.1700   17.3410 Fe    682  HEM682      0.0000
@<TRIPOS>BOND
     1    21    20    2
     2    20    17    1
     3    19    16    1
     4    17    16    2
     5    17    18    1
     6    16    15    1
     7    18     3    2
     8    18    40    1
     9    15     2    1
    10    15    40    2
    11     3    22    1
    12    26    23    1
    13     2     8    2
    14    40    43    1
    15    22    23   ar
    16    22    41   ar
    17    23    24   ar
    18     8     7   ar
    19     8    39   ar
    20     9     7    1
    21    43    41    1
    22    43    39    1
    23    43    42    1
    24    41    25   ar
    25     7     6   ar
    26    24    27    1
    27    24    25   ar
    28    39     5   ar
    29    27    28    2
    30    25     4    1
    31     6     5   ar
    32     6    10    1
    33     5     1    2
    34    11    10    1
    35    11    12    1
    36     4    29    2
    37    42    29    1
    38    42    32    2
    39    13    12   ar
    40     1    32    1
    41    29    30    1
    42    12    14   ar
    43    32    31    1
    44    30    31    2
    45    30    33    1
    46    31    34    1
    47    34    35    1
    48    35    36    1
    49    36    37   ar
    50    36    38   ar
