@<TRIPOS>MOLECULE
3q7d_NPX_A_1.pdb
 17 18 0 0 0
SMALL
GASTEIGER

@<TRIPOS>ATOM
      1  C1       -38.6370   48.3840   21.1520 C.ar  1591  NPX1591     0.1387
      2  O2       -37.9270   47.2530   21.0310 O.3   1591  NPX1591    -0.4714
      3  C2       -39.3710   48.8740   20.0690 C.ar  1591  NPX1591     0.0369
      4  C3       -40.1440   50.0370   20.2090 C.ar  1591  NPX1591     0.0031
      5  C4       -40.1690   50.7080   21.4410 C.ar  1591  NPX1591    -0.0001
      6  C5       -39.4310   50.2110   22.5130 C.ar  1591  NPX1591     0.0030
      7  C6       -38.6590   49.0500   22.3820 C.ar  1591  NPX1591     0.0369
      8  C7       -40.9360   51.8660   21.5860 C.ar  1591  NPX1591    -0.0037
      9  C8       -40.9680   52.5090   22.8230 C.ar  1591  NPX1591    -0.0118
     10  C9       -41.7680   53.7430   23.0400 C.3   1591  NPX1591     0.1256
     11  C10      -41.5310   54.6480   21.8250 C.3   1591  NPX1591     0.0166
     12  C13      -39.4550   50.8700   23.7300 C.ar  1591  NPX1591    -0.0002
     13  C11      -40.2190   52.0200   23.8770 C.ar  1591  NPX1591    -0.0037
     14  C12      -37.1650   46.8160   22.1680 C.3   1591  NPX1591     0.2525
     15  O        -43.9720   53.5530   22.2260 O.co2 1591  NPX1591    -0.2453
     16  OXT      -43.7250   53.6590   24.3560 O.co2 1591  NPX1591    -0.2453
     17  C15      -43.2230   53.5770   23.2090 C.2   1591  NPX1591     0.3683
@<TRIPOS>BOND
     1     3     4   ar
     2     3     1   ar
     3     4     5   ar
     4     2     1    1
     5     2    14    1
     6     1     7   ar
     7     5     8   ar
     8     5     6   ar
     9     8     9   ar
    10    11    10    1
    11    15    17   ar
    12     7     6   ar
    13     6    12   ar
    14     9    10    1
    15     9    13   ar
    16    10    17    1
    17    17    16   ar
    18    12    13   ar
