@<TRIPOS>MOLECULE
3q7f_FPP_B_1.pdb
 24 23 0 0 0
SMALL
GASTEIGER

@<TRIPOS>ATOM
      1  C1        36.7020  -32.3660   -0.0080 C.3   525  FPP525      0.1491
      2  O1        38.0040  -32.7740   -0.2340 O.3   525  FPP525     -0.3138
      3  C2        35.8100  -33.5680   -0.0490 C.3   525  FPP525      0.0325
      4  C3        34.4790  -33.5010    0.2710 C.3   525  FPP525      0.0028
      5  C4        34.1130  -33.3250    1.7040 C.3   525  FPP525      0.0001
      6  C5        33.4960  -34.2090   -0.6030 C.3   525  FPP525      0.0047
      7  C6        32.7750  -33.2430   -1.4840 C.3   525  FPP525      0.0254
      8  C7        31.4530  -33.8210   -1.8740 C.2   525  FPP525     -0.0346
      9  C8        31.0580  -33.9920   -3.1770 C.2   525  FPP525     -0.0482
     10  C10       31.8040  -33.3230   -4.2890 C.3   525  FPP525      0.0260
     11  C9        29.6300  -34.3850   -3.4080 C.3   525  FPP525      0.0217
     12  C11       29.5140  -35.4790   -4.4140 C.3   525  FPP525      0.0043
     13  C12       28.0810  -35.8790   -4.5320 C.3   525  FPP525      0.0003
     14  C13       27.7030  -37.1160   -4.9820 C.3   525  FPP525      0.0000
     15  C14       26.3320  -37.3020   -5.5350 C.3   525  FPP525      0.0000
     16  C15       28.5920  -38.3040   -4.8120 C.3   525  FPP525      0.0000
     17  PA        39.1500  -31.7580   -0.5340 P.3   525  FPP525      0.2230
     18  O1A       39.6070  -31.1150    0.8040 O.3   525  FPP525     -0.4370
     19  O2A       40.3340  -32.5540   -1.1410 O.2   525  FPP525     -0.5169
     20  O3A       38.6480  -30.7060   -1.5740 O.3   525  FPP525     -0.2261
     21  PB        38.6330  -29.1590   -1.3500 P.3   525  FPP525      0.5373
     22  O1B       40.0060  -28.6720   -0.9660 O.3   525  FPP525     -0.1143
     23  O2B       38.2320  -28.5160   -2.6500 O.2   525  FPP525     -0.2221
     24  O3B       37.6540  -28.7960   -0.2650 O.3   525  FPP525     -0.1143
@<TRIPOS>BOND
     1    15    14    1
     2    14    16    1
     3    14    13    1
     4    13    12    1
     5    12    11    1
     6    10     9    1
     7    11     9    1
     8     9     8    2
     9    23    21    2
    10     8     7    1
    11    20    21    1
    12    20    17    1
    13     7     6    1
    14    21    22    1
    15    21    24    1
    16    19    17    2
    17     6     4    1
    18    17     2    1
    19    17    18    1
    20     2     1    1
    21     3     1    1
    22     3     4    1
    23     4     5    1
