@<TRIPOS>MOLECULE
3q7f_3CX_B_1.pdb
 15 15 0 0 0
SMALL
GASTEIGER

@<TRIPOS>ATOM
      1  OAA       30.7800  -19.0340  -36.3470 O.3   522  3CX522     -0.3071
      2  OAB       30.2950  -21.3250  -35.8860 O.3   522  3CX522     -0.3071
      3  OAC       32.8310  -22.8030  -35.1500 O.2   522  3CX522     -0.2928
      4  OAD       31.2280  -19.9300  -34.1740 O.3   522  3CX522     -0.3071
      5  CAE       39.1940  -24.9590  -36.6890 C.3   522  3CX522      0.0001
      6  CAF       38.5030  -24.0010  -37.6090 C.3   522  3CX522      0.0014
      7  CAG       39.1300  -24.5110  -35.2590 C.3   522  3CX522      0.0014
      8  CAH       37.1070  -23.6830  -37.1680 C.3   522  3CX522      0.0174
      9  CAI       37.7340  -24.2020  -34.8080 C.3   522  3CX522      0.0174
     10  CAJ       34.9780  -21.9950  -35.7670 C.3   522  3CX522      0.1545
     11  CAK       32.8470  -20.6500  -36.1340 C.3   522  3CX522      0.1707
     12  NAL       35.6270  -23.1870  -35.2930 N.3   522  3CX522     -0.2116
     13  CAM       33.5010  -21.8580  -35.5610 C.2   522  3CX522      0.1881
     14  CAN       37.0210  -23.2600  -35.7270 C.3   522  3CX522      0.0733
     15  SAO       31.2180  -20.2240  -35.6100 S.3   522  3CX522     -0.1887
@<TRIPOS>BOND
     1     6     8    1
     2     6     5    1
     3     8    14    1
     4     5     7    1
     5     1    15    1
     6    11    15    1
     7    11    13    1
     8     2    15    1
     9    10    13    1
    10    10    12    1
    11    14    12    1
    12    14     9    1
    13    15     4    1
    14    13     3    2
    15     7     9    1
