@<TRIPOS>MOLECULE
3q7f_ED2_B_1.pdb
 35 38 0 0 0
SMALL
GASTEIGER

@<TRIPOS>ATOM
      1  CAB       41.6040  -34.6970   -5.1640 C.3   1003  ED21003     0.0908
      2  NBH       40.2650  -34.4870   -5.7170 N.3   1003  ED21003    -0.2549
      3  CAQ       39.8480  -33.3570   -6.3920 C.3   1003  ED21003     0.1639
      4  NAX       38.5770  -33.4950   -6.6820 N.3   1003  ED21003    -0.1993
      5  CAP       38.2370  -34.8250   -6.4820 C.3   1003  ED21003     0.1079
      6  CBC       39.2580  -35.4280   -5.8220 C.3   1003  ED21003     0.0960
      7  CAW       39.3130  -36.8430   -5.3410 C.3   1003  ED21003     0.1082
      8  NBE       38.2100  -37.6740   -5.8510 N.pl3 1003  ED21003    -0.3046
      9  CBB       38.3290  -38.3880   -7.0470 C.ar  1003  ED21003     0.0480
     10  CAN       37.4380  -39.4310   -7.3450 C.ar  1003  ED21003     0.0152
     11  CAL       37.5220  -40.1700   -8.6380 C.ar  1003  ED21003     0.0115
     12  CAZ       38.4950  -39.8600   -9.5160 C.ar  1003  ED21003     0.0685
     13  CAF       38.5920  -40.5980  -10.8290 C.1   1003  ED21003     0.1004
     14  NAC       38.6690  -41.1550  -11.8370 N.1   1003  ED21003    -0.1908
     15  CAM       39.4530  -38.7700   -9.2090 C.ar  1003  ED21003     0.0115
     16  CAO       39.3500  -38.0590   -7.9900 C.ar  1003  ED21003     0.0152
     17  CAT       37.0830  -37.9610   -4.9040 C.3   1003  ED21003     0.1099
     18  CAU       35.7500  -37.5330   -5.5270 C.3   1003  ED21003     0.1176
     19  NBF       34.5780  -37.9370   -4.7010 N.3   1003  ED21003    -0.1482
     20  SBI       34.0750  -36.7570   -3.6510 S.O2  1003  ED21003     0.0774
     21  OAD       32.7160  -36.4530   -4.0310 O.2   1003  ED21003    -0.1516
     22  OAE       34.0890  -37.2310   -2.2760 O.2   1003  ED21003    -0.1516
     23  CBD       35.0410  -35.3000   -3.8470 C.2   1003  ED21003     0.1931
     24  CAS       36.3070  -35.0190   -3.2520 C.3   1003  ED21003     0.1408
     25  NBG       36.7250  -33.7650   -3.7640 N.3   1003  ED21003    -0.2443
     26  CAA       37.9500  -33.0670   -3.4540 C.3   1003  ED21003     0.0916
     27  CAR       35.7230  -33.3010   -4.6400 C.3   1003  ED21003     0.2025
     28  NAY       34.7400  -34.2490   -4.6920 N.2   1003  ED21003    -0.2362
     29  CAV       34.7040  -39.2580   -4.0490 C.3   1003  ED21003     0.1222
     30  CBA       33.9290  -40.2640   -4.8670 C.ar  1003  ED21003    -0.0045
     31  CAJ       32.6390  -39.9750   -5.2860 C.ar  1003  ED21003    -0.0029
     32  CAH       31.9460  -40.8960   -6.0420 C.ar  1003  ED21003    -0.0003
     33  CAG       32.5620  -42.1070   -6.3890 C.ar  1003  ED21003    -0.0000
     34  CAI       33.8450  -42.3810   -5.9960 C.ar  1003  ED21003    -0.0003
     35  CAK       34.5400  -41.4620   -5.2230 C.ar  1003  ED21003    -0.0029
@<TRIPOS>BOND
     1    14    13    3
     2    13    12    1
     3    12    15   ar
     4    12    11   ar
     5    15    16   ar
     6    11    10   ar
     7    16     9   ar
     8    10     9   ar
     9     9     8    1
    10     4     5    1
    11     4     3    1
    12     5     6    1
    13     3     2    1
    14    33    32   ar
    15    33    34   ar
    16    32    31   ar
    17    34    35   ar
    18     8     7    1
    19     8    17    1
    20     6     2    1
    21     6     7    1
    22     2     1    1
    23    18    17    1
    24    18    19    1
    25    31    30   ar
    26    35    30   ar
    27    30    29    1
    28    19    29    1
    29    19    20    1
    30    28    27    1
    31    28    23    2
    32    27    25    1
    33    21    20    2
    34    23    20    1
    35    23    24    1
    36    25    26    1
    37    25    24    1
    38    20    22    2
