@<TRIPOS>MOLECULE
3q7i_6PG_A_1.pdb
 17 16 0 0 0
SMALL
GASTEIGER

@<TRIPOS>ATOM
      1  C1        47.2850   57.5300   13.5260 C.2   601  6PG601      0.3973
      2  C2        46.5520   58.0240   14.7400 C.3   601  6PG601      0.2865
      3  C3        45.0660   57.5930   14.8950 C.3   601  6PG601      0.2260
      4  C4        44.8780   56.2020   15.5220 C.3   601  6PG601      0.2179
      5  C5        43.4230   55.9640   16.0010 C.3   601  6PG601      0.2147
      6  C6        43.1630   54.5820   16.5780 C.3   601  6PG601      0.1892
      7  O1A       48.2570   56.8050   13.6550 O.co2 601  6PG601     -0.2427
      8  O1        46.9480   57.9890   12.4410 O.co2 601  6PG601     -0.2427
      9  O2        47.2840   57.8020   15.9760 O.3   601  6PG601     -0.2080
     10  O3        44.3160   57.5720   13.6260 O.3   601  6PG601     -0.2169
     11  O4        45.1950   55.1870   14.5770 O.3   601  6PG601     -0.2175
     12  O5        43.1580   56.9590   17.0280 O.3   601  6PG601     -0.2176
     13  O6        44.0590   54.3820   17.6950 O.3   601  6PG601     -0.2674
     14  P         44.1330   52.9330   18.3240 P.3   601  6PG601      0.5327
     15  O1P       44.6260   52.0070   17.2630 O.2   601  6PG601     -0.2224
     16  O2P       42.7390   52.5900   18.7940 O.3   601  6PG601     -0.1145
     17  O3P       45.0920   53.1210   19.4820 O.3   601  6PG601     -0.1145
@<TRIPOS>BOND
     1     8     1   ar
     2     1     7   ar
     3     1     2    1
     4    10     3    1
     5    11     4    1
     6     2     3    1
     7     2     9    1
     8     3     4    1
     9     4     5    1
    10     5     6    1
    11     5    12    1
    12     6    13    1
    13    15    14    2
    14    13    14    1
    15    14    16    1
    16    14    17    1
