@<TRIPOS>MOLECULE
3q7p_GNP_A_1.pdb
 32 34 0 0 0
SMALL
GASTEIGER

@<TRIPOS>ATOM
      1  PG        -5.4190   -2.4040    1.2440 P.3   256  GNP256      0.4884
      2  O1G       -4.7080   -2.0810   -0.0550 O.2   256  GNP256     -0.2331
      3  O2G       -6.6960   -3.1790    1.0720 O.3   256  GNP256     -0.1240
      4  O3G       -5.5480   -1.1020    2.0010 O.3   256  GNP256     -0.1240
      5  N3B       -4.4770   -3.3270    2.1350 N.3   256  GNP256     -0.0163
      6  PB        -3.1280   -2.7640    2.7450 P.3   256  GNP256      0.4669
      7  O1B       -2.0440   -2.8330    1.7440 O.2   256  GNP256     -0.2351
      8  O2B       -3.4530   -1.4500    3.3450 O.3   256  GNP256     -0.1253
      9  O3A       -2.6560   -3.7040    3.8500 O.3   256  GNP256     -0.2360
     10  PA        -2.9570   -3.5330    5.3390 P.3   256  GNP256      0.2220
     11  O1A       -4.4110   -3.2810    5.4800 O.2   256  GNP256     -0.5170
     12  O2A       -2.0110   -2.5700    5.9380 O.3   256  GNP256     -0.4370
     13  O5'       -2.6720   -4.9390    5.9940 O.3   256  GNP256     -0.3111
     14  C5'       -3.1800   -6.1440    5.4230 C.3   256  GNP256      0.1813
     15  C4'       -3.1010   -7.2710    6.4410 C.3   256  GNP256      0.1799
     16  O4'       -1.7240   -7.7360    6.5650 O.3   256  GNP256     -0.3326
     17  C3'       -3.5370   -6.8880    7.8540 C.3   256  GNP256      0.2158
     18  O3'       -4.1600   -7.9970    8.4870 O.3   256  GNP256     -0.2175
     19  C2'       -2.2140   -6.5550    8.5370 C.3   256  GNP256      0.2310
     20  O2'       -2.2460   -6.7750    9.9310 O.3   256  GNP256     -0.2158
     21  C1'       -1.2560   -7.5460    7.8900 C.3   256  GNP256      0.2293
     22  N9         0.1290   -7.0710    7.8670 N.pl3 256  GNP256     -0.2354
     23  C8         0.5760   -5.8510    7.4180 C.3   256  GNP256      0.2246
     24  N7         1.8670   -5.6920    7.5480 N.2   256  GNP256     -0.2322
     25  C5         2.3130   -6.8740    8.1260 C.2   256  GNP256      0.2182
     26  C6         3.6240   -7.2850    8.4990 C.1   256  GNP256      0.2372
     27  O6         4.6980   -6.6790    8.3760 O.2   256  GNP256     -0.2069
     28  N1         3.6290   -8.5570    9.0580 N.2   256  GNP256     -0.2485
     29  C2         2.5100   -9.3250    9.2510 C.1   256  GNP256      0.2531
     30  N2         2.7180  -10.5130    9.8350 N.pl3 256  GNP256     -0.0226
     31  N3         1.2820   -8.9670    8.8850 N.2   256  GNP256     -0.3074
     32  C4         1.2520   -7.7330    8.3300 C.2   256  GNP256      0.2300
@<TRIPOS>BOND
     1     2     1    2
     2     3     1    1
     3     1     4    1
     4     1     5    1
     5     7     6    2
     6     5     6    1
     7     6     8    1
     8     6     9    1
     9     9    10    1
    10    10    11    2
    11    10    12    1
    12    10    13    1
    13    14    13    1
    14    14    15    1
    15    15    16    1
    16    15    17    1
    17    16    21    1
    18    23    24    1
    19    23    22    1
    20    24    25    2
    21    17    18    1
    22    17    19    1
    23    22    21    1
    24    22    32    1
    25    21    19    1
    26    25    32    1
    27    25    26    1
    28    32    31    2
    29    27    26    2
    30    26    28    2
    31    19    20    1
    32    31    29    2
    33    28    29    2
    34    29    30    1
