@<TRIPOS>MOLECULE
3q7q_GNP_A_1.pdb
 32 34 0 0 0
SMALL
GASTEIGER

@<TRIPOS>ATOM
      1  PG        -4.3560  -16.0850    1.3970 P.3     1  GNP1        0.4884
      2  O1G       -3.8420  -16.0280   -0.0230 O.2     1  GNP1       -0.2331
      3  O2G       -5.5150  -17.0220    1.6390 O.3     1  GNP1       -0.1240
      4  O3G       -4.6200  -14.6500    1.7440 O.3     1  GNP1       -0.1240
      5  N3B       -3.2080  -16.6010    2.3660 N.3     1  GNP1       -0.0163
      6  PB        -2.0110  -15.7160    2.9180 P.3     1  GNP1        0.4669
      7  O1B       -0.9220  -15.6540    1.9160 O.2     1  GNP1       -0.2351
      8  O2B       -2.5470  -14.4370    3.4370 O.3     1  GNP1       -0.1253
      9  O3A       -1.4510  -16.4650    4.1160 O.3     1  GNP1       -0.2360
     10  PA        -1.8920  -16.1360    5.5330 P.3     1  GNP1        0.2220
     11  O1A       -3.3660  -16.0170    5.5190 O.2     1  GNP1       -0.5170
     12  O2A       -1.1170  -15.0010    6.0720 O.3     1  GNP1       -0.4370
     13  O5'       -1.5460  -17.4090    6.3920 O.3     1  GNP1       -0.3111
     14  C5'       -2.0170  -18.6720    5.9580 C.3     1  GNP1        0.1813
     15  C4'       -1.8550  -19.7210    7.0420 C.3     1  GNP1        0.1799
     16  O4'       -0.4510  -20.0430    7.1910 O.3     1  GNP1       -0.3326
     17  C3'       -2.3420  -19.3130    8.4280 C.3     1  GNP1        0.2158
     18  O3'       -2.9020  -20.4330    9.0940 O.3     1  GNP1       -0.2175
     19  C2'       -1.0680  -18.8660    9.1290 C.3     1  GNP1        0.2310
     20  O2'       -1.1580  -19.0340   10.5320 O.3     1  GNP1       -0.2158
     21  C1'       -0.0630  -19.8440    8.5350 C.3     1  GNP1        0.2293
     22  N9         1.3110  -19.3540    8.5370 N.pl3   1  GNP1       -0.2354
     23  C8         1.7860  -18.1880    7.9890 C.3     1  GNP1        0.2246
     24  N7         3.0720  -18.0340    8.1510 N.2     1  GNP1       -0.2322
     25  C5         3.4740  -19.1690    8.8470 C.2     1  GNP1        0.2182
     26  C6         4.7510  -19.5660    9.3090 C.1     1  GNP1        0.2372
     27  O6         5.8290  -18.9690    9.1930 O.2     1  GNP1       -0.2069
     28  N1         4.7020  -20.7950    9.9640 N.2     1  GNP1       -0.2485
     29  C2         3.5630  -21.5430   10.1540 C.1     1  GNP1        0.2531
     30  N2         3.7040  -22.7000   10.8130 N.pl3   1  GNP1       -0.0226
     31  N3         2.3620  -21.1850    9.7300 N.2     1  GNP1       -0.3074
     32  C4         2.3960  -19.9910    9.0900 C.2     1  GNP1        0.2300
@<TRIPOS>BOND
     1     2     1    2
     2     1     3    1
     3     1     4    1
     4     1     5    1
     5     7     6    2
     6     5     6    1
     7     6     8    1
     8     6     9    1
     9     9    10    1
    10    11    10    2
    11    10    12    1
    12    10    13    1
    13    14    13    1
    14    14    15    1
    15    15    16    1
    16    15    17    1
    17    16    21    1
    18    23    24    1
    19    23    22    1
    20    24    25    2
    21    17    18    1
    22    17    19    1
    23    21    22    1
    24    21    19    1
    25    22    32    1
    26    25    32    1
    27    25    26    1
    28    32    31    2
    29    19    20    1
    30    27    26    2
    31    26    28    2
    32    31    29    2
    33    28    29    2
    34    29    30    1
