@<TRIPOS>MOLECULE
3q7s_I3C_A_1.pdb
 16 16 0 0 0
SMALL
GASTEIGER

@<TRIPOS>ATOM
      1  I3        29.3690    2.2690  -10.3970 I     114  I3C114     -0.0409
      2  I2        27.1730    0.1630   -5.2190 I     114  I3C114     -0.0409
      3  I1        23.3790    1.1800   -9.9050 I     114  I3C114     -0.0421
      4  O8        26.2850    1.1760  -12.1670 O.co2 114  I3C114     -0.2405
      5  O9        26.0000    3.2660  -11.4890 O.co2 114  I3C114     -0.2405
      6  C10       24.3630    0.2990   -6.9870 C.2   114  I3C114      0.3886
      7  N13       29.4130    1.2640   -7.4200 N.pl3 114  I3C114     -0.1272
      8  C1        26.4370    1.6440   -9.8930 C.ar  114  I3C114      0.0920
      9  C6        27.7630    1.6390   -9.3020 C.ar  114  I3C114      0.0540
     10  C5        28.0270    1.2170   -7.9460 C.ar  114  I3C114      0.1002
     11  C4        26.8790    0.7660   -7.1710 C.ar  114  I3C114      0.0540
     12  C3        25.5340    0.7360   -7.7440 C.ar  114  I3C114      0.0920
     13  C2        25.2980    1.1810   -9.1060 C.ar  114  I3C114      0.0437
     14  C7        26.2350    2.0690  -11.2950 C.2   114  I3C114      0.3886
     15  O11       24.1750   -0.9390   -6.8440 O.co2 114  I3C114     -0.2405
     16  O12       23.6090    1.2010   -6.6110 O.co2 114  I3C114     -0.2405
@<TRIPOS>BOND
     1     4    14   ar
     2     5    14   ar
     3    14     8    1
     4     1     9    1
     5     3    13    1
     6     8     9   ar
     7     8    13   ar
     8     9    10   ar
     9    13    12   ar
    10    10     7    1
    11    10    11   ar
    12    12    11   ar
    13    12     6    1
    14    11     2    1
    15     6    15   ar
    16     6    16   ar
