@<TRIPOS>MOLECULE
3q7u_CTP_A_1.pdb
 29 30 0 0 0
SMALL
GASTEIGER

@<TRIPOS>ATOM
      1  N1        27.8810   -1.8950   10.8140 N.am  500  CTP500     -0.1778
      2  C2        28.4650   -2.1410    9.6250 C.1   500  CTP500      0.2756
      3  N3        29.7500   -2.4450    9.5480 N.2   500  CTP500     -0.3024
      4  C4        30.5310   -2.5130   10.6470 C.2   500  CTP500      0.2346
      5  C5        29.9650   -2.2600   11.8970 C.2   500  CTP500      0.0687
      6  C6        28.6090   -1.9490   11.9510 C.2   500  CTP500      0.0836
      7  O2        27.8140   -2.0910    8.5770 O.2   500  CTP500     -0.1925
      8  N4        31.9080   -2.8660   10.5170 N.pl3 500  CTP500     -0.0921
      9  C1'       26.4590   -1.6190   10.9250 C.3   500  CTP500      0.2400
     10  C2'       25.8480   -2.6030   11.8590 C.3   500  CTP500      0.2319
     11  O2'       25.5950   -3.7780   11.1820 O.3   500  CTP500     -0.2157
     12  C3'       24.6330   -1.9190   12.3210 C.3   500  CTP500      0.2158
     13  C4'       24.9420   -0.4670   12.2300 C.3   500  CTP500      0.1799
     14  O4'       26.1780   -0.3600   11.4840 O.3   500  CTP500     -0.3320
     15  O3'       23.5450   -2.2030   11.5140 O.3   500  CTP500     -0.2175
     16  C5'       25.1870    0.0480   13.5330 C.3   500  CTP500      0.1813
     17  O5'       26.0800   -0.7040   14.2960 O.3   500  CTP500     -0.3112
     18  PA        25.8290   -1.0400   15.8270 P.3   500  CTP500      0.2189
     19  O1A       24.4520   -1.6240   16.0540 O.2   500  CTP500     -0.5170
     20  O2A       25.9720    0.2240   16.6380 O.3   500  CTP500     -0.4371
     21  O3A       26.9620   -2.0670   16.2840 O.3   500  CTP500     -0.2700
     22  PB        27.0660   -3.5820   15.7680 P.3   500  CTP500      0.2277
     23  O1B       28.4030   -3.7700   15.1390 O.3   500  CTP500     -0.4368
     24  O2B       25.9860   -3.9850   14.8030 O.2   500  CTP500     -0.5168
     25  O3B       26.9190   -4.3940   17.1010 O.3   500  CTP500     -0.2258
     26  PG        28.0500   -4.4770   18.1870 P.3   500  CTP500      0.5373
     27  O1G       28.9830   -5.5990   17.7600 O.2   500  CTP500     -0.2221
     28  O2G       27.4340   -4.7920   19.5360 O.3   500  CTP500     -0.1143
     29  O3G       28.8170   -3.1840   18.2930 O.3   500  CTP500     -0.1143
@<TRIPOS>BOND
     1     7     2    2
     2     3     2    2
     3     3     4    2
     4     2     1   am
     5     8     4    1
     6     4     5    1
     7     1     9    1
     8     1     6    1
     9     9    14    1
    10     9    10    1
    11    11    10    1
    12    14    13    1
    13    15    12    1
    14    10    12    1
    15     5     6    2
    16    13    12    1
    17    13    16    1
    18    16    17    1
    19    17    18    1
    20    24    22    2
    21    23    22    1
    22    22    21    1
    23    22    25    1
    24    18    19    2
    25    18    21    1
    26    18    20    1
    27    25    26    1
    28    27    26    2
    29    26    29    1
    30    26    28    1
