@<TRIPOS>MOLECULE
3q7z_BOU_A_1.pdb
 31 33 0 0 0
SMALL
GASTEIGER

@<TRIPOS>ATOM
      1  S1        -3.6840   -9.9370   32.1800 S.3   584  BOU584     -0.1212
      2  C1        -5.4300   -9.7010   31.9160 C.3   584  BOU584      0.0658
      3  C2        -5.4230   -8.3560   31.1990 C.3   584  BOU584      0.1857
      4  N1        -4.1390   -8.4120   30.4250 N.3   584  BOU584     -0.1957
      5  C3        -2.8290   -8.7960   31.0020 C.3   584  BOU584      0.1479
      6  C4        -2.5310   -7.4300   31.5500 C.3   584  BOU584      0.1858
      7  C5        -2.9810   -6.3410   30.7050 C.2   584  BOU584      0.2311
      8  O1        -3.1250   -5.2370   31.1350 O.2   584  BOU584     -0.2863
      9  C6        -6.1500   -9.5930   33.2600 C.3   584  BOU584      0.0129
     10  C7        -6.0710  -10.8590   31.1210 C.3   584  BOU584      0.0129
     11  C8        -6.7010   -8.0010   30.4520 C.2   584  BOU584      0.3811
     12  O2        -6.7740   -8.2900   29.2350 O.co2 584  BOU584     -0.2441
     13  O3        -7.6730   -7.4250   31.0260 O.co2 584  BOU584     -0.2441
     14  N2        -2.2790   -6.9370   32.8620 N.am  584  BOU584     -0.1930
     15  C9        -1.7820   -7.6730   33.8400 C.2   584  BOU584      0.2652
     16  O4        -1.5820   -8.8090   33.6590 O.2   584  BOU584     -0.2684
     17  C10       -1.4310   -7.1700   35.2050 C.ar  584  BOU584      0.0551
     18  C11       -1.2090   -5.7970   35.2870 C.ar  584  BOU584      0.0046
     19  C12       -0.8540   -5.2470   36.5080 C.ar  584  BOU584      0.0001
     20  C13       -0.7340   -6.0630   37.6210 C.ar  584  BOU584      0.0000
     21  C14       -0.9680   -7.4280   37.5620 C.ar  584  BOU584      0.0001
     22  C15       -1.3230   -8.0210   36.3360 C.ar  584  BOU584      0.0046
     23  C16       -1.5730   -9.5200   36.3170 C.ar  584  BOU584      0.0065
     24  C17       -2.8020   -9.9710   35.7720 C.ar  584  BOU584      0.0002
     25  C18       -3.1080  -11.3240   35.6640 C.ar  584  BOU584      0.0000
     26  C19       -2.2010  -12.2550   36.1680 C.ar  584  BOU584      0.0002
     27  C20       -0.9930  -11.8470   36.7330 C.ar  584  BOU584      0.0066
     28  C21       -0.6650  -10.4950   36.8180 C.ar  584  BOU584      0.0798
     29  C22        0.6770  -10.2160   37.4450 C.2   584  BOU584      0.3878
     30  O5         1.5390   -9.5230   36.8520 O.co2 584  BOU584     -0.2406
     31  O6         0.9040  -10.6980   38.5750 O.co2 584  BOU584     -0.2406
@<TRIPOS>BOND
     1    12    11   ar
     2     4     5    1
     3     4     3    1
     4    11    13   ar
     5    11     3    1
     6     7     8    2
     7     7     6    1
     8     5     6    1
     9     5     1    1
    10    10     2    1
    11     3     2    1
    12     6    14    1
    13     2     1    1
    14     2     9    1
    15    14    15   am
    16    16    15    2
    17    15    17    1
    18    17    18   ar
    19    17    22   ar
    20    18    19   ar
    21    25    24   ar
    22    25    26   ar
    23    24    23   ar
    24    26    27   ar
    25    23    22    1
    26    23    28   ar
    27    22    21   ar
    28    19    20   ar
    29    27    28   ar
    30    28    29    1
    31    30    29   ar
    32    29    31   ar
    33    21    20   ar
