@<TRIPOS>MOLECULE
3q80_CDM_A_1.pdb
 33 34 0 0 0
SMALL
GASTEIGER

@<TRIPOS>ATOM
      1  N1        14.4950  -26.1410   18.8320 N.am  500  CDM500     -0.2009
      2  C2        15.3470  -27.2810   18.3710 C.1   500  CDM500      0.2713
      3  N3        16.6220  -26.9230   17.7690 N.2   500  CDM500     -0.3072
      4  C4        16.7820  -25.6100   17.1460 C.2   500  CDM500      0.2123
      5  C5        15.7700  -24.5230   17.4210 C.3   500  CDM500      0.1014
      6  C6        14.5000  -24.8420   18.1790 C.3   500  CDM500      0.1151
      7  O2        15.3630  -28.4480   19.1090 O.2   500  CDM500     -0.1929
      8  N4        18.1160  -25.2630   16.7280 N.pl3 500  CDM500     -0.0969
      9  C1'       13.4760  -26.6730   19.7270 C.3   500  CDM500      0.2360
     10  C2'       13.4030  -25.7480   20.9360 C.3   500  CDM500      0.2316
     11  O2'       14.3120  -26.1550   21.9300 O.3   500  CDM500     -0.2157
     12  C3'       11.9480  -25.8330   21.3300 C.3   500  CDM500      0.2158
     13  C4'       11.1880  -26.2370   20.0540 C.3   500  CDM500      0.1799
     14  O4'       12.1960  -26.4950   19.0310 O.3   500  CDM500     -0.3322
     15  O3'       11.7530  -26.7630   22.3710 O.3   500  CDM500     -0.2175
     16  C5'       10.3960  -25.0290   19.5240 C.3   500  CDM500      0.1813
     17  O5'       11.2790  -23.9430   19.4970 O.3   500  CDM500     -0.3112
     18  PA        10.6480  -22.4230   19.5920 P.3   500  CDM500      0.2189
     19  O1A       10.1050  -22.2460   20.9510 O.3   500  CDM500     -0.4371
     20  O2A       11.7680  -21.2830   19.2580 O.2   500  CDM500     -0.5170
     21  O3A        9.3490  -22.2990   18.6230 O.3   500  CDM500     -0.2703
     22  PB         9.4030  -22.2920   16.9840 P.3   500  CDM500      0.2189
     23  O1B       10.5540  -23.2930   16.3800 O.2   500  CDM500     -0.5170
     24  O2B        9.5630  -20.9020   16.5490 O.3   500  CDM500     -0.4371
     25  O3B        7.9090  -22.8110   16.5600 O.3   500  CDM500     -0.3111
     26  C1M        7.5230  -24.1550   16.7430 C.3   500  CDM500      0.1845
     27  C2M        6.0760  -24.2030   16.2450 C.3   500  CDM500      0.2120
     28  O2M        6.1100  -23.9210   14.8620 O.3   500  CDM500     -0.2177
     29  C3M        5.4160  -25.5660   16.5850 C.3   500  CDM500      0.1873
     30  C4M        4.0220  -25.6440   15.9510 C.3   500  CDM500      0.2148
     31  C5M        6.2950  -26.7480   16.0740 C.3   500  CDM500      0.0384
     32  O3M        5.2540  -25.6510   17.9830 O.3   500  CDM500     -0.2202
     33  O4M        3.2350  -24.5600   16.3790 O.3   500  CDM500     -0.2176
@<TRIPOS>BOND
     1    28    27    1
     2    30    33    1
     3    30    29    1
     4    31    29    1
     5    27    29    1
     6    27    26    1
     7    23    22    2
     8    24    22    1
     9    25    26    1
    10    25    22    1
    11    29    32    1
    12     8     4    1
    13    22    21    1
    14     4     5    1
    15     4     3    2
    16     5     6    1
    17     3     2    2
    18     6     1    1
    19     2     1   am
    20     2     7    2
    21    21    18    1
    22     1     9    1
    23    14     9    1
    24    14    13    1
    25    20    18    2
    26    17    16    1
    27    17    18    1
    28    16    13    1
    29    18    19    1
    30     9    10    1
    31    13    12    1
    32    10    12    1
    33    10    11    1
    34    12    15    1
