@<TRIPOS>MOLECULE
3q81_IM2_A_1.pdb
 20 20 0 0 0
SMALL
GASTEIGER

@<TRIPOS>ATOM
      1  C7        -3.3230   -6.2950   30.7680 C.2   254  IM2254      0.2115
      2  C2        -5.2720   -9.7460   31.5950 C.3   254  IM2254      0.0958
      3  C6        -2.9200   -7.2610   31.8790 C.3   254  IM2254      0.1175
      4  C5        -3.1310   -8.7460   31.4930 C.3   254  IM2254      0.1142
      5  C3        -5.3900   -8.6850   30.8800 C.2   254  IM2254      0.1428
      6  O7        -4.1140   -5.4140   31.0240 O.2   254  IM2254     -0.2882
      7  C61       -1.5840   -6.7710   32.4580 C.3   254  IM2254      0.1613
      8  O62       -0.7370   -5.9690   31.6370 O.3   254  IM2254     -0.2226
      9  C62       -0.8130   -7.8480   33.1940 C.3   254  IM2254      0.0360
     10  N4        -4.1930   -8.4770   30.5540 N.2   254  IM2254     -0.2688
     11  C31       -6.5440   -7.8390   30.4140 C.2   254  IM2254      0.4014
     12  O31       -6.6150   -7.7110   29.1850 O.co2 254  IM2254     -0.2392
     13  O32       -7.4120   -7.2450   31.1400 O.co2 254  IM2254     -0.2392
     14  S21       -6.3660  -10.9660   31.3860 S.3   254  IM2254     -0.1329
     15  C22       -5.8810  -12.5930   30.8990 C.3   254  IM2254      0.0812
     16  C23       -6.1790  -13.6050   32.0070 C.3   254  IM2254      0.1256
     17  N24       -5.8020  -14.9660   31.6520 N.pl3 254  IM2254     -0.2155
     18  C25       -6.2010  -15.5050   30.4940 C.2   254  IM2254      0.2043
     19  N26       -5.8800  -16.6870   30.1870 N.2   254  IM2254     -0.1271
     20  C1        -3.9790   -9.6790   32.3880 C.3   254  IM2254      0.0418
@<TRIPOS>BOND
     1    12    11   ar
     2    19    18    2
     3    11     5    1
     4    11    13   ar
     5    18    17    1
     6    10     5    2
     7    10     4    1
     8     1     6    2
     9     1     3    1
    10     5     2    1
    11    15    14    1
    12    15    16    1
    13    14     2    1
    14     4     3    1
    15     4    20    1
    16     2    20    1
    17     8     7    1
    18    17    16    1
    19     3     7    1
    20     7     9    1
