@<TRIPOS>MOLECULE
3q82_MER_A_1.pdb
 26 27 0 0 0
SMALL
GASTEIGER

@<TRIPOS>ATOM
      1  C1        -3.7230   -6.3830   30.6910 C.3   254  MER254      0.1865
      2  C2        -6.2480   -9.2640   32.2680 C.3   254  MER254      0.0957
      3  C3        -3.4930   -7.3320   31.8430 C.3   254  MER254      0.0858
      4  C4        -3.9960   -8.7750   31.5610 C.3   254  MER254      0.1093
      5  C5        -6.2840   -8.6190   31.1070 C.2   254  MER254      0.1428
      6  O6        -4.2860   -5.3650   30.9900 O.3   254  MER254     -0.2203
      7  C7        -2.0920   -7.0150   32.4260 C.3   254  MER254      0.1564
      8  O8        -1.2190   -6.4030   31.4850 O.3   254  MER254     -0.2230
      9  C9        -1.3650   -8.1320   33.1460 C.3   254  MER254      0.0356
     10  N10       -5.1120   -8.4990   30.6600 N.2   254  MER254     -0.2692
     11  C11       -7.4320   -8.0430   30.3800 C.2   254  MER254      0.4014
     12  O12       -8.1710   -7.1510   30.9010 O.co2 254  MER254     -0.2392
     13  O13       -7.6230   -8.4680   29.2180 O.co2 254  MER254     -0.2392
     14  S14       -7.5630   -9.7340   33.2200 S.3   254  MER254     -0.1341
     15  C15       -7.9520  -11.4630   33.2920 C.3   254  MER254      0.0673
     16  C16       -7.5480  -12.1860   32.0060 C.3   254  MER254      0.0389
     17  C17       -7.2790  -13.6240   32.4710 C.3   254  MER254      0.1498
     18  C18       -4.8240   -9.5030   32.6570 C.3   254  MER254      0.0384
     19  N19       -6.8040  -13.4700   33.8360 N.3   254  MER254     -0.2094
     20  C20       -4.7050   -9.0540   34.1180 C.3   254  MER254      0.0033
     21  C21       -7.2190  -12.2040   34.4230 C.3   254  MER254      0.1000
     22  C22       -6.3650  -14.3820   31.5350 C.2   254  MER254      0.2416
     23  N23       -6.8520  -15.4880   30.9260 N.am  254  MER254     -0.2749
     24  O24       -5.2300  -13.9580   31.3570 O.2   254  MER254     -0.2734
     25  C25       -6.0590  -16.2890   30.0020 C.3   254  MER254      0.1149
     26  C26       -8.2060  -16.0130   31.1150 C.3   254  MER254      0.1149
@<TRIPOS>BOND
     1    13    11   ar
     2    25    23    1
     3    11    12   ar
     4    11     5    1
     5    10     5    2
     6    10     4    1
     7     1     6    1
     8     1     3    1
     9    23    26    1
    10    23    22   am
    11     5     2    1
    12    24    22    2
    13     8     7    1
    14    22    17    1
    15     4     3    1
    16     4    18    1
    17     3     7    1
    18    16    17    1
    19    16    15    1
    20     2    18    1
    21     2    14    1
    22     7     9    1
    23    17    19    1
    24    18    20    1
    25    14    15    1
    26    15    21    1
    27    19    21    1
