@<TRIPOS>MOLECULE
3q85_GNP_A_1.pdb
 45 47 0 0 0
SMALL
GASTEIGER

@<TRIPOS>ATOM
      1  PG        -9.9320   -3.6040   12.6720 P.3   283  GNP283      0.4710
      2  O1G      -11.3920   -3.2620   12.4790 O.2   283  GNP283     -0.2347
      3  O2G       -9.6550   -4.3270   13.9530 O.3   283  GNP283     -0.1250
      4  O3G       -9.2430   -2.2770   12.5590 O.3   283  GNP283     -0.1250
      5  N3B       -9.4570   -4.5560   11.4720 N.3   283  GNP283     -0.1200
      6  PB        -7.9500   -4.9410   11.1010 P.3   283  GNP283      0.4495
      7  O1B       -7.2470   -3.7990   10.4940 O.2   283  GNP283     -0.2367
      8  O2B       -7.3140   -5.5280   12.2930 O.3   283  GNP283     -0.1263
      9  O3A       -7.9980   -6.0550   10.0410 O.3   283  GNP283     -0.2370
     10  PA        -7.8950   -7.5730   10.2730 P.3   283  GNP283      0.2213
     11  O1A       -8.9640   -7.9870   11.2090 O.3   283  GNP283     -0.4371
     12  O2A       -6.5090   -7.9690   10.5720 O.2   283  GNP283     -0.5170
     13  O5'       -8.2020   -8.2600    8.8860 O.3   283  GNP283     -0.3245
     14  C5'       -9.3920   -7.9320    8.1900 C.3   283  GNP283      0.0836
     15  C4'       -9.7040   -9.0030    7.1670 C.3   283  GNP283      0.1131
     16  O4'       -8.7160   -8.9790    6.0990 O.3   283  GNP283     -0.3474
     17  C3'       -9.6980  -10.4210    7.7220 C.3   283  GNP283      0.1133
     18  O3'      -10.7960  -11.1270    7.1800 O.3   283  GNP283     -0.3864
     19  C2'       -8.3500  -10.9740    7.2550 C.3   283  GNP283      0.1266
     20  O2'       -8.3280  -12.3790    7.0670 O.3   283  GNP283     -0.3849
     21  C1'       -8.1630  -10.2660    5.9230 C.3   283  GNP283      0.1617
     22  N9        -6.7600  -10.0610    5.5900 N.pl3 283  GNP283     -0.2241
     23  C8        -5.8240   -9.4420    6.3770 C.2   283  GNP283      0.1451
     24  N7        -4.6450   -9.3870    5.8410 N.2   283  GNP283     -0.3865
     25  C5        -4.8130  -10.0070    4.6070 C.2   283  GNP283      0.2296
     26  C6        -3.8800  -10.2410    3.5760 C.2   283  GNP283      0.2859
     27  O6        -2.6820   -9.9370    3.5500 O.2   283  GNP283     -0.2668
     28  N1        -4.4620  -10.8940    2.4900 N.am  283  GNP283     -0.2418
     29  C2        -5.7800  -11.2810    2.4170 C.2   283  GNP283      0.2395
     30  N2        -6.1550  -11.9030    1.2890 N.pl3 283  GNP283     -0.3206
     31  N3        -6.6680  -11.0650    3.3810 N.2   283  GNP283     -0.3551
     32  C4        -6.1130  -10.4230    4.4360 C.2   283  GNP283      0.2272
     33 HNB3      -10.1760   -4.9480   10.8980 H     283  GNP283      0.1458
     34 H5'2       -9.2790   -6.9580    7.6910 H     283  GNP283      0.0591
     35 H5'1      -10.2270   -7.8350    8.8990 H     283  GNP283      0.0591
     36  H4'      -10.7200   -8.7660    6.8170 H     283  GNP283      0.0647
     37  H3'       -9.8020  -10.4940    8.8150 H     283  GNP283      0.0647
     38 HO3'      -10.9230  -10.8630    6.2240 H     283  GNP283      0.2100
     39  H2'       -7.5620  -10.8000    8.0020 H     283  GNP283      0.0663
     40 HO2'       -9.0560  -12.6420    6.4340 H     283  GNP283      0.2101
     41  H1'       -8.6250  -10.8700    5.1280 H     283  GNP283      0.0841
     42  H8        -6.0520   -9.0300    7.3710 H     283  GNP283      0.1149
     43  HN1       -3.8770  -11.0960    1.7050 H     283  GNP283      0.1589
     44 HN21       -5.4890  -12.0610    0.5600 H     283  GNP283      0.1459
     45 HN22       -7.1010  -12.2080    1.1770 H     283  GNP283      0.1459
@<TRIPOS>BOND
     1    44    30    1
     2    45    30    1
     3    30    29    1
     4    43    28    1
     5    29    28    1
     6    29    31    2
     7    28    26   am
     8    31    32    2
     9    27    26    2
    10    26    25    1
    11    32    25    1
    12    32    22    1
    13    25    24    2
    14    41    21    1
    15    22    21    1
    16    22    23    1
    17    24    23    2
    18    21    16    1
    19    21    19    1
    20    16    15    1
    21    38    18    1
    22    23    42    1
    23    40    20    1
    24    36    15    1
    25    20    19    1
    26    15    17    1
    27    15    14    1
    28    18    17    1
    29    19    17    1
    30    19    39    1
    31    34    14    1
    32    17    37    1
    33    14    13    1
    34    14    35    1
    35    13    10    1
    36     9    10    1
    37     9     6    1
    38    10    12    2
    39    10    11    1
    40     7     6    2
    41    33     5    1
    42     6     5    1
    43     6     8    1
    44     5     1    1
    45     2     1    2
    46     4     1    1
    47     1     3    1
