@<TRIPOS>MOLECULE
3q86_GTP_A_1.pdb
 32 34 0 0 0
SMALL
GASTEIGER

@<TRIPOS>ATOM
      1  PG        17.9320  -27.1240  -22.7110 P.3   158  GTP158      0.5373
      2  O1G       16.8790  -26.9380  -21.6530 O.3   158  GTP158     -0.1143
      3  O2G       18.9640  -26.0060  -22.7860 O.2   158  GTP158     -0.2221
      4  O3G       18.5570  -28.4620  -22.3920 O.3   158  GTP158     -0.1143
      5  O3B       17.2030  -27.1440  -24.1390 O.3   158  GTP158     -0.2258
      6  PB        17.7570  -28.2920  -25.0980 P.3   158  GTP158      0.2277
      7  O1B       17.0350  -29.5820  -24.7660 O.3   158  GTP158     -0.4368
      8  O2B       19.2550  -28.3350  -24.8220 O.2   158  GTP158     -0.5168
      9  O3A       17.4870  -27.8430  -26.6120 O.3   158  GTP158     -0.2700
     10  PA        18.7820  -27.8410  -27.5550 P.3   158  GTP158      0.2189
     11  O1A       19.5390  -26.5720  -27.1970 O.3   158  GTP158     -0.4371
     12  O2A       18.4460  -27.8610  -29.0300 O.2   158  GTP158     -0.5170
     13  O5'       19.5530  -29.2010  -27.0940 O.3   158  GTP158     -0.3112
     14  C5'       18.9890  -30.4970  -26.9080 C.3   158  GTP158      0.1813
     15  C4'       18.7580  -30.9690  -25.4490 C.3   158  GTP158      0.1799
     16  O4'       18.0550  -32.1980  -25.4720 O.3   158  GTP158     -0.3326
     17  C3'       19.9790  -31.1850  -24.5450 C.3   158  GTP158      0.2158
     18  O3'       19.9900  -30.3210  -23.4290 O.3   158  GTP158     -0.2175
     19  C2'       19.8380  -32.5920  -24.0350 C.3   158  GTP158      0.2310
     20  O2'       19.3630  -32.4960  -22.7170 O.3   158  GTP158     -0.2158
     21  C1'       18.8340  -33.2590  -24.9660 C.3   158  GTP158      0.2293
     22  N9        19.5020  -33.9580  -26.1010 N.pl3 158  GTP158     -0.2354
     23  C8        19.8670  -33.4370  -27.3260 C.3   158  GTP158      0.2246
     24  N7        20.4540  -34.4000  -28.0830 N.2   158  GTP158     -0.2322
     25  C5        20.4630  -35.5610  -27.3570 C.2   158  GTP158      0.2182
     26  C6        20.9350  -36.8670  -27.6250 C.1   158  GTP158      0.2372
     27  O6        21.4680  -37.1750  -28.6990 O.2   158  GTP158     -0.2069
     28  N1        20.8060  -37.8450  -26.6560 N.2   158  GTP158     -0.2485
     29  C2        20.2030  -37.5380  -25.4500 C.1   158  GTP158      0.2531
     30  N2        20.0710  -38.4890  -24.5500 N.pl3 158  GTP158     -0.0226
     31  N3        19.7440  -36.2550  -25.1760 N.2   158  GTP158     -0.3074
     32  C4        19.8760  -35.2800  -26.1110 C.2   158  GTP158      0.2300
@<TRIPOS>BOND
     1    12    10    2
     2    27    26    2
     3    24    25    2
     4    24    23    1
     5    26    25    1
     6    26    28    2
     7    10    11    1
     8    10    13    1
     9    10     9    1
    10    25    32    1
    11    23    22    1
    12    13    14    1
    13    14    15    1
    14    28    29    2
    15     9     6    1
    16    32    22    1
    17    32    31    2
    18    22    21    1
    19    16    15    1
    20    16    21    1
    21    29    31    2
    22    29    30    1
    23    15    17    1
    24     6     8    2
    25     6     7    1
    26     6     5    1
    27    21    19    1
    28    17    19    1
    29    17    18    1
    30     5     1    1
    31    19    20    1
    32     3     1    2
    33     1     4    1
    34     1     2    1
