@<TRIPOS>MOLECULE
3q87_SAM_B_1.pdb
 27 29 0 0 0
SMALL
GASTEIGER

@<TRIPOS>ATOM
      1  N         33.9230   18.1800   14.7990 N.3   300  SAM300     -0.1159
      2  CA        35.0640   18.7700   14.0860 C.3   300  SAM300      0.2168
      3  C         34.5610   19.9160   13.1960 C.2   300  SAM300      0.3860
      4  O         35.3050   20.8230   12.8210 O.co2 300  SAM300     -0.2437
      5  OXT       33.3890   19.9650   12.8290 O.co2 300  SAM300     -0.2437
      6  CB        35.9430   17.7490   13.3120 C.2   300  SAM300      0.0097
      7  CG        35.4240   17.0240   12.0450 C.2   300  SAM300      0.0191
      8  SD        36.6290   16.0250   11.0640 S.3   300  SAM300     -0.1536
      9  CE        35.9980   16.1820    9.3800 C.3   300  SAM300      0.0636
     10  C5'       36.1630   14.3150   11.4340 C.3   300  SAM300      0.0847
     11  C4'       36.6420   13.9620   12.8330 C.3   300  SAM300      0.1625
     12  O4'       36.3280   12.6080   13.1150 O.3   300  SAM300     -0.3153
     13  C3'       38.1460   14.1190   13.0020 C.3   300  SAM300      0.2168
     14  O3'       38.3850   14.8370   14.1920 O.3   300  SAM300     -0.2175
     15  C2'       38.6650   12.7020   13.1420 C.3   300  SAM300      0.2569
     16  O2'       39.7750   12.5790   14.0010 O.3   300  SAM300     -0.2130
     17  C1'       37.4550   12.0050   13.7200 C.3   300  SAM300      0.3185
     18  N9        37.3870   10.5880   13.3960 N.pl3 300  SAM300     -0.1439
     19  C8        37.8550    9.9230   12.2860 C.3   300  SAM300      0.3377
     20  N7        37.5420    8.6160   12.4310 N.2   300  SAM300     -0.2095
     21  C5        36.8750    8.4610   13.6140 C.2   300  SAM300      0.2526
     22  C6        36.3180    7.3720   14.2600 C.2   300  SAM300      0.4393
     23  N6        36.3880    6.1680   13.7010 N.pl3 300  SAM300      0.2180
     24  N1        35.6880    7.5390   15.4820 N.2   300  SAM300      0.0021
     25  C2        35.5990    8.7870   16.0760 C.3   300  SAM300      0.5254
     26  N3        36.1540    9.8710   15.4240 N.2   300  SAM300     -0.0055
     27  C4        36.7760    9.7010   14.2280 C.2   300  SAM300      0.3518
@<TRIPOS>BOND
     1     9     8    1
     2     8    10    1
     3     8     7    1
     4    10    11    1
     5     7     6    2
     6    19    20    1
     7    19    18    1
     8    20    21    2
     9     4     3   ar
    10     5     3   ar
    11    11    13    1
    12    11    12    1
    13    13    15    1
    14    13    14    1
    15    12    17    1
    16    15    17    1
    17    15    16    1
    18     3     2    1
    19     6     2    1
    20    18    17    1
    21    18    27    1
    22    21    27    1
    23    21    22    1
    24    23    22    1
    25     2     1    1
    26    27    26    2
    27    22    24    2
    28    26    25    1
    29    24    25    1
