@<TRIPOS>MOLECULE
3q88_RI2_A_1.pdb
 18 18 0 0 0
SMALL
GASTEIGER

@<TRIPOS>ATOM
      1  P         43.9650   52.7430   18.5040 P.3   601  RI2601      0.5327
      2  C1        44.5860   57.3410   16.0050 C.3   601  RI2601      0.2781
      3  O1        44.2270   58.6380   15.6330 O.3   601  RI2601     -0.2416
      4  C2        45.0550   56.5010   14.8410 C.3   601  RI2601      0.2409
      5  O2        44.3210   56.8550   13.6570 O.3   601  RI2601     -0.2149
      6  C3        44.7290   55.1710   15.3540 C.3   601  RI2601      0.2167
      7  O3        44.7680   54.1620   14.3680 O.3   601  RI2601     -0.2175
      8  C4        43.3270   55.4580   15.8960 C.3   601  RI2601      0.1808
      9  O4        43.4200   56.6980   16.5810 O.3   601  RI2601     -0.3254
     10  C5        42.8610   54.3830   16.7930 C.3   601  RI2601      0.1859
     11  O5        43.8180   54.1970   17.8620 O.3   601  RI2601     -0.2675
     12  PA        44.5730   59.8700   16.6130 P.3   601  RI2601      0.5346
     13  O1A       46.0330   59.7450   16.9760 O.3   601  RI2601     -0.1145
     14  O1P       44.4820   51.8260   17.3510 O.2   601  RI2601     -0.2224
     15  O2A       44.3230   61.0870   15.6480 O.2   601  RI2601     -0.2223
     16  O2P       44.9770   52.8710   19.7030 O.3   601  RI2601     -0.1145
     17  O3A       43.5770   59.8550   17.7830 O.3   601  RI2601     -0.1145
     18  O3P       42.5470   52.3050   18.9930 O.3   601  RI2601     -0.1145
@<TRIPOS>BOND
     1     5     4    1
     2     7     6    1
     3     4     6    1
     4     4     2    1
     5     6     8    1
     6     3     2    1
     7     3    12    1
     8    15    12    2
     9     8     9    1
    10     8    10    1
    11     2     9    1
    12    12    13    1
    13    12    17    1
    14    10    11    1
    15    14     1    2
    16    11     1    1
    17     1    18    1
    18     1    16    1
