@<TRIPOS>MOLECULE
3q89_CDP_B_1.pdb
 25 26 0 0 0
SMALL
GASTEIGER

@<TRIPOS>ATOM
      1  O3B       48.6600  -23.3970    1.1880 O.3   158  CDP158     -0.1143
      2  PB        49.1050  -24.4130    0.3090 P.3   158  CDP158      0.5373
      3  O1B       48.3990  -25.6470    0.6100 O.3   158  CDP158     -0.1143
      4  O2B       49.0950  -24.0250   -1.0810 O.2   158  CDP158     -0.2221
      5  O3A       50.5950  -24.5810    0.7520 O.3   158  CDP158     -0.2261
      6  PA        51.9520  -24.7320   -0.0110 P.3   158  CDP158      0.2231
      7  O1A       51.5750  -25.5230   -1.1350 O.2   158  CDP158     -0.5169
      8  O2A       52.6560  -23.4840   -0.1220 O.3   158  CDP158     -0.4370
      9  O5'       52.6390  -25.7050    0.9370 O.3   158  CDP158     -0.3111
     10  C5'       51.9070  -26.8850    1.0360 C.3   158  CDP158      0.1813
     11  C4'       52.0160  -27.3460    2.4430 C.3   158  CDP158      0.1799
     12  O4'       53.2670  -26.8990    2.8250 O.3   158  CDP158     -0.3320
     13  C3'       51.1700  -26.4830    3.3140 C.3   158  CDP158      0.2158
     14  O3'       49.9460  -27.1250    3.4840 O.3   158  CDP158     -0.2175
     15  C2'       51.9000  -26.4700    4.6030 C.3   158  CDP158      0.2319
     16  O2'       51.4070  -27.5910    5.2760 O.3   158  CDP158     -0.2157
     17  C1'       53.2940  -26.8470    4.2200 C.3   158  CDP158      0.2400
     18  N1        54.2660  -25.8370    4.4320 N.am  158  CDP158     -0.1778
     19  C2        55.0360  -25.8660    5.5430 C.1   158  CDP158      0.2756
     20  O2        54.8340  -26.7450    6.3420 O.2   158  CDP158     -0.1925
     21  N3        55.9620  -24.9950    5.7750 N.2   158  CDP158     -0.3024
     22  C4        56.1230  -24.0840    4.8700 C.2   158  CDP158      0.2346
     23  N4        57.0650  -23.1750    5.0930 N.pl3 158  CDP158     -0.0921
     24  C5        55.3520  -24.0430    3.7390 C.2   158  CDP158      0.0687
     25  C6        54.3980  -24.9600    3.5140 C.2   158  CDP158      0.0836
@<TRIPOS>BOND
     1     7     6    2
     2     4     2    2
     3     8     6    1
     4     6     5    1
     5     6     9    1
     6     2     3    1
     7     2     5    1
     8     2     1    1
     9     9    10    1
    10    10    11    1
    11    11    12    1
    12    11    13    1
    13    12    17    1
    14    13    14    1
    15    13    15    1
    16    25    24    2
    17    25    18    1
    18    24    22    1
    19    17    18    1
    20    17    15    1
    21    18    19   am
    22    15    16    1
    23    22    23    1
    24    22    21    2
    25    19    21    2
    26    19    20    2
