@<TRIPOS>MOLECULE
3q8d_III_E_1.pdb
 27 28 0 0 0
SMALL
GASTEIGER

@<TRIPOS>ATOM
      1  N         31.4110   13.4070   68.4060 N.3     7  ILE7       -0.1231
      2  CA        31.9180   12.1680   67.7420 C.3     7  ILE7        0.1678
      3  C         32.1570   12.3200   66.2270 C.2     7  ILE7        0.2434
      4  O         32.8550   11.5000   65.6270 O.2     7  ILE7       -0.2733
      5  CB        31.0200   10.9360   68.0660 C.3     7  ILE7        0.0265
      6  CG1       31.8720    9.6810   68.2950 C.3     7  ILE7        0.0019
      7  CG2       29.9570   10.7150   66.9910 C.3     7  ILE7        0.0020
      8  CD1       31.1790    8.6090   69.1170 C.3     7  ILE7        0.0001
      9  N         31.6760   13.4260   65.6270 N.am    8  PRO8       -0.2718
     10  CA        31.9810   13.6520   64.2200 C.3     8  PRO8        0.1535
     11  C         32.8240   14.8990   64.0040 C.2     8  PRO8        0.2599
     12  O         34.0260   14.8120   63.7590 O.2     8  PRO8       -0.2715
     13  CB        30.5990   13.9000   63.6230 C.3     8  PRO8        0.0310
     14  CG        29.8800   14.6410   64.7090 C.3     8  PRO8        0.0237
     15  CD        30.4800   14.1870   66.0340 C.3     8  PRO8        0.0939
     16  N         32.1430   16.0280   63.8820 N.am    9  PHE9       -0.1938
     17  CA        32.5700   17.0450   62.9400 C.3     9  PHE9        0.2021
     18  C         33.3560   18.1480   63.6280 C.2     9  PHE9        0.3845
     19  O         32.9240   19.2940   63.7030 O.co2   9  PHE9       -0.2437
     20  CB        31.3800   17.6010   62.1500 C.3     9  PHE9        0.0596
     21  CG        30.4840   18.5070   62.9440 C.ar    9  PHE9       -0.0199
     22  CD1       30.8110   19.8390   63.1220 C.ar    9  PHE9       -0.0042
     23  CD2       29.2420   18.0660   63.3690 C.ar    9  PHE9       -0.0042
     24  CE1       29.9670   20.6910   63.8040 C.ar    9  PHE9       -0.0003
     25  CE2       28.3790   18.9170   64.0340 C.ar    9  PHE9       -0.0003
     26  CZ        28.7520   20.2300   64.2670 C.ar    9  PHE9       -0.0000
     27  OXT       34.4590   17.9050   64.1100 O.co2   9  PHE9       -0.2437
@<TRIPOS>BOND
     1    20    17    1
     2    20    21    1
     3    17    18    1
     4    17    16    1
     5    21    22   ar
     6    21    23   ar
     7    22    24   ar
     8    23    25   ar
     9    13    10    1
    10    13    14    1
    11    18    19   ar
    12    18    27   ar
    13    12    11    2
    14    24    26   ar
    15    16    11   am
    16    11    10    1
    17    25    26   ar
    18    10     9    1
    19    14    15    1
    20     9    15    1
    21     9     3   am
    22     4     3    2
    23     3     2    1
    24     7     5    1
    25     2     5    1
    26     2     1    1
    27     5     6    1
    28     6     8    1
