@<TRIPOS>MOLECULE
3q8h_AO9_A_1.pdb
 27 30 0 0 0
SMALL
GASTEIGER

@<TRIPOS>ATOM
      1  N1        10.6920  -27.1610  -24.5350 N.am  165  AO9165     -0.1778
      2  C2        11.0360  -26.9040  -25.8430 C.1   165  AO9165      0.2756
      3  O2        10.2600  -27.1390  -26.7480 O.2   165  AO9165     -0.1925
      4  N3        12.2360  -26.4210  -26.0890 N.2   165  AO9165     -0.3024
      5  C4        13.0950  -26.1120  -25.1480 C.2   165  AO9165      0.2346
      6  N4        14.2700  -25.5920  -25.4710 N.pl3 165  AO9165     -0.0921
      7  C5        12.7640  -26.3610  -23.8510 C.2   165  AO9165      0.0687
      8  C6        11.5310  -26.8870  -23.5870 C.2   165  AO9165      0.0836
      9  C1'        9.3860  -27.7050  -24.2080 C.3   165  AO9165      0.2400
     10  C2'        9.4830  -28.9540  -23.3940 C.3   165  AO9165      0.2319
     11  O2'        9.5410  -30.0190  -24.2760 O.3   165  AO9165     -0.2157
     12  C3'        8.1980  -28.9620  -22.6810 C.3   165  AO9165      0.2151
     13  O3'        7.3840  -29.5820  -23.6310 O.3   165  AO9165     -0.2176
     14  C30        6.4790  -27.6040  -19.4730 C.2   165  AO9165      0.2827
     15  O31        5.5470  -27.1500  -20.0290 O.2   165  AO9165     -0.2667
     16  C32        6.3720  -28.0510  -18.1080 C.ar  165  AO9165      0.1404
     17  N33        5.0490  -28.1900  -17.4690 N.ar  165  AO9165     -0.2793
     18  C34        5.3360  -28.5610  -16.2540 C.ar  165  AO9165      0.1796
     19  N35        6.6620  -28.7440  -16.0020 N.ar  165  AO9165     -0.2188
     20  C36        7.3070  -28.3970  -17.1470 C.ar  165  AO9165      0.1232
     21  S37        3.9810  -28.7860  -15.3700 S.2   165  AO9165     -0.0480
     22  C38        2.9000  -28.2730  -16.6470 C.ar  165  AO9165      0.0574
     23  C39        3.6970  -27.9800  -17.7810 C.ar  165  AO9165      0.0891
     24  C4'        7.8330  -27.4890  -22.5570 C.3   165  AO9165      0.1717
     25  O4'        8.7800  -26.8110  -23.3340 O.3   165  AO9165     -0.3327
     26  C5'        7.9070  -26.8340  -21.2020 C.3   165  AO9165      0.1477
     27  N5'        7.6440  -27.6660  -20.0620 N.am  165  AO9165     -0.1977
@<TRIPOS>BOND
     1     3     2    2
     2     4     2    2
     3     4     5    2
     4     2     1   am
     5     6     5    1
     6     5     7    1
     7     1     9    1
     8     1     8    1
     9    11    10    1
    10     9    10    1
    11     9    25    1
    12     7     8    2
    13    13    12    1
    14    10    12    1
    15    25    24    1
    16    12    24    1
    17    24    26    1
    18    26    27    1
    19    27    14   am
    20    15    14    2
    21    14    16    1
    22    16    17   ar
    23    16    20   ar
    24    23    17   ar
    25    23    22   ar
    26    17    18   ar
    27    20    19   ar
    28    22    21   ar
    29    18    19   ar
    30    18    21   ar
