@<TRIPOS>MOLECULE
3q8p_DCP_B_1.pdb
 28 29 0 0 0
SMALL
GASTEIGER

@<TRIPOS>ATOM
      1  N1         1.3830  -26.0430  -19.0050 N.am  421  DCP421     -0.2030
      2  C2         1.0920  -26.9360  -19.9960 C.1   421  DCP421      0.2712
      3  N3         0.2650  -28.0110  -19.7410 N.2   421  DCP421     -0.3072
      4  C4        -0.1400  -28.2900  -18.4550 C.2   421  DCP421      0.2123
      5  C5         0.2460  -27.4410  -17.4200 C.3   421  DCP421      0.1014
      6  C6         1.1400  -26.4070  -17.6990 C.3   421  DCP421      0.1151
      7  O2         1.5670  -26.7570  -21.1150 O.2   421  DCP421     -0.1929
      8  N4        -0.8870  -29.3700  -18.2080 N.pl3 421  DCP421     -0.0969
      9  C1'        2.2460  -24.9160  -19.4360 C.3   421  DCP421      0.2048
     10  C2'        1.5450  -23.5680  -19.3220 C.3   421  DCP421      0.0871
     11  C3'        2.5150  -22.7040  -18.5440 C.3   421  DCP421      0.1857
     12  C4'        3.5030  -23.6770  -17.9340 C.3   421  DCP421      0.1773
     13  O4'        3.4450  -24.8570  -18.6980 O.3   421  DCP421     -0.3342
     14  O3'        3.1880  -21.8300  -19.4200 O.3   421  DCP421     -0.2203
     15  C5'        3.1210  -24.0350  -16.5070 C.3   421  DCP421      0.1812
     16  O5'        2.3800  -22.9890  -15.9380 O.3   421  DCP421     -0.3112
     17  PA         3.0100  -22.0980  -14.7610 P.3   421  DCP421      0.2189
     18  O1A        4.5060  -21.9550  -14.8960 O.2   421  DCP421     -0.5170
     19  O2A        2.6470  -22.6960  -13.4250 O.3   421  DCP421     -0.4371
     20  O3A        2.3330  -20.6550  -14.9730 O.3   421  DCP421     -0.2700
     21  PB         2.8060  -19.5690  -16.0660 P.3   421  DCP421      0.2277
     22  O1B        2.1120  -19.7890  -17.3830 O.2   421  DCP421     -0.5168
     23  O2B        4.2970  -19.5030  -16.2540 O.3   421  DCP421     -0.4368
     24  O3B        2.2610  -18.2000  -15.4190 O.3   421  DCP421     -0.2258
     25  PG         2.6820  -17.7240  -13.9410 P.3   421  DCP421      0.5373
     26  O1G        1.6350  -18.2080  -12.9760 O.3   421  DCP421     -0.1143
     27  O2G        4.0230  -18.2900  -13.5610 O.3   421  DCP421     -0.1143
     28  O3G        2.7260  -16.2230  -13.9240 O.2   421  DCP421     -0.2221
@<TRIPOS>BOND
     1     7     2    2
     2     2     3    2
     3     2     1   am
     4     3     4    2
     5     9    10    1
     6     9     1    1
     7     9    13    1
     8    14    11    1
     9    10    11    1
    10     1     6    1
    11    13    12    1
    12    11    12    1
    13     4     8    1
    14     4     5    1
    15    12    15    1
    16     6     5    1
    17    22    21    2
    18    15    16    1
    19    23    21    1
    20    21    24    1
    21    21    20    1
    22    16    17    1
    23    24    25    1
    24    20    17    1
    25    18    17    2
    26    17    19    1
    27    25    28    2
    28    25    27    1
    29    25    26    1
