@<TRIPOS>MOLECULE
3q8q_DTP_T_1.pdb
 30 32 0 0 0
SMALL
GASTEIGER

@<TRIPOS>ATOM
      1  PG         2.2720  -17.5960  -13.8270 P.3     1  DTP1        0.5373
      2  O1G        3.6030  -18.2330  -13.4500 O.3     1  DTP1       -0.1143
      3  O2G        1.1160  -18.0560  -12.9680 O.3     1  DTP1       -0.1143
      4  O3G        2.3450  -16.1010  -13.9850 O.2     1  DTP1       -0.2221
      5  PB         2.4450  -19.4010  -16.1040 P.3     1  DTP1        0.2277
      6  O1B        1.3950  -19.7040  -17.1430 O.2     1  DTP1       -0.5168
      7  O2B        3.8680  -19.1900  -16.6260 O.3     1  DTP1       -0.4368
      8  O3B        1.8990  -18.0830  -15.3260 O.3     1  DTP1       -0.2258
      9  PA         3.1340  -21.9450  -14.8620 P.3     1  DTP1        0.2189
     10  O1A        2.2630  -22.9330  -14.1070 O.3     1  DTP1       -0.4371
     11  O2A        4.5550  -21.6940  -14.3350 O.2     1  DTP1       -0.5170
     12  O3A        2.3620  -20.5200  -14.9250 O.3     1  DTP1       -0.2700
     13  O5'        3.1970  -22.3970  -16.4330 O.3     1  DTP1       -0.3112
     14  C5'        2.4720  -23.5130  -16.9780 C.3     1  DTP1        0.1813
     15  C4'        2.5270  -23.6250  -18.5120 C.3     1  DTP1        0.1795
     16  O4'        2.7920  -24.9970  -18.8350 O.3     1  DTP1       -0.3155
     17  C3'        1.1970  -23.2720  -19.1870 C.3     1  DTP1        0.1883
     18  O3'        1.2830  -22.1440  -20.0640 O.3     1  DTP1       -0.2202
     19  C2'        0.7920  -24.4700  -20.0280 C.3     1  DTP1        0.1151
     20  C1'        1.7730  -25.5820  -19.6720 C.3     1  DTP1        0.2873
     21  N9         0.9810  -26.6940  -19.0270 N.pl3   1  DTP1       -0.1460
     22  C8         0.3730  -27.7010  -19.6980 C.3     1  DTP1        0.3377
     23  N7        -0.2860  -28.5520  -18.8600 N.2     1  DTP1       -0.2095
     24  C5        -0.1300  -28.1050  -17.5990 C.2     1  DTP1        0.2526
     25  C6        -0.5610  -28.5330  -16.2270 C.2     1  DTP1        0.4393
     26  N6        -1.3240  -29.6390  -16.0030 N.pl3   1  DTP1        0.2180
     27  N1        -0.1650  -27.7650  -15.1790 N.2     1  DTP1        0.0021
     28  C2         0.5880  -26.6630  -15.3610 C.3     1  DTP1        0.5254
     29  N3         1.0100  -26.2320  -16.5680 N.2     1  DTP1       -0.0055
     30  C4         0.7000  -26.8820  -17.7140 C.2     1  DTP1        0.3518
@<TRIPOS>BOND
     1    18    17    1
     2    19    20    1
     3    19    17    1
     4    22    21    1
     5    22    23    1
     6    20    21    1
     7    20    16    1
     8    17    15    1
     9    21    30    1
    10    23    24    2
    11    16    15    1
    12    15    14    1
    13    30    24    1
    14    30    29    2
    15    24    25    1
    16     6     5    2
    17    14    13    1
    18     7     5    1
    19    29    28    1
    20    13     9    1
    21    25    26    1
    22    25    27    2
    23     5     8    1
    24     5    12    1
    25    28    27    1
    26     8     1    1
    27    12     9    1
    28     9    11    2
    29     9    10    1
    30     4     1    2
    31     1     2    1
    32     1     3    1
