@<TRIPOS>MOLECULE
3q8r_DGT_B_1.pdb
 31 33 0 0 0
SMALL
GASTEIGER

@<TRIPOS>ATOM
      1  PG         1.6500  -17.5940  -14.3410 P.3   421  DGT421      0.5373
      2  O1G        2.3620  -16.3940  -13.9290 O.3   421  DGT421     -0.1143
      3  O2G        2.0610  -18.6340  -13.4030 O.3   421  DGT421     -0.1143
      4  O3G        0.2210  -17.2640  -14.3500 O.2   421  DGT421     -0.2221
      5  O3B        2.0250  -18.0700  -15.8020 O.3   421  DGT421     -0.2258
      6  PB         2.7540  -19.4290  -16.2430 P.3   421  DGT421      0.2277
      7  O1B        4.2250  -19.2590  -16.3040 O.3   421  DGT421     -0.4368
      8  O2B        2.2070  -19.8790  -17.5340 O.2   421  DGT421     -0.5168
      9  O3A        2.3520  -20.4680  -15.1130 O.3   421  DGT421     -0.2700
     10  PA         3.1290  -21.8110  -14.7300 P.3   421  DGT421      0.2189
     11  O1A        2.3050  -22.5910  -13.7810 O.3   421  DGT421     -0.4371
     12  O2A        4.4450  -21.4490  -14.1460 O.2   421  DGT421     -0.5170
     13  O5'        3.2080  -22.6830  -16.0390 O.3   421  DGT421     -0.3112
     14  C5'        2.2140  -22.6050  -17.0060 C.3   421  DGT421      0.1812
     15  C4'        2.8700  -22.7560  -18.3670 C.3   421  DGT421      0.1772
     16  O4'        2.9360  -24.1170  -18.7030 O.3   421  DGT421     -0.3347
     17  C3'        2.0830  -22.0380  -19.4560 C.3   421  DGT421      0.1857
     18  O3'        2.8770  -21.0670  -20.1070 O.3   421  DGT421     -0.2203
     19  C2'        1.6640  -23.1440  -20.3890 C.3   421  DGT421      0.0865
     20  C1'        2.4620  -24.3540  -19.9750 C.3   421  DGT421      0.1981
     21  N9         1.5630  -25.4910  -19.9070 N.pl3 421  DGT421     -0.2374
     22  C8         1.0430  -26.0870  -21.0370 C.3   421  DGT421      0.2245
     23  N7         0.2520  -27.1180  -20.6670 N.2   421  DGT421     -0.2322
     24  C5         0.2610  -27.2060  -19.3190 C.2   421  DGT421      0.2182
     25  C6        -0.3750  -28.0690  -18.4450 C.1   421  DGT421      0.2372
     26  O6        -1.1080  -28.9680  -18.8640 O.2   421  DGT421     -0.2069
     27  N1        -0.1830  -27.9270  -17.0790 N.2   421  DGT421     -0.2485
     28  C2         0.6300  -26.9170  -16.6000 C.1   421  DGT421      0.2531
     29  N2         0.8150  -26.7860  -15.2820 N.pl3 421  DGT421     -0.0226
     30  N3         1.2640  -26.0620  -17.4810 N.2   421  DGT421     -0.3074
     31  C4         1.0850  -26.1950  -18.8230 C.2   421  DGT421      0.2299
@<TRIPOS>BOND
     1    22    23    1
     2    22    21    1
     3    23    24    2
     4    19    20    1
     5    19    17    1
     6    18    17    1
     7    20    21    1
     8    20    16    1
     9    21    31    1
    10    17    15    1
    11    24    31    1
    12    24    25    1
    13    26    25    2
    14    31    30    2
    15    16    15    1
    16    25    27    2
    17    15    14    1
    18     8     6    2
    19    30    28    2
    20    27    28    2
    21    14    13    1
    22    28    29    1
    23     7     6    1
    24     6     5    1
    25     6     9    1
    26    13    10    1
    27     5     1    1
    28     9    10    1
    29    10    12    2
    30    10    11    1
    31     4     1    2
    32     1     2    1
    33     1     3    1
