@<TRIPOS>MOLECULE
3q8s_TTP_B_1.pdb
 29 30 0 0 0
SMALL
GASTEIGER

@<TRIPOS>ATOM
      1  PA         2.7200  -22.0420  -15.1610 P.3   423  TTP423      0.2189
      2  O1A        2.0180  -23.0330  -14.2740 O.3   423  TTP423     -0.4371
      3  O2A        4.0630  -21.6710  -14.5950 O.2   423  TTP423     -0.5170
      4  O3A        1.8080  -20.7310  -15.3630 O.3   423  TTP423     -0.2700
      5  PB         2.2460  -19.4450  -16.2240 P.3   423  TTP423      0.2277
      6  O1B        3.7350  -19.2720  -16.2930 O.3   423  TTP423     -0.4368
      7  O2B        1.6520  -19.5390  -17.6010 O.2   423  TTP423     -0.5168
      8  O3B        1.5600  -18.2140  -15.4560 O.3   423  TTP423     -0.2258
      9  PG         1.9870  -17.7380  -13.9830 P.3   423  TTP423      0.5373
     10  O1G        2.2310  -16.2570  -14.0100 O.2   423  TTP423     -0.2221
     11  O2G        3.2260  -18.4520  -13.5160 O.3   423  TTP423     -0.1143
     12  O3G        0.8510  -18.0520  -13.0550 O.3   423  TTP423     -0.1143
     13  O5'        2.8770  -22.6560  -16.6380 O.3   423  TTP423     -0.3112
     14  C5'        4.0310  -22.3800  -17.4300 C.3   423  TTP423      0.1812
     15  C4'        3.7010  -22.6140  -18.8980 C.3   423  TTP423      0.1773
     16  O4'        3.5290  -24.0080  -19.1630 O.3   423  TTP423     -0.3339
     17  C3'        2.4020  -21.9260  -19.2760 C.3   423  TTP423      0.1857
     18  O3'        2.6670  -20.7350  -20.0170 O.3   423  TTP423     -0.2203
     19  C2'        1.6370  -22.9270  -20.1200 C.3   423  TTP423      0.0874
     20  C1'        2.4110  -24.2340  -20.0240 C.3   423  TTP423      0.2090
     21  N1         1.5300  -25.2810  -19.4980 N.am  423  TTP423     -0.1794
     22  C2         0.9190  -26.1860  -20.3930 C.1   423  TTP423      0.2844
     23  O2         1.1480  -26.0820  -21.6150 O.2   423  TTP423     -0.1918
     24  N3         0.1030  -27.1560  -19.9630 N.2   423  TTP423     -0.2455
     25  C4        -0.1570  -27.2940  -18.6620 C.1   423  TTP423      0.2134
     26  O4        -0.9160  -28.1930  -18.2470 O.2   423  TTP423     -0.2088
     27  C5         0.4680  -26.3620  -17.7020 C.2   423  TTP423      0.0891
     28  C5M        0.1850  -26.5050  -16.2330 C.3   423  TTP423      0.0462
     29  C6         1.3060  -25.3680  -18.1830 C.2   423  TTP423      0.0877
@<TRIPOS>BOND
     1    23    22    2
     2    22    24    2
     3    22    21   am
     4    19    20    1
     5    19    17    1
     6    20    21    1
     7    20    16    1
     8    18    17    1
     9    24    25    2
    10    21    29    1
    11    17    15    1
    12    16    15    1
    13    15    14    1
    14    25    26    2
    15    25    27    1
    16    29    27    2
    17    27    28    1
    18     7     5    2
    19    14    13    1
    20    13     1    1
    21     6     5    1
    22     5     8    1
    23     5     4    1
    24     8     9    1
    25     4     1    1
    26     1     3    2
    27     1     2    1
    28    10     9    2
    29     9    11    1
    30     9    12    1
