@<TRIPOS>MOLECULE
3q8u_ADP_A_1.pdb
 27 29 0 0 0
SMALL
GASTEIGER

@<TRIPOS>ATOM
      1  PB       -12.4480   24.7650  -17.5500 P.3   158  ADP158      0.5373
      2  O1B      -11.8300   23.6330  -18.3360 O.3   158  ADP158     -0.1143
      3  O2B      -11.5940   25.2330  -16.4160 O.3   158  ADP158     -0.1143
      4  O3B      -13.0500   25.8480  -18.4160 O.2   158  ADP158     -0.2221
      5  PA       -14.8990   23.0750  -17.2620 P.3   158  ADP158      0.2231
      6  O1A      -15.2570   22.2340  -16.0580 O.3   158  ADP158     -0.4370
      7  O2A      -14.6080   22.4510  -18.5940 O.2   158  ADP158     -0.5169
      8  O3A      -13.7110   24.1030  -16.7580 O.3   158  ADP158     -0.2261
      9  O5'      -16.0720   24.1120  -17.6370 O.3   158  ADP158     -0.3111
     10  C5'      -15.9880   24.7680  -18.9100 C.3   158  ADP158      0.1813
     11  C4'      -16.6360   26.1430  -18.7830 C.3   158  ADP158      0.1821
     12  O4'      -17.9760   26.0120  -18.3330 O.3   158  ADP158     -0.3135
     13  C3'      -16.0310   26.9660  -17.6610 C.3   158  ADP158      0.2184
     14  O3'      -14.8380   27.5960  -18.0600 O.3   158  ADP158     -0.2174
     15  C2'      -17.1010   27.9620  -17.3290 C.3   158  ADP158      0.2570
     16  O2'      -17.0550   29.0970  -18.2080 O.3   158  ADP158     -0.2130
     17  C1'      -18.3660   27.1250  -17.5220 C.3   158  ADP158      0.3186
     18  N9       -18.7870   26.6380  -16.1810 N.pl3 158  ADP158     -0.1439
     19  C8       -18.2150   25.6260  -15.4970 C.3   158  ADP158      0.3377
     20  N7       -18.8070   25.4580  -14.2840 N.2   158  ADP158     -0.2095
     21  C5       -19.7870   26.3650  -14.1780 C.2   158  ADP158      0.2526
     22  C6       -20.8040   26.7300  -13.1460 C.2   158  ADP158      0.4393
     23  N6       -20.8750   26.0500  -11.9570 N.pl3 158  ADP158      0.2180
     24  N1       -21.6410   27.7580  -13.4200 N.2   158  ADP158      0.0021
     25  C2       -21.5550   28.4540  -14.5810 C.3   158  ADP158      0.5254
     26  N3       -20.6620   28.1550  -15.5590 N.2   158  ADP158     -0.0055
     27  C4       -19.7530   27.1580  -15.4160 C.2   158  ADP158      0.3518
@<TRIPOS>BOND
     1    10    11    1
     2    10     9    1
     3    11    12    1
     4    11    13    1
     5     7     5    2
     6     4     1    2
     7     2     1    1
     8    12    17    1
     9    16    15    1
    10    14    13    1
    11    13    15    1
    12     9     5    1
    13     1     8    1
    14     1     3    1
    15    17    15    1
    16    17    18    1
    17     5     8    1
    18     5     6    1
    19    18    19    1
    20    18    27    1
    21    26    27    2
    22    26    25    1
    23    19    20    1
    24    27    21    1
    25    25    24    1
    26    20    21    2
    27    21    22    1
    28    24    22    2
    29    22    23    1
