@<TRIPOS>MOLECULE
3q8v_UDP_A_1.pdb
 25 26 0 0 0
SMALL
GASTEIGER

@<TRIPOS>ATOM
      1  N1        25.0800   -5.2790   -7.8790 N.am  158  UDP158     -0.1766
      2  C2        25.2690   -6.2270   -8.8870 C.1   158  UDP158      0.2845
      3  N3        26.3980   -6.1470   -9.6970 N.2   158  UDP158     -0.2452
      4  C4        27.3410   -5.1450   -9.5060 C.1   158  UDP158      0.2182
      5  C5        27.1550   -4.2050   -8.4930 C.2   158  UDP158      0.1242
      6  C6        26.0440   -4.3130   -7.6640 C.2   158  UDP158      0.0929
      7  O2        24.4490   -7.1390   -9.0750 O.2   158  UDP158     -0.1918
      8  O4        28.3380   -5.0920  -10.2310 O.2   158  UDP158     -0.2085
      9  C1'       23.8780   -5.3700   -7.0040 C.3   158  UDP158      0.2401
     10  C2'       24.3020   -6.0520   -5.7140 C.3   158  UDP158      0.2319
     11  O2'       23.3960   -7.0820   -5.3830 O.3   158  UDP158     -0.2157
     12  C3'       24.3410   -4.9230   -4.6980 C.3   158  UDP158      0.2158
     13  C4'       23.3620   -3.8950   -5.2540 C.3   158  UDP158      0.1799
     14  O4'       23.3580   -4.0960   -6.6520 O.3   158  UDP158     -0.3320
     15  O3'       24.0370   -5.3310   -3.3800 O.3   158  UDP158     -0.2175
     16  C5'       23.7820   -2.4670   -4.9530 C.3   158  UDP158      0.1813
     17  O5'       25.1520   -2.3700   -5.2470 O.3   158  UDP158     -0.3111
     18  PA        26.1090   -1.3840   -4.4040 P.3   158  UDP158      0.2231
     19  O1A       25.7580   -0.0010   -4.8000 O.2   158  UDP158     -0.5169
     20  O2A       27.5400   -1.6090   -4.6920 O.3   158  UDP158     -0.4370
     21  O3A       25.7360   -1.5230   -2.8190 O.3   158  UDP158     -0.2261
     22  PB        26.0660   -2.6940   -1.7360 P.3   158  UDP158      0.5373
     23  O1B       25.3010   -3.9170   -2.1010 O.2   158  UDP158     -0.2221
     24  O2B       25.5630   -2.2680   -0.3990 O.3   158  UDP158     -0.1143
     25  O3B       27.5050   -3.0090   -1.5870 O.3   158  UDP158     -0.1143
@<TRIPOS>BOND
     1     8     4    2
     2     3     4    2
     3     3     2    2
     4     4     5    1
     5     7     2    2
     6     2     1   am
     7     5     6    2
     8     1     6    1
     9     1     9    1
    10     9    14    1
    11     9    10    1
    12    14    13    1
    13    10    11    1
    14    10    12    1
    15    13    16    1
    16    13    12    1
    17    17    16    1
    18    17    18    1
    19    19    18    2
    20    12    15    1
    21    20    18    1
    22    18    21    1
    23    21    22    1
    24    23    22    2
    25    22    25    1
    26    22    24    1
