@<TRIPOS>MOLECULE
3q8w_AZV_A_1.pdb
 38 40 0 0 0
SMALL
GASTEIGER

@<TRIPOS>ATOM
      1  C        -22.1810  -10.2100   40.2750 C.2     1  AZV1        0.3841
      2  N        -20.8740  -12.1070   41.1710 N.pl3   1  AZV1       -0.2279
      3  O        -22.2240   -8.9620   40.2700 O.co2   1  AZV1       -0.2438
      4  CA       -21.5510  -10.8480   41.5110 C.3     1  AZV1        0.1948
      5  CB       -22.5730  -11.0980   42.6210 C.3     1  AZV1        0.0310
      6  CAA      -15.1250  -11.6810   35.0770 C.3     1  AZV1        0.2028
      7  NAB      -16.2590  -11.4350   34.4250 N.am    1  AZV1       -0.2637
      8  CAC      -17.5050  -11.6890   34.8240 C.2     1  AZV1        0.2280
      9  OAD      -17.7240  -12.4900   35.7310 O.2     1  AZV1       -0.2748
     10  CAE      -18.6280  -11.1860   33.9160 C.3     1  AZV1        0.1046
     11  CAF      -19.9060  -12.0310   33.8760 C.3     1  AZV1        0.1053
     12  NAG      -20.8440  -11.4080   32.9310 N.3     1  AZV1       -0.1320
     13  CAH      -20.5790  -12.1100   35.2480 C.3     1  AZV1        0.0482
     14  CAI      -21.9690  -12.7390   35.1240 C.ar    1  AZV1        0.0091
     15  CAJ      -22.0590  -14.0200   34.5900 C.ar    1  AZV1        0.0300
     16  CAK      -23.2900  -14.6340   34.3930 C.ar    1  AZV1        0.1672
     17  FAL      -23.3380  -15.8780   33.8760 F       1  AZV1       -0.2018
     18  CAM      -24.4590  -13.9660   34.7310 C.ar    1  AZV1        0.1696
     19  FAN      -25.6650  -14.5340   34.5360 F       1  AZV1       -0.2017
     20  CAO      -24.3820  -12.6870   35.2680 C.ar    1  AZV1        0.0612
     21  CAP      -23.1460  -12.0840   35.4620 C.ar    1  AZV1        0.1386
     22  FAQ      -23.0960  -10.8530   36.0060 F       1  AZV1       -0.2044
     23  CAR      -14.9240  -12.1730   36.5130 C.2     1  AZV1        0.2705
     24  OAS      -13.9310  -12.8150   36.8410 O.2     1  AZV1       -0.2706
     25  NAT      -15.8270  -11.7100   37.3770 N.am    1  AZV1       -0.1984
     26  CAU      -15.7700  -12.0240   38.8090 C.3     1  AZV1        0.1416
     27  CAV      -17.8930  -10.8380   39.5560 C.ar    1  AZV1       -0.0012
     28  CAW      -17.1760  -12.0200   39.4120 C.ar    1  AZV1       -0.0005
     29  CAX      -17.7310  -13.2300   39.8030 C.ar    1  AZV1       -0.0012
     30  CAY      -19.0070  -13.2630   40.3560 C.ar    1  AZV1        0.0158
     31  CAZ      -19.7200  -12.0820   40.5140 C.ar    1  AZV1        0.0658
     32  CBA      -16.0230  -10.3980   33.4070 C.3     1  AZV1        0.1063
     33  CBB      -14.8130  -10.8620   32.5940 C.3     1  AZV1        0.0811
     34  SBC      -13.7880  -11.4950   33.9660 S.3     1  AZV1       -0.1103
     35  CBD      -19.1680  -10.8720   40.1100 C.ar    1  AZV1        0.0158
     36  CG1      -21.8550  -11.2770   43.9610 C.3     1  AZV1        0.0023
     37  CG2      -23.4440  -12.3160   42.3060 C.3     1  AZV1        0.0023
     38  OXT      -22.5700  -10.9710   39.3630 O.co2   1  AZV1       -0.2438
@<TRIPOS>BOND
     1    33    32    1
     2    33    34    1
     3    12    11    1
     4    32     7    1
     5    11    10    1
     6    11    13    1
     7    17    16    1
     8    10     8    1
     9    34     6    1
    10    16    15   ar
    11    16    18   ar
    12     7     8   am
    13     7     6    1
    14    19    18    1
    15    15    14   ar
    16    18    20   ar
    17     8     9    2
    18     6    23    1
    19    14    13    1
    20    14    21   ar
    21    20    21   ar
    22    21    22    1
    23    23    24    2
    24    23    25   am
    25    25    26    1
    26    26    28    1
    27    38     1   ar
    28    28    27   ar
    29    28    29   ar
    30    27    35   ar
    31    29    30   ar
    32    35    31   ar
    33     3     1   ar
    34     1     4    1
    35    30    31   ar
    36    31     2    1
    37     2     4    1
    38     4     5    1
    39    37     5    1
    40     5    36    1
