@<TRIPOS>MOLECULE
3q8x_UD1_D_1.pdb
 39 41 0 0 0
SMALL
GASTEIGER

@<TRIPOS>ATOM
      1  C1'      -15.1840   38.2420   57.5060 C.3   288  UD1288      0.2633
      2  C2'      -14.4200   37.2510   56.6250 C.3   288  UD1288      0.1845
      3  C3'      -12.9250   37.1590   56.9680 C.3   288  UD1288      0.2094
      4  C4'      -12.2880   38.5430   57.1470 C.3   288  UD1288      0.2136
      5  C5'      -13.1740   39.4370   58.0230 C.3   288  UD1288      0.1834
      6  C6'      -12.6510   40.8620   58.1490 C.3   288  UD1288      0.2142
      7  C7'      -15.6510   35.4310   55.6190 C.2   288  UD1288      0.2420
      8  C8'      -14.8000   34.4640   54.8400 C.3   288  UD1288      0.0964
      9  N2'      -15.0600   35.9490   56.6920 N.am  288  UD1288     -0.1992
     10  O1'      -15.3220   37.7340   58.8390 O.3   288  UD1288     -0.2864
     11  O3'      -12.2450   36.4470   55.9230 O.3   288  UD1288     -0.2183
     12  O4'      -10.9820   38.4060   57.7270 O.3   288  UD1288     -0.2176
     13  O5'      -14.5060   39.5020   57.4950 O.3   288  UD1288     -0.3260
     14  O6'      -13.2890   41.4560   59.2920 O.3   288  UD1288     -0.2176
     15  O7'      -16.7920   35.7370   55.2910 O.2   288  UD1288     -0.2733
     16  N1       -22.1070   34.6480   55.1840 N.am  288  UD1288     -0.1766
     17  C2       -23.3590   34.0250   54.9210 C.1   288  UD1288      0.2845
     18  N3       -23.6640   32.8610   55.5220 N.2   288  UD1288     -0.2452
     19  C4       -22.8070   32.2760   56.3760 C.1   288  UD1288      0.2182
     20  C5       -21.5730   32.8630   56.6600 C.2   288  UD1288      0.1242
     21  C6       -21.2490   34.0670   56.0440 C.2   288  UD1288      0.0929
     22  O2       -24.1880   34.5390   54.1270 O.2   288  UD1288     -0.1918
     23  O4       -23.1120   31.1920   56.9160 O.2   288  UD1288     -0.2085
     24  C1B      -21.7790   35.9370   54.5570 C.3   288  UD1288      0.2401
     25  C2B      -22.7440   36.9400   55.1910 C.3   288  UD1288      0.2319
     26  O2'      -23.0520   37.9980   54.2670 O.3   288  UD1288     -0.2157
     27  C3B      -21.9710   37.4070   56.4200 C.3   288  UD1288      0.2158
     28  C4B      -20.5460   37.4690   55.8800 C.3   288  UD1288      0.1799
     29  O4B      -20.4650   36.4000   54.9160 O.3   288  UD1288     -0.3320
     30  O3B      -22.4380   38.6320   56.9940 O.3   288  UD1288     -0.2175
     31  C5B      -19.4900   37.3120   56.9660 C.3   288  UD1288      0.1813
     32  O5B      -19.6230   36.0340   57.5910 O.3   288  UD1288     -0.3112
     33  PA       -18.8890   35.7310   58.9820 P.3   288  UD1288      0.2189
     34  O1A      -18.7970   34.2360   59.1210 O.2   288  UD1288     -0.5170
     35  O2A      -19.5790   36.5540   60.0510 O.3   288  UD1288     -0.4371
     36  O3A      -17.3970   36.3020   58.7410 O.3   288  UD1288     -0.2703
     37  PB       -16.7860   37.5920   59.5040 P.3   288  UD1288      0.2208
     38  O1B      -17.6070   38.8050   59.1100 O.2   288  UD1288     -0.5170
     39  O2B      -16.5930   37.2540   60.9660 O.3   288  UD1288     -0.4371
@<TRIPOS>BOND
     1    22    17    2
     2    26    25    1
     3    24    29    1
     4    24    16    1
     5    24    25    1
     6     8     7    1
     7    29    28    1
     8    17    16   am
     9    17    18    2
    10    16    21    1
    11    25    27    1
    12    15     7    2
    13    18    19    2
    14     7     9   am
    15    28    27    1
    16    28    31    1
    17    11     3    1
    18    21    20    2
    19    19    20    1
    20    19    23    2
    21    27    30    1
    22     2     9    1
    23     2     3    1
    24     2     1    1
    25    31    32    1
    26     3     4    1
    27     4    12    1
    28     4     5    1
    29    13     1    1
    30    13     5    1
    31     1    10    1
    32    32    33    1
    33     5     6    1
    34     6    14    1
    35    36    33    1
    36    36    37    1
    37    10    37    1
    38    33    34    2
    39    33    35    1
    40    38    37    2
    41    37    39    1
