@<TRIPOS>MOLECULE
3q8y_ADP_A_1.pdb
 27 29 0 0 0
SMALL
GASTEIGER

@<TRIPOS>ATOM
      1  PB        22.7190  -13.5610    1.5240 P.3   158  ADP158      0.5373
      2  O1B       22.2020  -12.2530    0.9740 O.2   158  ADP158     -0.2221
      3  O2B       23.5500  -13.3850    2.7790 O.3   158  ADP158     -0.1143
      4  O3B       21.7040  -14.6850    1.5840 O.3   158  ADP158     -0.1143
      5  PA        23.5710  -14.0620   -1.1710 P.3   158  ADP158      0.2231
      6  O1A       24.8400  -14.5350   -1.8480 O.2   158  ADP158     -0.5169
      7  O2A       22.9810  -12.7130   -1.5200 O.3   158  ADP158     -0.4370
      8  O3A       23.7800  -14.1150    0.4320 O.3   158  ADP158     -0.2261
      9  O5'       22.4490  -15.1780   -1.4220 O.3   158  ADP158     -0.3111
     10  C5'       21.1050  -14.7430   -1.5420 C.3   158  ADP158      0.1813
     11  C4'       20.7130  -14.5790   -2.9950 C.3   158  ADP158      0.1821
     12  O4'       21.7420  -13.9810   -3.7880 O.3   158  ADP158     -0.3135
     13  C3'       20.4850  -15.9320   -3.6230 C.3   158  ADP158      0.2184
     14  O3'       19.1940  -16.4200   -3.2670 O.3   158  ADP158     -0.2174
     15  C2'       20.6500  -15.6300   -5.0980 C.3   158  ADP158      0.2570
     16  O2'       19.4290  -15.1390   -5.6790 O.3   158  ADP158     -0.2130
     17  C1'       21.7340  -14.5540   -5.0990 C.3   158  ADP158      0.3186
     18  N9        23.0340  -15.2160   -5.4150 N.pl3 158  ADP158     -0.1439
     19  C8        23.9570  -15.6630   -4.5340 C.3   158  ADP158      0.3377
     20  N7        25.0190  -16.2260   -5.1650 N.2   158  ADP158     -0.2095
     21  C5        24.7750  -16.1500   -6.4890 C.2   158  ADP158      0.2526
     22  C6        25.4660  -16.5500   -7.7430 C.2   158  ADP158      0.4393
     23  N6        26.6690  -17.1640   -7.6860 N.pl3 158  ADP158      0.2180
     24  N1        24.8650  -16.2860   -8.9360 N.2   158  ADP158      0.0021
     25  C2        23.6640  -15.6770   -9.0140 C.3   158  ADP158      0.5254
     26  N3        22.9830  -15.2830   -7.9190 N.2   158  ADP158     -0.0055
     27  C4        23.4690  -15.4860   -6.6550 C.2   158  ADP158      0.3518
@<TRIPOS>BOND
     1    25    24    1
     2    25    26    1
     3    24    22    2
     4    26    27    2
     5    22    23    1
     6    22    21    1
     7    27    21    1
     8    27    18    1
     9    21    20    2
    10    16    15    1
    11    18    17    1
    12    18    19    1
    13    20    19    1
    14    17    15    1
    15    17    12    1
    16    15    13    1
    17    12    11    1
    18    13    14    1
    19    13    11    1
    20    11    10    1
    21     6     5    2
    22    10     9    1
    23     7     5    1
    24     9     5    1
    25     5     8    1
    26     8     1    1
    27     2     1    2
    28     1     4    1
    29     1     3    1
