@<TRIPOS>MOLECULE
3q92_XNB_A_1.pdb
 30 34 0 0 0
SMALL
GASTEIGER

@<TRIPOS>ATOM
      1  C01       -2.4940   -1.2620   13.8960 C.3   301  XNB301      0.0742
      2  S02       -1.7020   -0.7660   15.4560 S.3   301  XNB301     -0.1114
      3  C03       -2.5530    0.6420   16.1390 C.ar  301  XNB301      0.0405
      4  C04       -2.6350    1.8780   15.4880 C.ar  301  XNB301      0.0075
      5  C05       -3.3550    2.9310   16.0630 C.ar  301  XNB301      0.0006
      6  C06       -3.9840    2.7400   17.2910 C.ar  301  XNB301      0.0014
      7  C07       -3.9040    1.4930   17.9390 C.ar  301  XNB301      0.0171
      8  C08       -3.1960    0.3970   17.3820 C.ar  301  XNB301      0.0788
      9  N09       -3.0770   -0.9290   17.9860 N.pl3 301  XNB301     -0.1809
     10  C10       -4.0070   -1.4650   18.9240 C.2   301  XNB301      0.2373
     11  N11       -5.0250   -0.6370   19.3860 N.2   301  XNB301     -0.3093
     12  C12       -5.9910   -1.1520   20.3210 C.1   301  XNB301      0.2044
     13  N13       -5.9550   -2.4490   20.7840 N.2   301  XNB301     -0.3186
     14  C14       -4.9490   -3.2670   20.3290 C.2   301  XNB301      0.2509
     15  C15       -4.8620   -4.7170   20.8050 C.2   301  XNB301      0.3908
     16  N16       -3.8430   -5.4760   20.3270 N.2   301  XNB301     -0.0307
     17  C17       -2.9340   -4.9030   19.4220 C.3   301  XNB301      0.3922
     18  N18       -2.9300   -3.6680   18.9510 N.2   301  XNB301     -0.2117
     19  C19       -3.9550   -2.8410   19.4140 C.2   301  XNB301      0.1649
     20  N20       -5.8700   -5.0990   21.6990 N.pl3 301  XNB301     -0.0293
     21  C21       -5.9430   -6.4490   22.2750 C.3   301  XNB301      0.2511
     22  C22       -6.0710   -7.7640   21.5430 C.3   301  XNB301      0.0512
     23  C23       -7.2060   -8.0690   20.5550 C.3   301  XNB301      0.0044
     24  C24       -7.2170   -8.7060   21.9160 C.3   301  XNB301      0.0044
     25  N25       -7.0770   -0.3340   20.8260 N.pl3 301  XNB301     -0.2312
     26  C26       -7.2300    1.0830   20.3950 C.3   301  XNB301      0.1219
     27  C27       -8.6850    1.6130   20.3350 C.3   301  XNB301      0.1110
     28  N28       -9.4350    1.3120   21.5640 N.3   301  XNB301     -0.2144
     29  C29       -9.4990   -0.1300   21.8350 C.3   301  XNB301      0.1110
     30  C30       -8.1120   -0.8360   21.7950 C.3   301  XNB301      0.1219
@<TRIPOS>BOND
     1     1     2    1
     2     2     3    1
     3     4     5   ar
     4     4     3   ar
     5     5     6   ar
     6     3     8   ar
     7     6     7   ar
     8     8     7   ar
     9     8     9    1
    10     9    10    1
    11    10    11    2
    12    10    19    1
    13    18    19    2
    14    18    17    1
    15    11    12    2
    16    19    14    1
    17    17    16    1
    18    12    13    2
    19    12    25    1
    20    16    15    2
    21    14    13    2
    22    14    15    1
    23    27    26    1
    24    27    28    1
    25    26    25    1
    26    23    22    1
    27    23    24    1
    28    15    20    1
    29    25    30    1
    30    22    24    1
    31    22    21    1
    32    28    29    1
    33    20    21    1
    34    30    29    1
