@<TRIPOS>MOLECULE
3q95_ESL_A_1.pdb
 21 24 0 0 0
SMALL
GASTEIGER

@<TRIPOS>ATOM
      1  C2         6.4300    4.9350   -6.0160 C.3   700  ESL700      0.0220
      2  C3         5.7770    3.7030   -6.6690 C.3   700  ESL700      0.0044
      3  C4         4.2920    3.6790   -6.3260 C.3   700  ESL700      0.0029
      4  C5         4.0520    3.7320   -4.8100 C.3   700  ESL700      0.0308
      5  C6         4.5210    2.4400   -4.1660 C.3   700  ESL700      0.0026
      6  C7         2.6320    4.0220   -4.3710 C.3   700  ESL700      0.1819
      7  O1         1.7760    2.8750   -4.4650 O.3   700  ESL700     -0.2204
      8  C8         2.8170    4.4800   -2.9070 C.3   700  ESL700      0.1821
      9  O2         1.8620    5.4700   -2.5220 O.3   700  ESL700     -0.2204
     10  C9         4.2370    5.0220   -2.8010 C.3   700  ESL700      0.0356
     11  C10        4.7360    4.9550   -4.2420 C.3   700  ESL700      0.0054
     12  C12        6.2260    4.9390   -4.4960 C.3   700  ESL700      0.0045
     13  C14        6.8860    6.1580   -3.8710 C.3   700  ESL700      0.0050
     14  C15        8.3860    6.0280   -4.0130 C.3   700  ESL700      0.0261
     15  C16        8.7760    5.6530   -5.4150 C.ar  700  ESL700     -0.0230
     16  C17       10.1000    5.8410   -5.7570 C.ar  700  ESL700      0.0375
     17  C18       10.5430    5.5150   -7.0280 C.ar  700  ESL700      0.1954
     18  O3        11.8410    5.6940   -7.3280 O.3   700  ESL700     -0.2866
     19  C19        9.6650    4.9980   -7.9620 C.ar  700  ESL700      0.0417
     20  C20        8.3300    4.8050   -7.6220 C.ar  700  ESL700     -0.0013
     21  C21        7.8740    5.1130   -6.3470 C.ar  700  ESL700     -0.0263
@<TRIPOS>BOND
     1    19    20   ar
     2    19    17   ar
     3    20    21   ar
     4    18    17    1
     5    17    16   ar
     6     2     3    1
     7     2     1    1
     8    21     1    1
     9    21    15   ar
    10     3     4    1
    11     1    12    1
    12    16    15   ar
    13    15    14    1
    14     4     6    1
    15     4    11    1
    16     4     5    1
    17    12    11    1
    18    12    13    1
    19     7     6    1
    20     6     8    1
    21    11    10    1
    22    14    13    1
    23     8    10    1
    24     8     9    1
