@<TRIPOS>MOLECULE
3q96_0NF_A_1.pdb
 39 43 0 0 0
SMALL
GASTEIGER

@<TRIPOS>ATOM
      1  C4        21.2410   -8.7270  -11.2920 C.2     1  0NF1        0.0882
      2  C5        22.3680   -7.9840  -10.9290 C.2     1  0NF1        0.1531
      3  C6        23.5180   -8.6280  -10.4670 C.2     1  0NF1        0.0593
      4  C8        18.9570  -10.3740  -11.6970 C.1     1  0NF1        0.1897
      5  C10       19.9690   -8.0270  -11.8030 C.3     1  0NF1        0.0596
      6  C13       24.1770   -5.3590  -11.7430 C.ar    1  0NF1        0.0372
      7  C15       25.3410   -3.9740  -10.1300 C.ar    1  0NF1       -0.0259
      8  C17       23.4270   -5.2750   -9.4480 C.ar    1  0NF1        0.0329
      9  C20       25.6150   -2.7940   -7.4800 C.3     1  0NF1        0.0832
     10  C21       24.5490   -3.8890   -7.6780 C.3     1  0NF1        0.0353
     11  C22       26.0590   -2.7520   -6.0190 C.2     1  0NF1        0.2454
     12  C26       27.0820   -2.1650   -3.4050 C.ar    1  0NF1        0.0204
     13  C28       27.5500   -0.4540   -1.7680 C.ar    1  0NF1        0.0010
     14  N33       26.1000    2.2630   -1.3720 N.3     1  0NF1       -0.1299
     15  C32       27.2500    2.0160   -2.2500 C.3     1  0NF1        0.0958
     16  C38       28.5300    2.2890   -1.4540 C.3     1  0NF1        0.0236
     17  C39       27.1690    2.9480   -3.4640 C.3     1  0NF1        0.0236
     18  C29       27.1910    0.5350   -2.6780 C.ar    1  0NF1       -0.0053
     19  C30       26.7670    0.1520   -3.9540 C.ar    1  0NF1        0.0137
     20  C27       27.4980   -1.7920   -2.1370 C.ar    1  0NF1        0.0724
     21  C34       27.8880   -2.8710   -1.1490 C.3     1  0NF1        0.4186
     22  F37       28.2630   -2.2920   -0.0090 F       1  0NF1       -0.1659
     23  F35       26.8270   -3.6610   -0.9560 F       1  0NF1       -0.1659
     24  F36       28.9040   -3.5720   -1.6520 F       1  0NF1       -0.1659
     25  C25       26.7140   -1.1950   -4.3260 C.ar    1  0NF1        0.0730
     26  N24       26.3110   -1.5200   -5.5610 N.am    1  0NF1       -0.1792
     27  O23       26.1720   -3.7920   -5.3720 O.2     1  0NF1       -0.2730
     28  C19       26.8460   -3.0280   -8.3630 C.3     1  0NF1        0.0141
     29  C18       26.4830   -3.0000   -9.8480 C.3     1  0NF1        0.0265
     30  C16       24.4520   -4.3780   -9.1310 C.ar    1  0NF1       -0.0226
     31  C14       25.1990   -4.4670  -11.4270 C.ar    1  0NF1       -0.0014
     32  C12       23.2950   -5.7770  -10.7450 C.ar    1  0NF1        0.1450
     33  O11       22.2730   -6.6300  -11.0490 O.3     1  0NF1       -0.4531
     34  C1        23.5290  -10.0160  -10.3800 C.2     1  0NF1        0.1137
     35  N2        22.4580  -10.7110  -10.7270 N.2     1  0NF1       -0.1817
     36  C3        21.3360  -10.1170  -11.1740 C.1     1  0NF1        0.0988
     37  C9        18.7060   -8.8590  -11.5750 C.3     1  0NF1        0.1410
     38  O31       18.0150  -11.1220  -11.9670 O.2     1  0NF1       -0.2134
     39  N7        20.2430  -10.9230  -11.5090 N.2     1  0NF1       -0.2821
@<TRIPOS>BOND
     1    38     4    2
     2     5    37    1
     3     5     1    1
     4     6    31   ar
     5     6    32   ar
     6     4    37    1
     7     4    39    2
     8    39    36    2
     9    31     7   ar
    10     1    36    1
    11     1     2    2
    12    36    35    2
    13    33     2    1
    14    33    32    1
    15     2     3    1
    16    32     8   ar
    17    35    34    1
    18     3    34    2
    19     7    29    1
    20     7    30   ar
    21    29    28    1
    22     8    30   ar
    23    30    10    1
    24    28     9    1
    25    10     9    1
    26     9    11    1
    27    11    26   am
    28    11    27    2
    29    26    25    1
    30    25    19   ar
    31    25    12   ar
    32    19    18   ar
    33    17    15    1
    34    12    20   ar
    35    18    15    1
    36    18    13   ar
    37    15    16    1
    38    15    14    1
    39    20    13   ar
    40    20    21    1
    41    24    21    1
    42    21    23    1
    43    21    22    1
