@<TRIPOS>MOLECULE
3q97_SRR_A_1.pdb
 27 29 0 0 0
SMALL
GASTEIGER

@<TRIPOS>ATOM
      1  CAA       28.0430   -6.2060   13.6340 C.3   601  SRR601      0.0512
      2  CAB       22.1540   -5.2940    8.9540 C.3   601  SRR601      0.0050
      3  OAC       27.6490    1.2780    7.0030 O.3   601  SRR601     -0.2866
      4  OAD       20.6920   -2.0300    2.4590 O.3   601  SRR601     -0.2866
      5  CAE       25.4620    0.4710    6.7800 C.ar  601  SRR601      0.0420
      6  CAF       27.2780   -1.0900    7.1130 C.ar  601  SRR601      0.0420
      7  CAG       22.8800   -2.1140    3.3930 C.ar  601  SRR601      0.0420
      8  CAH       20.9620   -2.6010    4.7550 C.ar  601  SRR601      0.0420
      9  CAI       25.3520   -3.2540   11.0190 C.ar  601  SRR601      0.0369
     10  CAJ       26.3810   -5.1990   10.0560 C.ar  601  SRR601      0.0369
     11  CAK       24.5720   -0.5790    6.7370 C.ar  601  SRR601      0.0033
     12  CAL       26.3760   -2.1490    7.0690 C.ar  601  SRR601      0.0033
     13  CAM       23.7110   -2.3350    4.4850 C.ar  601  SRR601      0.0033
     14  CAN       21.8000   -2.8180    5.8450 C.ar  601  SRR601      0.0033
     15  CAO       24.5590   -3.1200    9.8860 C.ar  601  SRR601      0.0028
     16  CAP       25.5850   -5.0730    8.9260 C.ar  601  SRR601      0.0028
     17  CAQ       26.8220   -5.7170   12.8390 C.3   601  SRR601      0.2055
     18  CAR       22.7520   -4.9570    7.5870 C.3   601  SRR601      0.0264
     19  OAS       27.0590   -4.4340   12.2100 O.3   601  SRR601     -0.4755
     20  CAT       23.8640   -3.9160    7.7250 C.2   601  SRR601     -0.0222
     21  CAU       24.0390   -2.8820    6.8010 C.2   601  SRR601     -0.0040
     22  CAV       26.8130    0.2180    6.9690 C.ar  601  SRR601      0.1957
     23  CAW       21.5030   -2.2490    3.5280 C.ar  601  SRR601      0.1957
     24  CAX       26.2680   -4.2960   11.1040 C.ar  601  SRR601      0.1385
     25  CAY       24.6870   -4.0220    8.8340 C.ar  601  SRR601     -0.0038
     26  CAZ       25.0140   -1.8850    6.8940 C.ar  601  SRR601     -0.0001
     27  CBA       23.1800   -2.7090    5.7120 C.ar  601  SRR601     -0.0001
@<TRIPOS>BOND
     1     4    23    1
     2     7    23   ar
     3     7    13   ar
     4    23     8   ar
     5    13    27   ar
     6     8    14   ar
     7    27    14   ar
     8    27    21    1
     9    11     5   ar
    10    11    26   ar
    11     5    22   ar
    12    21    26    1
    13    21    20    2
    14    26    12   ar
    15    22     3    1
    16    22     6   ar
    17    12     6   ar
    18    18    20    1
    19    18     2    1
    20    20    25    1
    21    25    16   ar
    22    25    15   ar
    23    16    10   ar
    24    15     9   ar
    25    10    24   ar
    26     9    24   ar
    27    24    19    1
    28    19    17    1
    29    17     1    1
