@<TRIPOS>MOLECULE
3q97_Q97_A_1.pdb
 27 29 0 0 0
SMALL
GASTEIGER

@<TRIPOS>ATOM
      1  CAA       28.6740    2.9090    8.4880 C.3   600  Q97600      0.0512
      2  CAB       22.8300   -6.2380    8.1510 C.3   600  Q97600      0.0050
      3  OAC       26.1000   -3.3510   12.5860 O.3   600  Q97600     -0.2866
      4  OAD       21.0110   -2.2900    2.0720 O.3   600  Q97600     -0.2866
      5  CAE       24.5550   -2.6280   10.9620 C.ar  600  Q97600      0.0420
      6  CAF       25.8880   -4.5770   10.5210 C.ar  600  Q97600      0.0420
      7  CAG       21.0670   -2.7570    4.4130 C.ar  600  Q97600      0.0420
      8  CAH       23.0970   -2.2900    3.2120 C.ar  600  Q97600      0.0420
      9  CAI       25.6970    0.2830    7.1560 C.ar  600  Q97600      0.0369
     10  CAJ       27.2560   -1.5330    7.4500 C.ar  600  Q97600      0.0369
     11  CAK       23.9550   -2.7740    9.7300 C.ar  600  Q97600      0.0030
     12  CAL       25.2800   -4.7290    9.2750 C.ar  600  Q97600      0.0030
     13  CAM       21.8070   -2.9150    5.5800 C.ar  600  Q97600      0.0033
     14  CAN       23.8300   -2.4480    4.3820 C.ar  600  Q97600      0.0033
     15  CAO       24.6740   -0.6230    6.9340 C.ar  600  Q97600      0.0031
     16  CAP       26.2330   -2.4360    7.2310 C.ar  600  Q97600      0.0031
     17  CAQ       27.5220    2.0400    7.9470 C.3   600  Q97600      0.2055
     18  CAR       22.4740   -4.8790    7.5250 C.3   600  Q97600      0.0264
     19  OAS       27.9930    0.7090    7.6370 O.3   600  Q97600     -0.4755
     20  CAT       23.6170   -3.8710    7.6910 C.2   600  Q97600     -0.0222
     21  CAU       23.9170   -2.9030    6.7420 C.2   600  Q97600     -0.0040
     22  CAV       25.5200   -3.5280   11.3650 C.ar  600  Q97600      0.1957
     23  CAW       21.7160   -2.4460    3.2260 C.ar  600  Q97600      0.1957
     24  CAX       26.9860   -0.1710    7.4150 C.ar  600  Q97600      0.1386
     25  CAY       24.3140   -3.8100    8.8830 C.ar  600  Q97600     -0.0038
     26  CAZ       23.1900   -2.7810    5.5630 C.ar  600  Q97600     -0.0001
     27  CBA       24.9400   -1.9830    6.9780 C.ar  600  Q97600     -0.0001
@<TRIPOS>BOND
     1     4    23    1
     2     8    23   ar
     3     8    14   ar
     4    23     7   ar
     5    14    26   ar
     6     7    13   ar
     7    26    13   ar
     8    26    21    1
     9    21    27    1
    10    21    20    2
    11    15    27   ar
    12    15     9   ar
    13    27    16   ar
    14     9    24   ar
    15    16    10   ar
    16    24    10   ar
    17    24    19    1
    18    18    20    1
    19    18     2    1
    20    19    17    1
    21    20    25    1
    22    17     1    1
    23    25    12   ar
    24    25    11   ar
    25    12     6   ar
    26    11     5   ar
    27     6    22   ar
    28     5    22   ar
    29    22     3    1
