@<TRIPOS>MOLECULE
3q99_HEM_A_1.pdb
 43 50 0 0 0
SMALL
GASTEIGER

@<TRIPOS>ATOM
      1  CHA       13.1070    4.7120   26.3590 C.2   750  HEM750      0.0000
      2  CHB       17.0530    1.9170   26.0340 C.2   750  HEM750      0.0000
      3  CHC       17.9770    3.6230   21.5970 C.2   750  HEM750      0.0000
      4  CHD       14.8890    7.2710   22.6070 C.2   750  HEM750      0.0000
      5  C1A       14.0000    3.7000   26.5560 C.2   750  HEM750      0.0000
      6  C2A       13.8220    2.5890   27.4480 C.2   750  HEM750      0.0000
      7  C3A       14.8980    1.8130   27.3720 C.2   750  HEM750      0.0000
      8  C4A       15.8080    2.3890   26.4020 C.2   750  HEM750      0.0000
      9  CMA       15.1130    0.5110   28.1850 C.3   750  HEM750      0.0000
     10  CAA       12.5780    2.3560   28.3280 C.3   750  HEM750      0.0000
     11  CBA       11.5010    1.8190   27.3880 C.3   750  HEM750      0.0000
     12  CGA       10.3470    1.2290   28.1360 C.2   750  HEM750      0.0000
     13  O1A       10.4360    0.9460   29.3820 O.co2 750  HEM750      0.0000
     14  O2A        9.3280    1.0310   27.4390 O.co2 750  HEM750      0.0000
     15  C1B       17.6300    2.0630   24.7920 C.ar  750  HEM750      0.0000
     16  C2B       18.6910    1.2490   24.2240 C.ar  750  HEM750      0.0000
     17  C3B       18.9440    1.7120   23.0080 C.ar  750  HEM750      0.0000
     18  C4B       18.0730    2.8480   22.7500 C.ar  750  HEM750      0.0000
     19  CMB       19.3980    0.0350   24.8900 C.3   750  HEM750      0.0000
     20  CAB       19.9970    1.0540   22.0760 C.2   750  HEM750      0.0000
     21  CBB       20.5670    1.6780   21.0650 C.2   750  HEM750      0.0000
     22  C1C       17.1770    4.7690   21.4620 C.2   750  HEM750      0.0000
     23  C2C       17.1150    5.6330   20.2970 C.2   750  HEM750      0.0000
     24  C3C       16.2520    6.6330   20.5910 C.2   750  HEM750      0.0000
     25  C4C       15.7550    6.4410   21.9320 C.2   750  HEM750      0.0000
     26  CMC       17.9010    5.3170   18.9810 C.3   750  HEM750      0.0000
     27  CAC       15.7920    7.8300   19.7360 C.2   750  HEM750      0.0000
     28  CBC       16.5030    8.1530   18.6340 C.2   750  HEM750      0.0000
     29  C1D       14.0650    6.9110   23.6610 C.ar  750  HEM750      0.0000
     30  C2D       12.8890    7.6130   24.0990 C.ar  750  HEM750      0.0000
     31  C3D       12.3720    6.8060   25.2640 C.ar  750  HEM750      0.0000
     32  C4D       13.2420    5.6850   25.4030 C.ar  750  HEM750      0.0000
     33  CMD       12.2300    8.9130   23.5670 C.3   750  HEM750      0.0000
     34  CAD       11.0940    7.0840   26.0710 C.3   750  HEM750      0.0000
     35  CBD       10.0330    6.3460   25.2340 C.3   750  HEM750      0.0000
     36  CGD        8.7410    6.3520   26.0100 C.2   750  HEM750      0.0000
     37  O1D        8.4770    7.2960   26.8260 O.co2 750  HEM750      0.0000
     38  O2D        8.0130    5.3590   25.8490 O.co2 750  HEM750      0.0000
     39  NA        15.2280    3.5500   25.9330 N.2   750  HEM750      0.0000
     40  NB        17.3060    3.0530   23.8800 N.ar  750  HEM750      0.0000
     41  NC        16.3400    5.3150   22.4280 N.2   750  HEM750      0.0000
     42  ND        14.2490    5.7970   24.4590 N.ar  750  HEM750      0.0000
     43 FE         15.8080    4.4620   24.2110 Fe    750  HEM750      0.0000
@<TRIPOS>BOND
     1    28    27    2
     2    26    23    1
     3    27    24    1
     4    23    24    2
     5    23    22    1
     6    24    25    1
     7    21    20    2
     8    22     3    2
     9    22    41    1
    10     3    18    1
    11    25    41    2
    12    25     4    1
    13    20    17    1
    14    41    43    1
    15     4    29    2
    16    18    17   ar
    17    18    40   ar
    18    17    16   ar
    19    33    30    1
    20    29    30   ar
    21    29    42   ar
    22    40    43    1
    23    40    15   ar
    24    30    31   ar
    25    43    42    1
    26    43    39    1
    27    16    15   ar
    28    16    19    1
    29    42    32   ar
    30    15     2    1
    31    35    36    1
    32    35    34    1
    33    31    32   ar
    34    31    34    1
    35    32     1    2
    36    38    36   ar
    37    39     8    1
    38    39     5    2
    39    36    37   ar
    40     2     8    2
    41     1     5    1
    42     8     7    1
    43     5     6    1
    44     7     6    2
    45     7     9    1
    46    11    12    1
    47    11    10    1
    48    14    12   ar
    49     6    10    1
    50    12    13   ar
