@<TRIPOS>MOLECULE
3q99_H4B_A_1.pdb
 17 18 0 0 0
SMALL
GASTEIGER

@<TRIPOS>ATOM
      1  N1        10.0160    2.5100   33.6630 N.2   760  H4B760     -0.2683
      2  C2        10.1340    2.1470   32.3610 C.1   760  H4B760      0.2608
      3  N2        11.3690    2.0380   31.7830 N.pl3 760  H4B760     -0.0220
      4  N3         9.0290    1.9150   31.6210 N.2   760  H4B760     -0.2474
      5  C4         7.7910    2.0190   32.1590 C.1   760  H4B760      0.2441
      6  O4         6.8060    1.7700   31.4220 O.2   760  H4B760     -0.2063
      7  C4A        7.6470    2.4080   33.4930 C.2   760  H4B760      0.2463
      8  C8A        8.8090    2.6610   34.2430 C.1   760  H4B760      0.1270
      9  N5         6.4220    2.5740   34.0780 N.2   760  H4B760     -0.2460
     10  N8         8.7600    3.0290   35.5600 N.2   760  H4B760     -0.2054
     11  C6         6.3590    3.4890   35.2310 C.3   760  H4B760      0.1627
     12  C7         7.4760    3.1990   36.2560 C.3   760  H4B760      0.1643
     13  C9         4.9640    3.5160   35.8670 C.3   760  H4B760      0.2063
     14  O9         4.6940    2.1950   36.3270 O.3   760  H4B760     -0.2183
     15  C10        4.8320    4.4790   37.0460 C.3   760  H4B760      0.1842
     16  C11        3.3690    4.7170   37.4380 C.3   760  H4B760      0.0383
     17  O10        5.4270    5.7330   36.7230 O.3   760  H4B760     -0.2204
@<TRIPOS>BOND
     1     6     5    2
     2     4     5    2
     3     4     2    2
     4     3     2    1
     5     5     7    1
     6     2     1    2
     7     7     9    2
     8     7     8    1
     9     1     8    2
    10     9    11    1
    11     8    10    2
    12    11    13    1
    13    11    12    1
    14    10    12    1
    15    13    14    1
    16    13    15    1
    17    17    15    1
    18    15    16    1
