@<TRIPOS>MOLECULE
3q99_JM8_A_1.pdb
 16 15 0 0 0
SMALL
GASTEIGER

@<TRIPOS>ATOM
      1  C          8.8200   -3.2940   24.5630 C.2   800  JM8800      0.3819
      2  N          9.3600   -1.3810   26.0100 N.3   800  JM8800     -0.1208
      3  C1        13.9860   -0.1680   23.1580 C.2   800  JM8800      0.3904
      4  C2        14.3100    0.5050   22.0340 C.3   800  JM8800      0.1375
      5  C3        15.1940    1.7040   22.1940 C.3   800  JM8800      0.0705
      6  S4        14.2200    3.0250   22.8430 S.3   800  JM8800     -0.1396
      7  C5        13.5370    3.8310   21.4130 C.3   800  JM8800      0.0576
      8  C6        12.9260    2.8540   20.4130 C.3   800  JM8800      0.0125
      9  CA         8.9650   -1.7760   24.6820 C.3   800  JM8800      0.1945
     10  CB         9.9930   -1.2380   23.6600 C.3   800  JM8800      0.0350
     11  CD        11.5840    0.5910   23.0770 C.3   800  JM8800      0.2510
     12  NE        12.7210   -0.1750   23.6010 N.pl3 800  JM8800     -0.0315
     13  CG        10.3680    0.2200   23.9110 C.3   800  JM8800      0.0574
     14  NH        14.9670   -0.7970   23.7870 N.2   800  JM8800      0.1918
     15  OA1        8.3500   -3.7830   23.5150 O.co2 800  JM8800     -0.2441
     16  OA2        9.1920   -4.0330   25.5060 O.co2 800  JM8800     -0.2441
@<TRIPOS>BOND
     1     8     7    1
     2     7     6    1
     3     4     5    1
     4     4     3    1
     5     5     6    1
     6    11    12    1
     7    11    13    1
     8     3    12    1
     9     3    14    2
    10    15     1   ar
    11    10    13    1
    12    10     9    1
    13     1     9    1
    14     1    16   ar
    15     9     2    1
