@<TRIPOS>MOLECULE
3q9a_JM7_A_1.pdb
 15 14 0 0 0
SMALL
GASTEIGER

@<TRIPOS>ATOM
      1  C          8.9160   -3.2340   24.5570 C.2   800  JM7800      0.3819
      2  N          9.6450   -1.4580   26.1100 N.3   800  JM7800     -0.1208
      3  C1        14.0000    0.1100   23.4520 C.2   800  JM7800      0.4004
      4  C2        14.4240    1.0420   22.3070 C.3   800  JM7800      0.1834
      5  S3        14.0450    2.7380   22.6800 S.3   800  JM7800     -0.1274
      6  C4        13.8840    3.4520   21.0640 C.3   800  JM7800      0.0582
      7  C5        12.8060    2.7770   20.2340 C.3   800  JM7800      0.0126
      8  CA         9.1670   -1.7490   24.7630 C.3   800  JM7800      0.1945
      9  CB        10.1330   -1.1840   23.7110 C.3   800  JM7800      0.0350
     10  CD        11.6120    0.8310   23.3400 C.3   800  JM7800      0.2511
     11  NE        12.7010    0.0110   23.8760 N.pl3 800  JM7800     -0.0308
     12  CG        10.2950    0.3260   23.9300 C.3   800  JM7800      0.0574
     13  NH        14.9330   -0.5800   23.9850 N.2   800  JM7800      0.1927
     14  OA1        8.4520   -3.6030   23.4460 O.co2 800  JM7800     -0.2441
     15  OA2        9.1720   -4.0320   25.5010 O.co2 800  JM7800     -0.2441
@<TRIPOS>BOND
     1     7     6    1
     2     6     5    1
     3     4     5    1
     4     4     3    1
     5    10    11    1
     6    10    12    1
     7    14     1   ar
     8     3    11    1
     9     3    13    2
    10     9    12    1
    11     9     8    1
    12     1     8    1
    13     1    15   ar
    14     8     2    1
