@<TRIPOS>MOLECULE
3q9a_HEM_A_1.pdb
 43 50 0 0 0
SMALL
GASTEIGER

@<TRIPOS>ATOM
      1  CHA       12.9400    4.6220   26.1760 C.2   750  HEM750      0.0000
      2  CHB       16.8650    1.7840   25.9850 C.2   750  HEM750      0.0000
      3  CHC       17.7510    3.4350   21.5210 C.2   750  HEM750      0.0000
      4  CHD       14.9270    7.2280   22.6020 C.2   750  HEM750      0.0000
      5  C1A       13.8390    3.6310   26.4410 C.2   750  HEM750      0.0000
      6  C2A       13.6880    2.6490   27.4680 C.2   750  HEM750      0.0000
      7  C3A       14.7580    1.8420   27.4240 C.2   750  HEM750      0.0000
      8  C4A       15.6460    2.3030   26.3590 C.2   750  HEM750      0.0000
      9  CMA       15.0080    0.6300   28.3420 C.3   750  HEM750      0.0000
     10  CAA       12.4470    2.5400   28.3700 C.3   750  HEM750      0.0000
     11  CBA       11.4270    1.8180   27.4710 C.3   750  HEM750      0.0000
     12  CGA       10.2540    1.3050   28.2540 C.2   750  HEM750      0.0000
     13  O1A       10.3710    1.0890   29.4920 O.co2 750  HEM750      0.0000
     14  O2A        9.1820    1.1330   27.6340 O.co2 750  HEM750      0.0000
     15  C1B       17.4500    1.9320   24.7520 C.ar  750  HEM750      0.0000
     16  C2B       18.6030    1.2150   24.2150 C.ar  750  HEM750      0.0000
     17  C3B       18.8390    1.6640   22.9920 C.ar  750  HEM750      0.0000
     18  C4B       17.8640    2.7080   22.6920 C.ar  750  HEM750      0.0000
     19  CMB       19.4260    0.0880   24.8710 C.3   750  HEM750      0.0000
     20  CAB       19.9680    1.1000   22.1010 C.2   750  HEM750      0.0000
     21  CBB       20.4400    1.7140   21.0170 C.2   750  HEM750      0.0000
     22  C1C       17.0370    4.6210   21.3960 C.2   750  HEM750      0.0000
     23  C2C       16.9930    5.4810   20.2300 C.2   750  HEM750      0.0000
     24  C3C       16.2090    6.5280   20.5610 C.2   750  HEM750      0.0000
     25  C4C       15.7330    6.3570   21.9070 C.2   750  HEM750      0.0000
     26  CMC       17.7140    5.1660   18.8850 C.3   750  HEM750      0.0000
     27  CAC       15.8010    7.7290   19.6970 C.2   750  HEM750      0.0000
     28  CBC       16.3460    7.8610   18.4770 C.2   750  HEM750      0.0000
     29  C1D       14.0650    6.8640   23.6040 C.ar  750  HEM750      0.0000
     30  C2D       12.8960    7.5900   24.0120 C.ar  750  HEM750      0.0000
     31  C3D       12.3000    6.7630   25.1300 C.ar  750  HEM750      0.0000
     32  C4D       13.1420    5.6200   25.2590 C.ar  750  HEM750      0.0000
     33  CMD       12.3520    8.9250   23.4700 C.3   750  HEM750      0.0000
     34  CAD       11.0120    7.0340   25.9230 C.3   750  HEM750      0.0000
     35  CBD        9.9440    6.2310   25.1690 C.3   750  HEM750      0.0000
     36  CGD        8.7110    6.1490   25.9980 C.2   750  HEM750      0.0000
     37  O1D        8.4630    7.0940   26.8070 O.co2 750  HEM750      0.0000
     38  O2D        7.9900    5.1370   25.8530 O.co2 750  HEM750      0.0000
     39  NA        15.0480    3.4090   25.8040 N.2   750  HEM750      0.0000
     40  NB        17.0530    2.8590   23.8010 N.ar  750  HEM750      0.0000
     41  NC        16.2630    5.2020   22.3830 N.2   750  HEM750      0.0000
     42  ND        14.1910    5.7270   24.3740 N.ar  750  HEM750      0.0000
     43 FE         15.6890    4.3100   24.1220 Fe    750  HEM750      0.0000
@<TRIPOS>BOND
     1    28    27    2
     2    26    23    1
     3    27    24    1
     4    23    24    2
     5    23    22    1
     6    24    25    1
     7    21    20    2
     8    22     3    2
     9    22    41    1
    10     3    18    1
    11    25    41    2
    12    25     4    1
    13    20    17    1
    14    41    43    1
    15     4    29    2
    16    18    17   ar
    17    18    40   ar
    18    17    16   ar
    19    33    30    1
    20    29    30   ar
    21    29    42   ar
    22    40    43    1
    23    40    15   ar
    24    30    31   ar
    25    43    42    1
    26    43    39    1
    27    16    15   ar
    28    16    19    1
    29    42    32   ar
    30    15     2    1
    31    31    32   ar
    32    31    34    1
    33    35    34    1
    34    35    36    1
    35    32     1    2
    36    39     8    1
    37    39     5    2
    38    38    36   ar
    39     2     8    2
    40    36    37   ar
    41     1     5    1
    42     8     7    1
    43     5     6    1
    44     7     6    2
    45     7     9    1
    46     6    10    1
    47    11    12    1
    48    11    10    1
    49    14    12   ar
    50    12    13   ar
