@<TRIPOS>MOLECULE
3q9a_H4B_A_1.pdb
 17 18 0 0 0
SMALL
GASTEIGER

@<TRIPOS>ATOM
      1  N1         9.8930    2.4850   33.7520 N.2   760  H4B760     -0.2683
      2  C2        10.0110    2.1270   32.4600 C.1   760  H4B760      0.2608
      3  N2        11.2480    1.9920   31.9100 N.pl3 760  H4B760     -0.0220
      4  N3         8.9150    1.9030   31.7020 N.2   760  H4B760     -0.2474
      5  C4         7.6690    1.9880   32.1980 C.1   760  H4B760      0.2441
      6  O4         6.6790    1.7450   31.4460 O.2   760  H4B760     -0.2063
      7  C4A        7.5320    2.3840   33.5260 C.2   760  H4B760      0.2463
      8  C8A        8.6740    2.6300   34.2930 C.1   760  H4B760      0.1270
      9  N5         6.3300    2.5390   34.0950 N.2   760  H4B760     -0.2460
     10  N8         8.5920    2.9910   35.5950 N.2   760  H4B760     -0.2054
     11  C6         6.2580    3.4790   35.2130 C.3   760  H4B760      0.1627
     12  C7         7.3090    3.1410   36.2660 C.3   760  H4B760      0.1643
     13  C9         4.8820    3.4840   35.8680 C.3   760  H4B760      0.2063
     14  O9         4.6170    2.1540   36.3230 O.3   760  H4B760     -0.2183
     15  C10        4.8680    4.4200   37.0610 C.3   760  H4B760      0.1842
     16  C11        3.4570    4.6440   37.6020 C.3   760  H4B760      0.0383
     17  O10        5.4010    5.6690   36.6420 O.3   760  H4B760     -0.2204
@<TRIPOS>BOND
     1     6     5    2
     2     4     5    2
     3     4     2    2
     4     3     2    1
     5     5     7    1
     6     2     1    2
     7     7     9    2
     8     7     8    1
     9     1     8    2
    10     9    11    1
    11     8    10    2
    12    11    13    1
    13    11    12    1
    14    10    12    1
    15    13    14    1
    16    13    15    1
    17    17    15    1
    18    15    16    1
