@<TRIPOS>MOLECULE
3q9b_B3N_A_1.pdb
 22 22 0 0 0
SMALL
GASTEIGER

@<TRIPOS>ATOM
      1  O23       63.5190   35.0220   22.5320 O.2   401  B3N401     -0.2684
      2  C13       63.5470   35.7710   21.5500 C.2   401  B3N401      0.2648
      3  C14       62.2590   36.4510   21.1010 C.ar  401  B3N401      0.0551
      4  C15       62.2420   37.3130   19.9670 C.ar  401  B3N401      0.0058
      5  C16       61.0200   37.9250   19.5550 C.ar  401  B3N401      0.0147
      6  C17       59.7860   37.6950   20.2610 C.ar  401  B3N401      0.0479
      7  N20       58.5410   38.3060   19.8380 N.pl3 401  B3N401     -0.3041
      8  C22       58.4430   39.1970   18.6740 C.3   401  B3N401      0.1122
      9  C21       57.2980   38.0520   20.5690 C.3   401  B3N401      0.1122
     10  C18       59.8160   36.8280   21.4090 C.ar  401  B3N401      0.0147
     11  C19       61.0390   36.2180   21.8200 C.ar  401  B3N401      0.0058
     12  N12       64.6710   35.9850   20.8640 N.am  401  B3N401     -0.2017
     13  C10       65.9710   35.3950   21.1550 C.3   401  B3N401      0.1155
     14  C9        67.1370   36.3600   20.9720 C.3   401  B3N401      0.0234
     15  C8        67.6130   36.8430   22.3330 C.3   401  B3N401      0.0018
     16  C7        67.1650   38.2630   22.6270 C.3   401  B3N401      0.0006
     17  C6        68.2250   39.0380   23.3750 C.3   401  B3N401      0.0097
     18  C5        67.8880   40.5240   23.4360 C.3   401  B3N401      0.0904
     19  C1        67.7740   40.9400   24.8880 C.2   401  B3N401      0.2838
     20  O2        66.7430   41.4150   25.3040 O.2   401  B3N401     -0.2698
     21  N3        68.8420   40.7400   25.6720 N.am  401  B3N401      0.0385
     22  O4        68.8130   41.0310   26.8690 O.2   401  B3N401     -0.1531
@<TRIPOS>BOND
     1     8     7    1
     2     5     4   ar
     3     5     6   ar
     4     7     6    1
     5     7     9    1
     6     4     3   ar
     7     6    10   ar
     8    12    13    1
     9    12     2   am
    10    14    13    1
    11    14    15    1
    12     3     2    1
    13     3    11   ar
    14    10    11   ar
    15     2     1    2
    16    15    16    1
    17    16    17    1
    18    17    18    1
    19    18    19    1
    20    19    20    2
    21    19    21    1
    22    21    22    2
