@<TRIPOS>MOLECULE
3q9c_Q9C_A_1.pdb
 13 12 0 0 0
SMALL
GASTEIGER

@<TRIPOS>ATOM
      1  N         62.0890   33.2050   21.5110 N.3   401  Q9C401     -0.1313
      2  C         69.5790   41.1340   24.8090 C.2   401  Q9C401      0.2419
      3  O         68.7100   41.4200   25.6510 O.2   401  Q9C401     -0.2733
      4  N01       66.4210   35.4410   21.3940 N.3   401  Q9C401     -0.2180
      5  N02       69.2920   40.1470   23.9450 N.am  401  Q9C401     -0.2054
      6  C01       65.0350   35.5410   20.9080 C.3   401  Q9C401      0.0902
      7  C02       62.9200   34.3790   21.7780 C.3   401  Q9C401      0.1108
      8  C03       66.6890   36.2680   22.5890 C.3   401  Q9C401      0.0888
      9  C04       68.1460   39.3310   23.7950 C.3   401  Q9C401      0.1152
     10  C05       64.3150   34.2010   21.1440 C.3   401  Q9C401      0.0393
     11  C06       67.7190   37.3430   22.2260 C.3   401  Q9C401      0.0206
     12  C07       68.5280   37.8810   23.4220 C.3   401  Q9C401      0.0249
     13  C08       70.7980   41.9170   24.8640 C.3   401  Q9C401      0.0964
@<TRIPOS>BOND
     1     6    10    1
     2     6     4    1
     3    10     7    1
     4     4     8    1
     5     1     7    1
     6    11     8    1
     7    11    12    1
     8    12     9    1
     9     9     5    1
    10     5     2   am
    11     2    13    1
    12     2     3    2
