@<TRIPOS>MOLECULE
3q9e_SP5_A_1.pdb
 17 16 0 0 0
SMALL
GASTEIGER

@<TRIPOS>ATOM
      1  CAB       70.8310   41.9460   25.2100 C.3   401  SP5401      0.0964
      2  CAC       69.7850   40.8890   25.1380 C.2   401  SP5401      0.2419
      3  OAA       68.6430   41.1550   25.4730 O.2   401  SP5401     -0.2733
      4  NAD       70.1260   39.5650   24.6740 N.am  401  SP5401     -0.2054
      5  CAE       69.1380   38.5180   24.5870 C.3   401  SP5401      0.1170
      6  CAF       68.8700   37.9330   23.2390 C.3   401  SP5401      0.0467
      7  CAG       67.5320   37.3190   23.0010 C.3   401  SP5401      0.1141
      8  NAH       67.4510   36.1890   22.1130 N.pl3 401  SP5401     -0.2366
      9  CAI       66.1150   36.0830   21.5970 C.2   401  SP5401      0.0755
     10  CAJ       65.2410   35.0010   22.1330 C.2   401  SP5401     -0.0069
     11  CAK       63.8860   34.8560   21.5330 C.3   401  SP5401      0.0507
     12  CAL       62.7590   34.4980   22.4410 C.3   401  SP5401      0.1169
     13  NAM       61.8570   33.4690   22.0110 N.pl3 401  SP5401     -0.2362
     14  CAN       60.6120   33.5990   22.7180 C.2   401  SP5401      0.0770
     15  CAO       60.2370   32.5130   23.6710 C.2   401  SP5401      0.0117
     16  CAP       58.8190   32.4590   24.1350 C.3   401  SP5401      0.1367
     17  NAQ       58.0300   31.3210   23.7460 N.3   401  SP5401     -0.1262
@<TRIPOS>BOND
     1    11    10    1
     2    11    12    1
     3     9     8    1
     4     9    10    2
     5    13    12    1
     6    13    14    1
     7     8     7    1
     8    14    15    2
     9     7     6    1
    10     6     5    1
    11    15    16    1
    12    17    16    1
    13     5     4    1
    14     4     2   am
    15     2     1    1
    16     2     3    2
