@<TRIPOS>MOLECULE
3q9f_CXS_A_1.pdb
 14 14 0 0 0
SMALL
GASTEIGER

@<TRIPOS>ATOM
      1  S         68.6120   41.0360   25.1950 S.3   401  CXS401     -0.1960
      2  O1        68.5700   40.3660   26.5280 O.3   401  CXS401     -0.3075
      3  O2        69.7490   41.9450   24.9990 O.3   401  CXS401     -0.3075
      4  O3        67.3620   41.8050   25.0260 O.3   401  CXS401     -0.3075
      5  C1        68.8440   39.7200   24.1290 C.3   401  CXS401      0.1067
      6  C2        67.7250   38.6570   24.2090 C.3   401  CXS401      0.0403
      7  C3        67.7570   37.7500   22.9820 C.3   401  CXS401      0.0903
      8  N         66.5220   37.6930   22.1620 N.3   401  CXS401     -0.2194
      9  C4        65.8270   36.4620   21.7670 C.3   401  CXS401      0.0728
     10  C5        64.8670   35.9290   22.8580 C.3   401  CXS401      0.0174
     11  C6        64.1370   34.6610   22.3450 C.3   401  CXS401      0.0014
     12  C7        65.0780   33.5140   22.0100 C.3   401  CXS401      0.0001
     13  C8        66.0810   33.9660   20.9350 C.3   401  CXS401      0.0014
     14  C9        66.8010   35.2820   21.3830 C.3   401  CXS401      0.0174
@<TRIPOS>BOND
     1    13    14    1
     2    13    12    1
     3    14     9    1
     4     9     8    1
     5     9    10    1
     6    12    11    1
     7     8     7    1
     8    11    10    1
     9     7     6    1
    10     5     6    1
    11     5     1    1
    12     3     1    1
    13     4     1    1
    14     1     2    1
