@<TRIPOS>MOLECULE
3q9k_HEM_A_1.pdb
 43 50 0 0 0
SMALL
GASTEIGER

@<TRIPOS>ATOM
      1  CHA        8.8820   -0.1510   28.9650 C.2   605  HEM605      0.0000
      2  CHB        9.1110    4.6200   28.7850 C.2   605  HEM605      0.0000
      3  CHC       11.0460    4.1870   24.4530 C.2   605  HEM605      0.0000
      4  CHD       10.8190   -0.5850   24.6160 C.2   605  HEM605      0.0000
      5  C1A        8.7710    1.1540   29.3120 C.2   605  HEM605      0.0000
      6  C2A        8.3300    1.6190   30.6020 C.2   605  HEM605      0.0000
      7  C3A        8.3900    2.9730   30.5770 C.2   605  HEM605      0.0000
      8  C4A        8.8890    3.3410   29.2750 C.2   605  HEM605      0.0000
      9  CMA        7.9780    3.9570   31.7040 C.3   605  HEM605      0.0000
     10  CAA        7.8850    0.6860   31.7270 C.3   605  HEM605      0.0000
     11  CBA        9.0350    0.3240   32.6370 C.3   605  HEM605      0.0000
     12  CGA        8.5450   -0.6690   33.6560 C.2   605  HEM605      0.0000
     13  O1A        9.1050   -1.7800   33.7340 O.co2 605  HEM605      0.0000
     14  O2A        7.5520   -0.3170   34.3910 O.co2 605  HEM605      0.0000
     15  C1B        9.6230    4.9080   27.5550 C.ar  605  HEM605      0.0000
     16  C2B        9.7840    6.2350   27.0140 C.ar  605  HEM605      0.0000
     17  C3B       10.3340    6.1010   25.7870 C.ar  605  HEM605      0.0000
     18  C4B       10.5040    4.7060   25.5730 C.ar  605  HEM605      0.0000
     19  CMB        9.3600    7.5070   27.7080 C.3   605  HEM605      0.0000
     20  CAB       10.6780    7.2110   24.7340 C.2   605  HEM605      0.0000
     21  CBB       11.0050    8.4920   25.0520 C.2   605  HEM605      0.0000
     22  C1C       11.1890    2.8640   24.1350 C.2   605  HEM605      0.0000
     23  C2C       11.7450    2.3510   22.9250 C.2   605  HEM605      0.0000
     24  C3C       11.6630    1.0080   22.9560 C.2   605  HEM605      0.0000
     25  C4C       11.0640    0.7000   24.1930 C.2   605  HEM605      0.0000
     26  CMC       12.3310    3.2020   21.7770 C.3   605  HEM605      0.0000
     27  CAC       12.1280   -0.0450   21.9060 C.2   605  HEM605      0.0000
     28  CBC       12.8670    0.1860   20.7970 C.2   605  HEM605      0.0000
     29  C1D       10.1890   -0.8660   25.8040 C.ar  605  HEM605      0.0000
     30  C2D        9.6900   -2.1950   26.1310 C.ar  605  HEM605      0.0000
     31  C3D        9.0530   -2.0520   27.4640 C.ar  605  HEM605      0.0000
     32  C4D        9.2950   -0.6630   27.7840 C.ar  605  HEM605      0.0000
     33  CMD        9.7390   -3.5330   25.4000 C.3   605  HEM605      0.0000
     34  CAD        8.3560   -3.2020   28.2590 C.3   605  HEM605      0.0000
     35  CBD        6.8740   -3.3280   27.7350 C.3   605  HEM605      0.0000
     36  CGD        6.1260   -4.3850   28.5140 C.2   605  HEM605      0.0000
     37  O1D        5.5210   -3.9960   29.5540 O.co2 605  HEM605      0.0000
     38  O2D        6.1700   -5.6200   28.1390 O.co2 605  HEM605      0.0000
     39  NA         9.1360    2.2050   28.5240 N.2   605  HEM605      0.0000
     40  NB        10.1150    3.9850   26.6900 N.ar  605  HEM605      0.0000
     41  NC        10.7640    1.8470   24.9150 N.2   605  HEM605      0.0000
     42  ND         9.9340    0.0250   26.7980 N.ar  605  HEM605      0.0000
     43 FE         10.1120    1.9940   26.7620 Fe    605  HEM605      0.0000
@<TRIPOS>BOND
     1    28    27    2
     2    26    23    1
     3    27    24    1
     4    23    24    2
     5    23    22    1
     6    24    25    1
     7    22     3    2
     8    22    41    1
     9    25     4    1
    10    25    41    2
    11     3    18    1
    12     4    29    2
    13    20    21    2
    14    20    17    1
    15    41    43    1
    16    33    30    1
    17    18    17   ar
    18    18    40   ar
    19    17    16   ar
    20    29    30   ar
    21    29    42   ar
    22    30    31   ar
    23    40    43    1
    24    40    15   ar
    25    43    42    1
    26    43    39    1
    27    42    32   ar
    28    16    15   ar
    29    16    19    1
    30    31    32   ar
    31    31    34    1
    32    15     2    1
    33    35    34    1
    34    35    36    1
    35    32     1    2
    36    38    36   ar
    37    36    37   ar
    38    39     8    1
    39    39     5    2
    40     2     8    2
    41     1     5    1
    42     8     7    1
    43     5     6    1
    44     7     6    2
    45     7     9    1
    46     6    10    1
    47    10    11    1
    48    11    12    1
    49    12    13   ar
    50    12    14   ar
