@<TRIPOS>MOLECULE
3q9l_ATP_A_1.pdb
 31 33 0 0 0
SMALL
GASTEIGER

@<TRIPOS>ATOM
      1  PG        43.8030   53.5040   15.6880 P.3   800  ATP800      0.5373
      2  O1G       44.8250   54.2200   14.8320 O.2   800  ATP800     -0.2221
      3  O2G       42.4240   54.1390   15.5990 O.3   800  ATP800     -0.1143
      4  O3G       43.7860   52.0050   15.4390 O.3   800  ATP800     -0.1143
      5  PB        45.8720   53.7470   17.7220 P.3   800  ATP800      0.2277
      6  O1B       46.5380   54.9410   17.0760 O.2   800  ATP800     -0.5168
      7  O2B       46.5170   52.4030   17.5250 O.3   800  ATP800     -0.4368
      8  O3B       44.3210   53.6410   17.2390 O.3   800  ATP800     -0.2258
      9  PA        45.5830   55.4410   19.9870 P.3   800  ATP800      0.2189
     10  O1A       44.4500   56.1660   19.3010 O.2   800  ATP800     -0.5170
     11  O2A       46.9400   56.0870   20.1190 O.3   800  ATP800     -0.4371
     12  O3A       45.7190   53.9850   19.3090 O.3   800  ATP800     -0.2700
     13  O5'       45.0640   54.9980   21.4340 O.3   800  ATP800     -0.3112
     14  C5'       43.9930   54.0610   21.4540 C.3   800  ATP800      0.1813
     15  C4'       43.4360   53.9410   22.8640 C.3   800  ATP800      0.1821
     16  O4'       44.3890   53.2960   23.7130 O.3   800  ATP800     -0.3135
     17  C3'       43.1720   55.3030   23.4650 C.3   800  ATP800      0.2184
     18  O3'       41.9790   55.1230   24.2150 O.3   800  ATP800     -0.2174
     19  C2'       44.3060   55.5330   24.4380 C.3   800  ATP800      0.2570
     20  O2'       43.9530   56.2780   25.6010 O.3   800  ATP800     -0.2130
     21  C1'       44.5610   54.1210   24.8670 C.3   800  ATP800      0.3186
     22  N9        45.9320   53.9640   25.3150 N.pl3 800  ATP800     -0.1439
     23  C8        46.9980   53.8700   24.5110 C.3   800  ATP800      0.3377
     24  N7        48.1170   53.7000   25.2460 N.2   800  ATP800     -0.2095
     25  C5        47.7390   53.6920   26.5400 C.2   800  ATP800      0.2526
     26  C6        48.4120   53.5410   27.8360 C.2   800  ATP800      0.4393
     27  N6        49.7400   53.3750   27.8590 N.pl3 800  ATP800      0.2180
     28  N1        47.6550   53.5770   28.9560 N.2   800  ATP800      0.0021
     29  C2        46.3220   53.7420   28.9140 C.3   800  ATP800      0.5254
     30  N3        45.6450   53.8820   27.7640 N.2   800  ATP800     -0.0055
     31  C4        46.2900   53.8570   26.5800 C.2   800  ATP800      0.3518
@<TRIPOS>BOND
     1     2     1    2
     2     4     1    1
     3     3     1    1
     4     1     8    1
     5     6     5    2
     6     8     5    1
     7     7     5    1
     8     5    12    1
     9    10     9    2
    10    12     9    1
    11     9    11    1
    12     9    13    1
    13    13    14    1
    14    14    15    1
    15    15    17    1
    16    15    16    1
    17    17    18    1
    18    17    19    1
    19    16    21    1
    20    19    21    1
    21    19    20    1
    22    23    24    1
    23    23    22    1
    24    21    22    1
    25    24    25    2
    26    22    31    1
    27    25    31    1
    28    25    26    1
    29    31    30    2
    30    30    29    1
    31    26    27    1
    32    26    28    2
    33    29    28    1
