@<TRIPOS>MOLECULE
3q9n_COA_A_1.pdb
 48 50 0 0 0
SMALL
GASTEIGER

@<TRIPOS>ATOM
      1  N1A       -6.2860   12.4310   -0.8030 N.2   1072  COA1072     0.0021
      2  C2A       -5.3900   11.6900   -1.5660 C.3   1072  COA1072     0.5254
      3  N3A       -5.8160   11.1000   -2.7720 N.2   1072  COA1072    -0.0055
      4  C4A       -7.0930   11.2480   -3.1740 C.2   1072  COA1072     0.3518
      5  C5A       -7.9780   11.9690   -2.4320 C.2   1072  COA1072     0.2526
      6  C6A       -7.5300   12.5740   -1.1980 C.2   1072  COA1072     0.4393
      7  N6A       -8.4690   13.3380   -0.4210 N.pl3 1072  COA1072     0.2180
      8  N7A       -9.1910   11.9650   -3.0660 N.2   1072  COA1072    -0.2095
      9  C8A       -9.0640   11.2650   -4.1720 C.3   1072  COA1072     0.3377
     10  N9A       -7.7400   10.7960   -4.2300 N.pl3 1072  COA1072    -0.1439
     11  C1B       -7.1330   10.0580   -5.3150 C.3   1072  COA1072     0.3185
     12  C2B       -7.8430    8.8360   -5.9340 C.3   1072  COA1072     0.2543
     13  O2B       -8.2760    7.7360   -5.2430 O.3   1072  COA1072    -0.2131
     14  C3B       -7.3660    8.8720   -7.3670 C.3   1072  COA1072     0.1928
     15  O3B       -6.7050    7.8870   -8.0570 O.3   1072  COA1072    -0.2673
     16  P3B       -7.3420    6.5040   -8.4350 P.3   1072  COA1072     0.5327
     17  O7A       -6.2110    5.5160   -8.5660 O.3   1072  COA1072    -0.1145
     18  O8A       -8.3470    6.0640   -7.3430 O.3   1072  COA1072    -0.1145
     19  O9A       -8.0480    6.7100   -9.7950 O.2   1072  COA1072    -0.2224
     20  C4B       -7.1590   10.3510   -7.5570 C.3   1072  COA1072     0.1795
     21  O4B       -6.3800   10.6880   -6.4000 O.3   1072  COA1072    -0.3136
     22  C5B       -8.0910   11.2880   -8.2490 C.3   1072  COA1072     0.1812
     23  O5B       -9.2000   11.4980   -7.4180 O.3   1072  COA1072    -0.3112
     24  P1A      -10.2310   12.6080   -7.8060 P.3   1072  COA1072     0.2189
     25  O1A       -9.5480   13.9880   -7.6700 O.2   1072  COA1072    -0.5170
     26  O2A      -11.4360   12.5540   -6.8910 O.3   1072  COA1072    -0.4371
     27  O3A      -10.6860   12.2470   -9.2820 O.3   1072  COA1072    -0.2703
     28  P2A      -10.8050   13.2580  -10.4890 P.3   1072  COA1072     0.2188
     29  O4A      -11.1890   12.4830  -11.7870 O.2   1072  COA1072    -0.5170
     30  O5A      -11.7880   14.3340  -10.1910 O.3   1072  COA1072    -0.4371
     31  O6A       -9.3530   13.8690  -10.6560 O.3   1072  COA1072    -0.3138
     32  CBP       -7.5170   14.9090  -11.7650 C.3   1072  COA1072     0.0645
     33  CCP       -8.9780   14.5420  -11.8170 C.3   1072  COA1072     0.1519
     34  CDP       -7.2970   16.0070  -10.7690 C.3   1072  COA1072     0.0056
     35  CEP       -6.7640   13.7090  -11.3030 C.3   1072  COA1072     0.0056
     36  CAP       -7.0800   15.3770  -13.1310 C.3   1072  COA1072     0.2312
     37  OAP       -7.8120   16.4720  -13.5520 O.3   1072  COA1072    -0.2131
     38  C9P       -5.5770   15.6200  -13.2580 C.2   1072  COA1072     0.2719
     39  O9P       -4.7790   14.6970  -13.3000 O.2   1072  COA1072    -0.2706
     40  N8P       -5.1120   17.0060  -13.1400 N.am  1072  COA1072    -0.2028
     41  C7P       -3.7020   17.3350  -13.3700 C.3   1072  COA1072     0.1248
     42  C6P       -3.2640   17.0650  -14.7990 C.3   1072  COA1072     0.1102
     43  C5P       -1.8530   17.4660  -15.1240 C.2   1072  COA1072     0.2432
     44  O5P       -1.3310   18.4480  -14.6070 O.2   1072  COA1072    -0.2733
     45  N4P       -1.2420   16.8000  -16.2310 N.am  1072  COA1072    -0.2044
     46  C3P       -0.0540   17.3790  -16.8060 C.3   1072  COA1072     0.1276
     47  C2P        1.2040   16.5760  -16.7410 C.3   1072  COA1072     0.0920
     48  S1P        2.5470   17.2410  -17.6880 S.3   1072  COA1072    -0.0802
@<TRIPOS>BOND
     1    48    47    1
     2    46    47    1
     3    46    45    1
     4    45    43   am
     5    43    42    1
     6    43    44    2
     7    42    41    1
     8    37    36    1
     9    41    40    1
    10    39    38    2
    11    38    40   am
    12    38    36    1
    13    36    32    1
    14    33    32    1
    15    33    31    1
    16    29    28    2
    17    32    35    1
    18    32    34    1
    19    31    28    1
    20    28    30    1
    21    28    27    1
    22    19    16    2
    23    27    24    1
    24    17    16    1
    25    16    15    1
    26    16    18    1
    27    22    20    1
    28    22    23    1
    29    15    14    1
    30    24    25    2
    31    24    23    1
    32    24    26    1
    33    20    14    1
    34    20    21    1
    35    14    12    1
    36    21    11    1
    37    12    11    1
    38    12    13    1
    39    11    10    1
    40    10     9    1
    41    10     4    1
    42     9     8    1
    43     4     3    2
    44     4     5    1
    45     8     5    2
    46     3     2    1
    47     5     6    1
    48     2     1    1
    49     6     1    2
    50     6     7    1
