@<TRIPOS>MOLECULE
3q9u_COA_A_1.pdb
 48 50 0 0 0
SMALL
GASTEIGER

@<TRIPOS>ATOM
      1  N1A        6.0070    2.0020  -12.0380 N.2   1070  COA1070     0.0021
      2  C2A        5.1190    2.8910  -11.4460 C.3   1070  COA1070     0.5254
      3  N3A        5.5990    4.0950  -10.9140 N.2   1070  COA1070    -0.0055
      4  C4A        6.9210    4.3770  -10.9720 C.2   1070  COA1070     0.3518
      5  C5A        7.7960    3.5130  -11.5660 C.2   1070  COA1070     0.2526
      6  C6A        7.2820    2.2720  -12.1260 C.2   1070  COA1070     0.4393
      7  N6A        8.1660    1.3340  -12.7710 N.pl3 1070  COA1070     0.2180
      8  N7A        9.0470    4.0680  -11.5140 N.2   1070  COA1070    -0.2095
      9  C8A        8.9550    5.2290  -10.8900 C.3   1070  COA1070     0.3377
     10  N9A        7.6180    5.4150  -10.5400 N.pl3 1070  COA1070    -0.1439
     11  C1B        7.0580    6.5720   -9.9140 C.3   1070  COA1070     0.3185
     12  C2B        7.8600    7.3360   -8.8280 C.3   1070  COA1070     0.2543
     13  O2B        8.5150    6.7960   -7.7510 O.3   1070  COA1070    -0.2131
     14  C3B        7.2700    8.7210   -8.9100 C.3   1070  COA1070     0.1928
     15  O3B        6.6790    9.4970   -7.9220 O.3   1070  COA1070    -0.2673
     16  P3B        7.2610    9.7880   -6.4870 P.3   1070  COA1070     0.5327
     17  O7A        6.1540   10.2000   -5.5470 O.3   1070  COA1070    -0.1145
     18  O8A        7.9360    8.5030   -5.9220 O.3   1070  COA1070    -0.1145
     19  O9A        8.2260   10.9960   -6.6780 O.2   1070  COA1070    -0.2224
     20  C4B        6.9970    8.7970  -10.3860 C.3   1070  COA1070     0.1795
     21  O4B        6.2910    7.5710  -10.6560 O.3   1070  COA1070    -0.3136
     22  C5B        7.8080    9.5140  -11.4050 C.3   1070  COA1070     0.1812
     23  O5B        8.8130    8.6180  -11.8190 O.3   1070  COA1070    -0.3112
     24  P1A       10.1040    9.0840  -12.5620 P.3   1070  COA1070     0.2189
     25  O1A        9.8340    9.0380  -14.0930 O.2   1070  COA1070    -0.5170
     26  O2A       11.2160    8.1210  -12.2590 O.3   1070  COA1070    -0.4371
     27  O3A       10.5100   10.5480  -12.1210 O.3   1070  COA1070    -0.2703
     28  P2A       10.8280   11.6390  -13.2200 P.3   1070  COA1070     0.2188
     29  O4A       11.2520   12.9950  -12.5450 O.3   1070  COA1070    -0.4371
     30  O5A       11.8950   11.1540  -14.1800 O.2   1070  COA1070    -0.5170
     31  O6A        9.4610   11.8010  -14.0070 O.3   1070  COA1070    -0.3138
     32  CBP        7.5880   12.9810  -14.9610 C.3   1070  COA1070     0.0645
     33  CCP        9.0650   13.0010  -14.6090 C.3   1070  COA1070     0.1519
     34  CDP        7.3330   11.9200  -16.0060 C.3   1070  COA1070     0.0056
     35  CEP        6.8090   12.6640  -13.7280 C.3   1070  COA1070     0.0056
     36  CAP        7.1700   14.3580  -15.4670 C.3   1070  COA1070     0.2312
     37  OAP        7.8300   14.7550  -16.6180 O.3   1070  COA1070    -0.2131
     38  C9P        5.6590   14.5180  -15.6260 C.2   1070  COA1070     0.2719
     39  O9P        4.9450   14.6850  -14.6590 O.2   1070  COA1070    -0.2706
     40  N8P        5.0980   14.3930  -16.9810 N.am  1070  COA1070    -0.2028
     41  C7P        3.6840   14.6700  -17.2410 C.3   1070  COA1070     0.1249
     42  C6P        3.2240   16.0880  -16.8970 C.3   1070  COA1070     0.1105
     43  C5P        1.8720   16.3860  -17.4990 C.2   1070  COA1070     0.2471
     44  O5P        1.3270   15.5450  -18.1930 O.2   1070  COA1070    -0.2729
     45  N4P        1.0780   17.4500  -16.9290 N.am  1070  COA1070    -0.1816
     46  C3P       -0.2340   17.7110  -17.4520 C.2   1070  COA1070     0.0748
     47  C2P       -0.9280   18.9050  -16.8650 C.3   1070  COA1070     0.1127
     48  S1P       -2.5790   19.2120  -17.4460 S.3   1070  COA1070    -0.0755
@<TRIPOS>BOND
     1    44    43    2
     2    43    45    1
     3    43    42    1
     4    46    45    2
     5    46    47    1
     6    48    47    1
     7    41    40    1
     8    41    42    1
     9    40    38   am
    10    37    36    1
    11    34    32    1
    12    38    36    1
    13    38    39    2
    14    36    32    1
    15    32    33    1
    16    32    35    1
    17    33    31    1
    18    30    28    2
    19    25    24    2
    20    31    28    1
    21    28    29    1
    22    28    27    1
    23     7     6    1
    24    24    26    1
    25    24    27    1
    26    24    23    1
    27     6     1    2
    28     6     5    1
    29     1     2    1
    30    23    22    1
    31     5     8    2
    32     5     4    1
    33     8     9    1
    34     2     3    1
    35    22    20    1
    36     4     3    2
    37     4    10    1
    38     9    10    1
    39    21    20    1
    40    21    11    1
    41    10    11    1
    42    20    14    1
    43    11    12    1
    44    14    12    1
    45    14    15    1
    46    12    13    1
    47    15    16    1
    48    19    16    2
    49    16    18    1
    50    16    17    1
