@<TRIPOS>MOLECULE
3q9w_EMO_A_1.pdb
 20 22 0 0 0
SMALL
GASTEIGER

@<TRIPOS>ATOM
      1  C1        17.1670   -9.1330  -45.9940 C.ar  400  EMO400      0.2017
      2  O1        17.3850   -8.6680  -47.2320 O.3   400  EMO400     -0.2864
      3  C2        17.0090  -10.4910  -45.7600 C.ar  400  EMO400      0.0841
      4  C3        16.7250  -10.9260  -44.4470 C.ar  400  EMO400      0.1987
      5  O3        16.5890  -12.2540  -44.1900 O.3   400  EMO400     -0.2865
      6  C4        16.5870   -9.9860  -43.3790 C.ar  400  EMO400      0.0408
      7  C5        16.7210   -8.6260  -43.6330 C.ar  400  EMO400      0.0213
      8  C6        16.5510   -7.6760  -42.5950 C.3   400  EMO400      0.1971
      9  O6        16.2680   -8.0860  -41.3900 O.3   400  EMO400     -0.2134
     10  C7        16.7020   -6.2990  -42.9100 C.ar  400  EMO400      0.0178
     11  C8        16.5640   -5.3190  -41.9160 C.ar  400  EMO400     -0.0055
     12  C9        16.7340   -3.9490  -42.1820 C.ar  400  EMO400     -0.0189
     13  C10       16.5660   -2.8370  -41.1700 C.3   400  EMO400      0.0311
     14  C16       16.9980   -3.5180  -43.4950 C.ar  400  EMO400      0.0379
     15  C17       17.1380   -4.4750  -44.5050 C.ar  400  EMO400      0.1982
     16  O17       17.4240   -4.0240  -45.7660 O.3   400  EMO400     -0.2865
     17  C18       16.9560   -5.8500  -44.2420 C.ar  400  EMO400      0.0766
     18  C19       17.1230   -6.7990  -45.2540 C.2   400  EMO400      0.2013
     19  O19       17.3520   -6.4080  -46.4030 O.2   400  EMO400     -0.2864
     20  C20       17.0250   -8.1860  -44.9650 C.ar  400  EMO400      0.0768
@<TRIPOS>BOND
     1     2     1    1
     2    19    18    2
     3     1     3   ar
     4     1    20   ar
     5    16    15    1
     6     3     4   ar
     7    18    20    1
     8    18    17    1
     9    20     7   ar
    10    15    17   ar
    11    15    14   ar
    12     4     5    1
    13     4     6   ar
    14    17    10   ar
    15     7     6   ar
    16     7     8    1
    17    14    12   ar
    18    10     8    1
    19    10    11   ar
    20     8     9    1
    21    12    11   ar
    22    12    13    1
