@<TRIPOS>MOLECULE
3q9x_EMO_A_1.pdb
 20 22 0 0 0
SMALL
GASTEIGER

@<TRIPOS>ATOM
      1  C1        -5.1280   45.7090   22.6740 C.ar  400  EMO400      0.2020
      2  O1        -6.1660   44.8370   22.5210 O.3   400  EMO400     -0.2864
      3  C2        -4.3630   46.0960   21.5510 C.ar  400  EMO400      0.0841
      4  C3        -3.3370   47.0160   21.7550 C.ar  400  EMO400      0.1990
      5  O3        -2.5830   47.4110   20.7250 O.3   400  EMO400     -0.2865
      6  C4        -3.0710   47.5620   23.0320 C.ar  400  EMO400      0.0455
      7  C5        -3.8410   47.1660   24.1570 C.ar  400  EMO400      0.0483
      8  C6        -3.5910   47.6740   25.4620 C.2   400  EMO400      0.1960
      9  O6        -2.6650   48.5100   25.6920 O.2   400  EMO400     -0.2866
     10  C7        -4.3750   47.2400   26.5380 C.ar  400  EMO400      0.0448
     11  C8        -4.1160   47.7860   27.8090 C.ar  400  EMO400     -0.0008
     12  C9        -4.9060   47.3510   28.9320 C.ar  400  EMO400     -0.0186
     13  C10       -4.6410   47.8920   30.3390 C.3   400  EMO400      0.0311
     14  C16       -5.9420   46.4020   28.7530 C.ar  400  EMO400      0.0379
     15  C17       -6.1920   45.8850   27.4810 C.ar  400  EMO400      0.1985
     16  O17       -7.2040   44.9650   27.3860 O.3   400  EMO400     -0.2865
     17  C18       -5.3960   46.2780   26.3590 C.ar  400  EMO400      0.0810
     18  C19       -5.6400   45.7700   25.0480 C.2   400  EMO400      0.2019
     19  O19       -6.5420   44.9040   24.8010 O.2   400  EMO400     -0.2864
     20  C20       -4.8630   46.2140   23.9470 C.ar  400  EMO400      0.0812
@<TRIPOS>BOND
     1     5     4    1
     2     3     4   ar
     3     3     1   ar
     4     4     6   ar
     5     2     1    1
     6     1    20   ar
     7     6     7   ar
     8    20     7   ar
     9    20    18    1
    10     7     8    1
    11    19    18    2
    12    18    17    1
    13     8     9    2
    14     8    10    1
    15    17    10   ar
    16    17    15   ar
    17    10    11   ar
    18    16    15    1
    19    15    14   ar
    20    11    12   ar
    21    14    12   ar
    22    12    13    1
