@<TRIPOS>MOLECULE
3q9y_TXQ_A_1.pdb
 20 22 0 0 0
SMALL
GASTEIGER

@<TRIPOS>ATOM
      1  O18      -17.6520   16.4010   47.5360 O.2   337  TXQ337     -0.2865
      2  C9       -17.4860   15.9370   46.4040 C.2   337  TXQ337      0.1990
      3  C8       -17.3630   16.9260   45.3160 C.ar  337  TXQ337      0.0840
      4  C13      -17.4890   18.2940   45.6000 C.ar  337  TXQ337      0.1990
      5  O17      -17.7200   18.5970   46.8960 O.3   337  TXQ337     -0.2865
      6  C12      -17.3820   19.3000   44.6140 C.ar  337  TXQ337      0.0454
      7  C11      -17.1760   18.8860   43.2950 C.ar  337  TXQ337      0.0454
      8  C14      -17.0630   17.5000   43.0580 C.ar  337  TXQ337      0.1990
      9  O16      -16.8220   17.1340   41.8060 O.3   337  TXQ337     -0.2865
     10  C7       -17.1340   16.4960   44.0360 C.ar  337  TXQ337      0.0841
     11  C10      -17.0330   14.9950   43.7790 C.2   337  TXQ337      0.2021
     12  O19      -16.7840   14.5390   42.6260 O.2   337  TXQ337     -0.2864
     13  C2       -17.3630   14.4510   46.1710 C.ar  337  TXQ337      0.0455
     14  C1       -17.1360   13.9760   44.8650 C.ar  337  TXQ337      0.0843
     15  C3       -17.4810   13.5520   47.1910 C.ar  337  TXQ337      0.0068
     16  C4       -17.3490   12.1560   46.9180 C.ar  337  TXQ337      0.0455
     17  C5       -17.0950   11.6560   45.6280 C.ar  337  TXQ337      0.2344
     18  O20      -16.9160   10.3190   45.3660 O.3   337  TXQ337     -0.2831
     19  C6       -16.9980   12.5890   44.5730 C.ar  337  TXQ337      0.2373
     20  O15      -16.7460   12.1090   43.2820 O.3   337  TXQ337     -0.2830
@<TRIPOS>BOND
     1     9     8    1
     2    12    11    2
     3     8     7   ar
     4     8    10   ar
     5    20    19    1
     6     7     6   ar
     7    11    10    1
     8    11    14    1
     9    10     3   ar
    10    19    14   ar
    11    19    17   ar
    12     6     4   ar
    13    14    13   ar
    14     3     4   ar
    15     3     2    1
    16    18    17    1
    17     4     5    1
    18    17    16   ar
    19    13     2    1
    20    13    15   ar
    21     2     1    2
    22    16    15   ar
