@<TRIPOS>MOLECULE
3q9z_TXQ_A_1.pdb
 20 22 0 0 0
SMALL
GASTEIGER

@<TRIPOS>ATOM
      1  O18       -7.2230   44.8370   24.9900 O.2   340  TXQ340     -0.2865
      2  C9        -6.2830   45.6910   25.1320 C.2   340  TXQ340      0.1990
      3  C8        -5.9750   46.2990   26.4750 C.ar  340  TXQ340      0.0840
      4  C13       -6.6920   45.9390   27.6270 C.ar  340  TXQ340      0.1990
      5  O17       -7.6990   45.0380   27.4930 O.3   340  TXQ340     -0.2865
      6  C12       -6.4190   46.4950   28.8710 C.ar  340  TXQ340      0.0454
      7  C11       -5.3990   47.4530   28.9760 C.ar  340  TXQ340      0.0454
      8  C14       -4.6790   47.8070   27.8460 C.ar  340  TXQ340      0.1990
      9  O16       -3.6670   48.7310   27.8920 O.3   340  TXQ340     -0.2865
     10  C7        -4.9730   47.2380   26.6080 C.ar  340  TXQ340      0.0841
     11  C10       -4.2030   47.6880   25.4350 C.2   340  TXQ340      0.2021
     12  O19       -3.3130   48.5760   25.6030 O.2   340  TXQ340     -0.2864
     13  C2        -5.5090   46.1260   23.9250 C.ar  340  TXQ340      0.0455
     14  C1        -4.5100   47.0990   24.0890 C.ar  340  TXQ340      0.0843
     15  C3        -5.8160   45.5900   22.6460 C.ar  340  TXQ340      0.0068
     16  C4        -5.0320   45.9980   21.5420 C.ar  340  TXQ340      0.0455
     17  C5        -4.0240   46.9740   21.7670 C.ar  340  TXQ340      0.2344
     18  O20       -3.2320   47.4430   20.7790 O.3   340  TXQ340     -0.2831
     19  C6        -3.7730   47.5320   23.0170 C.ar  340  TXQ340      0.2373
     20  O15       -2.7510   48.4510   23.1930 O.3   340  TXQ340     -0.2830
@<TRIPOS>BOND
     1    18    17    1
     2    16    17   ar
     3    16    15   ar
     4    17    19   ar
     5    15    13   ar
     6    19    20    1
     7    19    14   ar
     8    13    14   ar
     9    13     2    1
    10    14    11    1
    11     1     2    2
    12     2     3    1
    13    11    12    2
    14    11    10    1
    15     3    10   ar
    16     3     4   ar
    17    10     8   ar
    18     5     4    1
    19     4     6   ar
    20     8     9    1
    21     8     7   ar
    22     6     7   ar
