@<TRIPOS>MOLECULE
3qa2_XNA_A_1.pdb
 29 33 0 0 0
SMALL
GASTEIGER

@<TRIPOS>ATOM
      1  C01       -3.1160   -1.2070   15.1500 C.3   302  XNA302      0.0324
      2  C02       -3.5590    0.1010   15.8150 C.ar  302  XNA302     -0.0065
      3  C03       -3.6990    1.3200   15.0640 C.ar  302  XNA302     -0.0030
      4  C04       -4.1370    2.5280   15.7130 C.ar  302  XNA302     -0.0002
      5  C05       -4.4450    2.5520   17.1240 C.ar  302  XNA302      0.0013
      6  C06       -4.2990    1.3390   17.8910 C.ar  302  XNA302      0.0163
      7  C07       -3.8580    0.1340   17.2350 C.ar  302  XNA302      0.0692
      8  N08       -3.6890   -1.0890   17.9940 N.pl3 302  XNA302     -0.1818
      9  C09       -4.7160   -1.4480   18.9630 C.2   302  XNA302      0.2373
     10  N10       -5.6900   -0.5610   19.4160 N.2   302  XNA302     -0.3093
     11  C11       -6.5990   -1.0300   20.3620 C.1   302  XNA302      0.2044
     12  N12       -6.5780   -2.3320   20.8810 N.2   302  XNA302     -0.3186
     13  C13       -5.5920   -3.1930   20.4090 C.2   302  XNA302      0.2509
     14  C14       -5.4730   -4.5800   20.8730 C.2   302  XNA302      0.3908
     15  N15       -4.5040   -5.4020   20.4090 N.2   302  XNA302     -0.0307
     16  C16       -3.6090   -4.9130   19.4590 C.3   302  XNA302      0.3922
     17  N17       -3.6240   -3.6390   18.9460 N.2   302  XNA302     -0.2117
     18  C18       -4.6100   -2.8240   19.4340 C.2   302  XNA302      0.1649
     19  N19       -6.4280   -5.0560   21.8830 N.pl3 302  XNA302     -0.0293
     20  C20       -6.2970   -6.4340   22.3590 C.3   302  XNA302      0.2511
     21  C21       -7.4260   -7.2430   21.6970 C.3   302  XNA302      0.0512
     22  C22       -8.3340   -7.9530   22.7030 C.3   302  XNA302      0.0044
     23  C23       -7.3360   -8.7620   21.8590 C.3   302  XNA302      0.0044
     24  N24       -7.6680   -0.1330   20.9150 N.pl3 302  XNA302     -0.2312
     25  C25       -7.7120    1.2700   20.6420 C.3   302  XNA302      0.1219
     26  C26       -9.1700    1.6040   20.2560 C.3   302  XNA302      0.1110
     27  N27      -10.1080    1.2270   21.4050 N.3   302  XNA302     -0.2144
     28  C28       -9.9360   -0.2610   21.7310 C.3   302  XNA302      0.1110
     29  C29       -8.4520   -0.5570   22.0390 C.3   302  XNA302      0.1219
@<TRIPOS>BOND
     1     3     4   ar
     2     3     2   ar
     3     1     2    1
     4     4     5   ar
     5     2     7   ar
     6     5     6   ar
     7     7     6   ar
     8     7     8    1
     9     8     9    1
    10    17    18    2
    11    17    16    1
    12     9    10    2
    13     9    18    1
    14    10    11    2
    15    18    13    1
    16    16    15    1
    17    26    25    1
    18    26    27    1
    19    11    12    2
    20    11    24    1
    21    15    14    2
    22    13    14    1
    23    13    12    2
    24    25    24    1
    25    14    19    1
    26    24    29    1
    27    27    28    1
    28    21    23    1
    29    21    20    1
    30    21    22    1
    31    28    29    1
    32    23    22    1
    33    19    20    1
