@<TRIPOS>MOLECULE
3qaa_G04_A_1.pdb
 41 44 0 0 0
SMALL
GASTEIGER

@<TRIPOS>ATOM
      1  C2        20.9420   27.6150   14.7790 C.ar  401  G04401      0.1388
      2  C3        19.5940   27.5620   14.4440 C.ar  401  G04401      0.0383
      3  C4        18.8320   26.4280   14.7080 C.ar  401  G04401      0.0230
      4  C5        19.3720   25.3810   15.4480 C.ar  401  G04401      0.1224
      5  C6        20.7160   25.4510   15.7570 C.ar  401  G04401      0.0230
      6  C7        21.5250   26.5360   15.4430 C.ar  401  G04401      0.0383
      7  S8        18.4050   23.9750   15.8770 S.O2  401  G04401      0.0634
      8  O9        17.3540   23.8310   14.8320 O.2   401  G04401     -0.1528
      9  O10       19.3040   22.7810   15.9680 O.2   401  G04401     -0.1528
     10  N11       17.6620   24.1990   17.3230 N.3   401  G04401     -0.1529
     11  C12       18.5440   24.5780   18.4090 C.3   401  G04401      0.0958
     12  C13       18.3420   23.7830   19.7020 C.3   401  G04401      0.0178
     13  C14       18.1660   22.2870   19.4840 C.3   401  G04401      0.0015
     14  C15       19.5430   24.0310   20.6290 C.3   401  G04401      0.0015
     15  C16       16.3960   24.9270   17.3450 C.3   401  G04401      0.1304
     16  C17       15.2640   24.0460   17.8720 C.3   401  G04401      0.1898
     17  O18       14.1040   24.7930   18.2510 O.3   401  G04401     -0.2197
     18  C19       14.8740   22.9290   16.9030 C.3   401  G04401      0.1347
     19  N20       13.9440   22.0230   17.5850 N.am  401  G04401     -0.1675
     20  C21       14.2040   20.7510   17.9190 C.2   401  G04401      0.4211
     21  O22       15.3000   20.2220   17.6810 O.2   401  G04401     -0.2246
     22  O23       13.1760   20.0920   18.5260 O.3   401  G04401     -0.4344
     23  C24       13.3810   18.7100   18.8200 C.3   401  G04401      0.2072
     24  C25       12.9230   18.4770   20.2630 C.3   401  G04401      0.1884
     25  O26       11.4920   18.4800   20.1910 O.3   401  G04401     -0.3265
     26  C27       11.0770   18.0470   18.9070 C.3   401  G04401      0.2413
     27  O28       10.2630   19.0370   18.2700 O.3   401  G04401     -0.3277
     28  C29       10.8580   19.4530   17.0530 C.3   401  G04401      0.1744
     29  C30       11.9250   18.4170   16.7100 C.3   401  G04401      0.1533
     30  C31       12.3360   17.8590   18.0810 C.3   401  G04401      0.1287
     31  C32       14.1790   23.4690   15.6380 C.3   401  G04401      0.0508
     32  C33       12.4400   21.9080   14.6260 C.ar  401  G04401     -0.0042
     33  C34       12.0560   20.8150   13.8530 C.ar  401  G04401     -0.0003
     34  C35       12.9920   20.1100   13.0900 C.ar  401  G04401     -0.0000
     35  C36       14.3250   20.5320   13.1610 C.ar  401  G04401     -0.0003
     36  C37       14.7170   21.6070   13.9630 C.ar  401  G04401     -0.0042
     37  C38       13.7720   22.3040   14.7160 C.ar  401  G04401     -0.0204
     38  O39       21.7050   28.7330   14.5450 O.3   401  G04401     -0.4714
     39  C40       23.0720   28.3730   14.7960 C.3   401  G04401      0.2525
     40  O41       11.2990   17.2940   16.0480 O.3   401  G04401     -0.3507
     41  C42       11.3180   17.4630   14.6350 C.3   401  G04401      0.1741
@<TRIPOS>BOND
     1    34    35   ar
     2    34    33   ar
     3    35    36   ar
     4    33    32   ar
     5    36    37   ar
     6     2     3   ar
     7     2     1   ar
     8    38     1    1
     9    38    39    1
    10    32    37   ar
    11    41    40    1
    12     3     4   ar
    13    37    31    1
    14     1     6   ar
    15     8     7    2
    16     6     5   ar
    17     4     5   ar
    18     4     7    1
    19    31    18    1
    20     7     9    2
    21     7    10    1
    22    40    29    1
    23    29    28    1
    24    29    30    1
    25    18    19    1
    26    18    16    1
    27    28    27    1
    28    10    15    1
    29    10    11    1
    30    15    16    1
    31    19    20   am
    32    21    20    2
    33    16    17    1
    34    20    22    1
    35    30    23    1
    36    30    26    1
    37    27    26    1
    38    11    12    1
    39    22    23    1
    40    23    24    1
    41    26    25    1
    42    13    12    1
    43    12    14    1
    44    25    24    1
