@<TRIPOS>MOLECULE
3qae_CIT_A_1.pdb
 13 12 0 0 0
SMALL
GASTEIGER

@<TRIPOS>ATOM
      1  C1        53.7220   41.3750   94.3330 C.2   502  CIT502      0.3680
      2  O1        53.1380   40.2600   94.3270 O.co2 502  CIT502     -0.2455
      3  O2        53.2750   42.2870   95.0580 O.co2 502  CIT502     -0.2455
      4  C2        54.9320   41.6060   93.4580 C.3   502  CIT502      0.1560
      5  C3        56.0750   42.3360   94.1600 C.3   502  CIT502      0.2402
      6  O7        55.6050   43.5910   94.7290 O.3   502  CIT502     -0.2129
      7  C4        57.1370   42.6550   93.1130 C.3   502  CIT502      0.1560
      8  C5        58.2480   43.5580   93.6020 C.2   502  CIT502      0.3680
      9  O3        58.4610   43.7870   94.8150 O.co2 502  CIT502     -0.2455
     10  O4        58.9870   44.0960   92.7590 O.co2 502  CIT502     -0.2455
     11  C6        56.6800   41.4380   95.2370 C.2   502  CIT502      0.3927
     12  O5        57.3240   40.4150   94.9140 O.co2 502  CIT502     -0.2429
     13  O6        56.5590   41.7150   96.4600 O.co2 502  CIT502     -0.2429
@<TRIPOS>BOND
     1    10     8   ar
     2     7     8    1
     3     7     5    1
     4     4     5    1
     5     4     1    1
     6     8     9   ar
     7     5     6    1
     8     5    11    1
     9     2     1   ar
    10     1     3   ar
    11    12    11   ar
    12    11    13   ar
