@<TRIPOS>MOLECULE
3qag_GSH_A_1.pdb
 20 19 0 0 0
SMALL
GASTEIGER

@<TRIPOS>ATOM
      1  N1         7.5360   20.5240   23.2740 N.3   1001  GSH1001    -0.1208
      2  CA1        7.4910   19.5240   22.2300 C.3   1001  GSH1001     0.1948
      3  C1         8.8810   19.2830   21.6980 C.2   1001  GSH1001     0.3819
      4  O11        9.1250   18.1980   21.1330 O.co2 1001  GSH1001    -0.2441
      5  O12        9.7990   20.1320   21.8100 O.co2 1001  GSH1001    -0.2441
      6  CB1        6.5650   19.9920   21.1120 C.3   1001  GSH1001     0.0402
      7  CG1        6.0530   18.8460   20.2330 C.3   1001  GSH1001     0.0889
      8  CD1        4.9450   19.3510   19.3330 C.2   1001  GSH1001     0.2418
      9  OE1        4.2660   20.5400   19.6830 O.2   1001  GSH1001    -0.2733
     10  N2         4.6670   18.6540   18.2240 N.am  1001  GSH1001    -0.1968
     11  CA2        3.4200   18.8280   17.4800 C.3   1001  GSH1001     0.1843
     12  C2         2.4640   17.7600   17.8890 C.2   1001  GSH1001     0.2627
     13  O2         3.0090   16.6240   18.5020 O.2   1001  GSH1001    -0.2714
     14  CB2        3.6160   18.6660   15.9770 C.3   1001  GSH1001     0.0997
     15  SG2        4.8450   19.7710   15.2230 S.3   1001  GSH1001    -0.0797
     16  N3         1.1610   17.9310   17.6440 N.am  1001  GSH1001    -0.1917
     17  CA3        0.1990   16.8580   17.8390 C.3   1001  GSH1001     0.2285
     18  C3        -0.7540   17.2130   18.9540 C.2   1001  GSH1001     0.3865
     19  O31       -1.8680   16.6570   19.0480 O.co2 1001  GSH1001    -0.2437
     20  O32       -0.4260   18.0740   19.7980 O.co2 1001  GSH1001    -0.2437
@<TRIPOS>BOND
     1    15    14    1
     2    14    11    1
     3    11    12    1
     4    11    10    1
     5    16    17    1
     6    16    12   am
     7    17    18    1
     8    12    13    2
     9    10     8   am
    10    18    19   ar
    11    18    20   ar
    12     8     9    2
    13     8     7    1
    14     7     6    1
    15     6     2    1
    16     4     3   ar
    17     3     5   ar
    18     3     2    1
    19     2     1    1
