@<TRIPOS>MOLECULE
3qai_XNN_A_1.pdb
 31 36 0 0 0
SMALL
GASTEIGER

@<TRIPOS>ATOM
      1  C01       -2.7790   -1.1480   13.6760 C.3   302  XNN302      0.0742
      2  S02       -1.9960   -0.8440   15.3130 S.3   302  XNN302     -0.1114
      3  C03       -2.7570    0.5800   16.0730 C.ar  302  XNN302      0.0405
      4  C04       -2.8040    1.7910   15.4040 C.ar  302  XNN302      0.0075
      5  C05       -3.4320    2.9080   15.9690 C.ar  302  XNN302      0.0006
      6  C06       -4.0100    2.7730   17.2200 C.ar  302  XNN302      0.0014
      7  C07       -3.9690    1.5420   17.9030 C.ar  302  XNN302      0.0171
      8  C08       -3.3580    0.3900   17.3540 C.ar  302  XNN302      0.0788
      9  N09       -3.1740   -0.9250   17.9200 N.pl3 302  XNN302     -0.1809
     10  C10       -4.1570   -1.5200   18.8140 C.2   302  XNN302      0.2373
     11  N11       -5.1910   -0.7810   19.2370 N.2   302  XNN302     -0.3093
     12  C12       -6.1800   -1.3870   20.0790 C.1   302  XNN302      0.2043
     13  N13       -6.1370   -2.6820   20.4960 N.2   302  XNN302     -0.3186
     14  C14       -5.0590   -3.4430   20.0640 C.2   302  XNN302      0.2509
     15  C15       -4.9730   -4.8760   20.4930 C.2   302  XNN302      0.3908
     16  N16       -3.9170   -5.6320   20.0800 N.2   302  XNN302     -0.0307
     17  C17       -2.9910   -4.9900   19.2610 C.3   302  XNN302      0.3922
     18  N18       -2.9830   -3.7230   18.8170 N.2   302  XNN302     -0.2117
     19  C19       -4.0480   -2.9340   19.2350 C.2   302  XNN302      0.1649
     20  N20       -5.9900   -5.2690   21.3250 N.pl3 302  XNN302     -0.0293
     21  C21       -6.2080   -6.6770   21.7550 C.3   302  XNN302      0.2511
     22  C22       -6.1350   -7.8710   20.8400 C.3   302  XNN302      0.0512
     23  C23       -7.3910   -8.4730   20.1840 C.3   302  XNN302      0.0044
     24  C24       -6.7090   -9.2250   21.3050 C.3   302  XNN302      0.0044
     25  N25       -7.2560   -0.6010   20.6170 N.pl3 302  XNN302     -0.2338
     26  C26       -8.4850   -0.9880   21.4310 C.3   302  XNN302      0.1075
     27  C27       -8.9610    0.4870   21.3580 C.3   302  XNN302      0.0701
     28  C28       -9.2230    1.0490   22.7920 C.3   302  XNN302      0.0934
     29  N29      -10.6880    1.0870   22.4560 N.3   302  XNN302     -0.2177
     30  C30      -10.3290    1.1370   20.9910 C.3   302  XNN302      0.0934
     31  C31       -7.7990    0.7920   20.3650 C.3   302  XNN302      0.1075
@<TRIPOS>BOND
     1     1     2    1
     2     2     3    1
     3     4     5   ar
     4     4     3   ar
     5     5     6   ar
     6     3     8   ar
     7     6     7   ar
     8     8     7   ar
     9     8     9    1
    10     9    10    1
    11    10    19    1
    12    10    11    2
    13    18    19    2
    14    18    17    1
    15    19    14    1
    16    11    12    2
    17    17    16    1
    18    14    15    1
    19    14    13    2
    20    12    13    2
    21    12    25    1
    22    16    15    2
    23    23    22    1
    24    23    24    1
    25    31    25    1
    26    31    27    1
    27    15    20    1
    28    25    26    1
    29    22    24    1
    30    22    21    1
    31    30    27    1
    32    30    29    1
    33    20    21    1
    34    27    26    1
    35    27    28    1
    36    29    28    1
