@<TRIPOS>MOLECULE
3qal_ATP_E_1.pdb
 31 33 0 0 0
SMALL
GASTEIGER

@<TRIPOS>ATOM
      1  PG        27.6540   28.7030   16.0740 P.3   351  ATP351      0.5373
      2  O1G       29.0390   29.3060   16.0090 O.2   351  ATP351     -0.2221
      3  O2G       26.9940   29.1350   17.3680 O.3   351  ATP351     -0.1143
      4  O3G       27.7300   27.1910   16.0220 O.3   351  ATP351     -0.1143
      5  PB        26.3110   28.4130   13.6020 P.3   351  ATP351      0.2277
      6  O1B       25.7970   27.0600   13.9530 O.3   351  ATP351     -0.4368
      7  O2B       27.4190   28.3360   12.6260 O.2   351  ATP351     -0.5168
      8  O3B       26.7690   29.3270   14.8750 O.3   351  ATP351     -0.2258
      9  PA        23.7570   29.4970   13.7020 P.3   351  ATP351      0.2189
     10  O1A       22.8790   28.3070   13.5460 O.2   351  ATP351     -0.5170
     11  O2A       23.8820   29.8460   15.1430 O.3   351  ATP351     -0.4371
     12  O3A       25.2050   29.3770   12.9750 O.3   351  ATP351     -0.2700
     13  O5'       23.1070   30.6900   12.8980 O.3   351  ATP351     -0.3112
     14  C5'       23.8370   31.9270   12.8680 C.3   351  ATP351      0.1813
     15  C4'       22.9960   33.0940   13.3200 C.3   351  ATP351      0.1821
     16  O4'       21.8960   33.2640   12.3970 O.3   351  ATP351     -0.3135
     17  C3'       22.3450   33.0370   14.6940 C.3   351  ATP351      0.2184
     18  O3'       23.2520   33.4250   15.7270 O.3   351  ATP351     -0.2174
     19  C2'       21.2110   34.0460   14.5310 C.3   351  ATP351      0.2570
     20  O2'       21.6490   35.3920   14.6230 O.3   351  ATP351     -0.2130
     21  C1'       20.7750   33.7810   13.0870 C.3   351  ATP351      0.3186
     22  N9        19.6680   32.8320   12.9410 N.pl3 351  ATP351     -0.1439
     23  C8        19.6950   31.4560   12.9990 C.3   351  ATP351      0.3377
     24  N7        18.5250   30.8970   12.8270 N.2   351  ATP351     -0.2095
     25  C5        17.6670   31.9730   12.6370 C.2   351  ATP351      0.2526
     26  C6        16.2860   32.0470   12.4040 C.2   351  ATP351      0.4393
     27  N6        15.4950   30.9750   12.3020 N.pl3 351  ATP351      0.2180
     28  N1        15.7360   33.2730   12.2730 N.2   351  ATP351      0.0021
     29  C2        16.5310   34.3450   12.3630 C.3   351  ATP351      0.5254
     30  N3        17.8450   34.4040   12.5720 N.2   351  ATP351     -0.0055
     31  C4        18.3580   33.1690   12.7050 C.2   351  ATP351      0.3518
@<TRIPOS>BOND
     1    28    29    1
     2    28    26    2
     3    27    26    1
     4    29    30    1
     5    16    21    1
     6    16    15    1
     7    26    25    1
     8    30    31    2
     9     7     5    2
    10    25    31    1
    11    25    24    2
    12    31    22    1
    13    24    23    1
    14    14    13    1
    15    14    15    1
    16    13     9    1
    17    22    23    1
    18    22    21    1
    19    12     5    1
    20    12     9    1
    21    21    19    1
    22    15    17    1
    23    10     9    2
    24     5     6    1
    25     5     8    1
    26     9    11    1
    27    19    20    1
    28    19    17    1
    29    17    18    1
    30     8     1    1
    31     2     1    2
    32     4     1    1
    33     1     3    1
