@<TRIPOS>MOLECULE
3qam_ATP_E_1.pdb
 31 33 0 0 0
SMALL
GASTEIGER

@<TRIPOS>ATOM
      1  PG       -13.4950   -1.9800   19.7490 P.3   351  ATP351      0.5373
      2  O1G      -14.8110   -2.6200   20.1820 O.3   351  ATP351     -0.1143
      3  O2G      -12.4570   -2.2790   20.8190 O.3   351  ATP351     -0.1143
      4  O3G      -13.6870   -0.4810   19.5940 O.2   351  ATP351     -0.2221
      5  PB       -12.8700   -1.7430   17.0090 P.3   351  ATP351      0.2277
      6  O1B      -12.2650   -0.4200   17.2330 O.3   351  ATP351     -0.4368
      7  O2B      -14.2250   -1.6200   16.4050 O.2   351  ATP351     -0.5168
      8  O3B      -12.9770   -2.6730   18.3710 O.3   351  ATP351     -0.2258
      9  PA       -10.3980   -2.7610   16.3280 P.3   351  ATP351      0.2189
     10  O1A       -9.6400   -1.5450   15.9470 O.2   351  ATP351     -0.5170
     11  O2A      -10.0960   -3.0700   17.7440 O.3   351  ATP351     -0.4371
     12  O3A      -12.0010   -2.6780   16.0590 O.3   351  ATP351     -0.2700
     13  O5'       -9.9630   -3.9350   15.3640 O.3   351  ATP351     -0.3112
     14  C5'      -10.6420   -5.1880   15.5210 C.3   351  ATP351      0.1813
     15  C4'       -9.6830   -6.3260   15.7370 C.3   351  ATP351      0.1821
     16  O4'       -8.9020   -6.5320   14.5380 O.3   351  ATP351     -0.3135
     17  C3'       -8.6590   -6.1920   16.8540 C.3   351  ATP351      0.2184
     18  O3'       -9.2250   -6.5260   18.1190 O.3   351  ATP351     -0.2174
     19  C2'       -7.5990   -7.1980   16.4110 C.3   351  ATP351      0.2570
     20  O2'       -7.9590   -8.5380   16.6960 O.3   351  ATP351     -0.2130
     21  C1'       -7.6220   -7.0160   14.8880 C.3   351  ATP351      0.3186
     22  N9        -6.6140   -6.0880   14.3710 N.pl3 351  ATP351     -0.1439
     23  C8        -6.6220   -4.7120   14.3800 C.3   351  ATP351      0.3377
     24  N7        -5.5550   -4.1730   13.8480 N.2   351  ATP351     -0.2095
     25  C5        -4.7910   -5.2620   13.4580 C.2   351  ATP351      0.2526
     26  C6        -3.5380   -5.3580   12.8370 C.2   351  ATP351      0.4393
     27  N6        -2.8080   -4.2970   12.4870 N.pl3 351  ATP351      0.2180
     28  N1        -3.0520   -6.5940   12.5860 N.2   351  ATP351      0.0021
     29  C2        -3.7890   -7.6570   12.9440 C.3   351  ATP351      0.5254
     30  N3        -4.9800   -7.6950   13.5360 N.2   351  ATP351     -0.0055
     31  C4        -5.4320   -6.4490   13.7690 C.2   351  ATP351      0.3518
@<TRIPOS>BOND
     1    27    26    1
     2    28    26    2
     3    28    29    1
     4    26    25    1
     5    29    30    1
     6    25    31    1
     7    25    24    2
     8    30    31    2
     9    31    22    1
    10    24    23    1
    11    22    23    1
    12    22    21    1
    13    16    21    1
    14    16    15    1
    15    21    19    1
    16    13    14    1
    17    13     9    1
    18    14    15    1
    19    15    17    1
    20    10     9    2
    21    12     9    1
    22    12     5    1
    23     9    11    1
    24     7     5    2
    25    19    20    1
    26    19    17    1
    27    17    18    1
    28     5     6    1
    29     5     8    1
    30     8     1    1
    31     4     1    2
    32     1     2    1
    33     1     3    1
