@<TRIPOS>MOLECULE
3qap_RET_A_1.pdb
 20 20 0 0 0
SMALL
GASTEIGER

@<TRIPOS>ATOM
      1  C1        19.2930   33.8310    5.8800 C.3   240  RET240      0.0152
      2  C2        20.2560   34.8350    6.5480 C.3   240  RET240      0.0037
      3  C3        21.0450   34.1240    7.6880 C.3   240  RET240      0.0006
      4  C4        22.0590   33.1860    6.9980 C.3   240  RET240      0.0040
      5  C5        21.2980   32.1870    6.1400 C.3   240  RET240      0.0183
      6  C6        19.9990   32.4230    5.6390 C.2   240  RET240     -0.0452
      7  C7        19.3760   31.3720    4.9300 C.2   240  RET240     -0.0092
      8  C8        18.0790   31.4330    4.3880 C.2   240  RET240     -0.0091
      9  C9        17.5060   30.3710    3.6650 C.2   240  RET240     -0.0439
     10  C10       16.1900   30.4950    3.1890 C.3   240  RET240      0.0224
     11  C11       15.5500   29.4820    2.4420 C.3   240  RET240      0.0087
     12  C12       14.2070   29.7750    2.2110 C.3   240  RET240      0.0220
     13  C13       13.3130   28.8370    1.6800 C.2   240  RET240     -0.0482
     14  C14       12.0040   29.2190    1.5380 C.2   240  RET240     -0.0342
     15  C15       11.0920   28.2960    1.0730 C.3   240  RET240      0.0300
     16  C16       18.0730   33.6420    6.7830 C.3   240  RET240      0.0040
     17  C17       18.8890   34.5220    4.5250 C.3   240  RET240      0.0040
     18  C18       22.0390   30.8500    5.8900 C.3   240  RET240      0.0043
     19  C19       18.2830   29.0410    3.4450 C.3   240  RET240      0.0264
     20  C20       13.7660   27.4290    1.2100 C.3   240  RET240      0.0260
@<TRIPOS>BOND
     1    15    14    1
     2    20    13    1
     3    14    13    2
     4    13    12    1
     5    12    11    1
     6    11    10    1
     7    10     9    1
     8    19     9    1
     9     9     8    2
    10     8     7    1
    11    17     1    1
    12     7     6    2
    13     6     1    1
    14     6     5    1
    15     1     2    1
    16     1    16    1
    17    18     5    1
    18     5     4    1
    19     2     3    1
    20     4     3    1
