@<TRIPOS>MOLECULE
3qaq_QAQ_A_1.pdb
 27 30 0 0 0
SMALL
GASTEIGER

@<TRIPOS>ATOM
      1  N1        20.3970   14.0490   23.0470 N.2   1103  QAQ1103    -0.2674
      2  N3        20.2340   12.1550   24.3750 N.2   1103  QAQ1103    -0.1677
      3  C4        22.1760   15.7900   21.6010 C.2   1103  QAQ1103     0.0953
      4  C5        23.2830   16.2140   20.8610 C.2   1103  QAQ1103     0.1485
      5  C6        23.7070   14.2600   21.6470 C.cat 1103  QAQ1103     0.2790
      6  C7        21.0600   16.6290   21.7100 C.2   1103  QAQ1103    -0.0028
      7  C8        21.0540   17.8810   21.0840 C.3   1103  QAQ1103     0.0535
      8  C10       23.2800   17.4610   20.2380 C.2   1103  QAQ1103     0.0292
      9  C13       25.6350   12.8340   21.7330 C.ar  1103  QAQ1103     0.0775
     10  C15       27.6630   12.9220   20.4020 C.ar  1103  QAQ1103     0.0046
     11  C17       27.6600   11.7850   22.5250 C.ar  1103  QAQ1103     0.1970
     12  N8        15.0740   14.6290   24.1580 N.1   1103  QAQ1103    -0.1940
     13  C12       16.2130   14.5800   23.9760 C.1   1103  QAQ1103     0.0981
     14  C11       17.6660   14.6930   23.6930 C.3   1103  QAQ1103     0.2295
     15  N7        18.3610   13.4400   24.0530 N.pl3 1103  QAQ1103    -0.1450
     16  C1        19.6590   13.2290   23.8190 C.1   1103  QAQ1103     0.1747
     17  C3        21.5120   11.9010   24.1730 C.3   1103  QAQ1103     0.2753
     18  N2        22.2390   12.7000   23.4180 N.2   1103  QAQ1103    -0.1683
     19  C2        21.7020   13.7880   22.8390 C.1   1103  QAQ1103     0.1676
     20  N4        22.4770   14.5750   22.0710 N.pl3 1103  QAQ1103    -0.1587
     21  C9        22.1670   18.2940   20.3490 C.2   1103  QAQ1103    -0.0187
     22  N5        24.1990   15.2530   20.9100 N.2   1103  QAQ1103    -0.3693
     23  N6        24.3370   13.1060   21.9270 N.pl3 1103  QAQ1103    -0.1692
     24  C18       26.3140   12.1020   22.7020 C.ar  1103  QAQ1103     0.0586
     25  C14       26.3160   13.2310   20.5790 C.ar  1103  QAQ1103     0.0168
     26  C16       28.3360   12.1950   21.3780 C.ar  1103  QAQ1103     0.0421
     27  O1        28.3210   11.0800   23.4800 O.3   1103  QAQ1103    -0.2865
@<TRIPOS>BOND
     1     8    21    2
     2     8     4    1
     3    21     7    1
     4    10    25   ar
     5    10    26   ar
     6    25     9   ar
     7     4    22    2
     8     4     3    1
     9    22     5    2
    10     7     6    1
    11    26    11   ar
    12     3     6    2
    13     3    20    1
    14     5    23    1
    15     5    20    1
    16     9    23    1
    17     9    24   ar
    18    20    19    1
    19    11    24   ar
    20    11    27    1
    21    19     1    2
    22    19    18    2
    23     1    16    2
    24    18    17    1
    25    14    13    1
    26    14    15    1
    27    16    15    1
    28    16     2    2
    29    13    12    3
    30    17     2    1
