@<TRIPOS>MOLECULE
3qar_QAR_A_1.pdb
 23 26 0 0 0
SMALL
GASTEIGER

@<TRIPOS>ATOM
      1  N1        19.6800   12.2810   24.2590 N.2   1103  QAR1103    -0.2620
      2  N3        21.7330   12.9740   23.4020 N.2   1103  QAR1103    -0.2638
      3  C4        21.5510   15.9450   21.4520 C.2   1103  QAR1103     0.0963
      4  C5        22.6370   16.3970   20.7010 C.2   1103  QAR1103     0.1486
      5  C6        23.1240   14.4510   21.4780 C.cat 1103  QAR1103     0.2812
      6  C7        20.4100   16.7490   21.5800 C.2   1103  QAR1103    -0.0028
      7  C8        20.3610   18.0010   20.9600 C.3   1103  QAR1103     0.0535
      8  C10       22.5920   17.6500   20.0840 C.2   1103  QAR1103     0.0292
      9  C13       25.7040   11.9970   22.1020 C.ar  1103  QAR1103     0.0605
     10  C14       26.9300   12.0110   21.5910 C.ar  1103  QAR1103     0.1252
     11  N8        26.9940   13.0170   20.7180 N.ar  1103  QAR1103    -0.1450
     12  N9        25.9040   13.5980   20.6700 N.ar  1103  QAR1103    -0.1309
     13  C12       25.0650   13.0040   21.5160 C.ar  1103  QAR1103     0.1784
     14  N6        23.7770   13.3100   21.7590 N.pl3 1103  QAR1103    -0.1486
     15  N5        23.5790   15.4570   20.7380 N.2   1103  QAR1103    -0.3692
     16  C9        21.4560   18.4520   20.2110 C.2   1103  QAR1103    -0.0187
     17  N4        21.8910   14.7400   21.9130 N.pl3 1103  QAR1103    -0.1483
     18  C2        21.1380   13.9390   22.6850 C.1   1103  QAR1103     0.2343
     19  N2        19.8010   14.0720   22.7650 N.2   1103  QAR1103    -0.2433
     20  C3        21.0080   12.1550   24.1790 C.1   1103  QAR1103     0.1408
     21  C11       21.6990   11.0710   24.9810 C.3   1103  QAR1103     0.1448
     22  C1        19.0790   13.2460   23.5510 C.1   1103  QAR1103     0.2618
     23  N7        17.7640   13.3650   23.6380 N.pl3 1103  QAR1103    -0.0220
@<TRIPOS>BOND
     1     8    16    2
     2     8     4    1
     3    16     7    1
     4    12    11   ar
     5    12    13   ar
     6     4    15    2
     7     4     3    1
     8    11    10   ar
     9    15     5    2
    10     7     6    1
    11     3     6    2
    12     3    17    1
    13     5    14    1
    14     5    17    1
    15    13    14    1
    16    13     9   ar
    17    10     9   ar
    18    17    18    1
    19    18    19    2
    20    18     2    2
    21    19    22    2
    22     2    20    2
    23    22    23    1
    24    22     1    2
    25    20     1    2
    26    20    21    1
