@<TRIPOS>MOLECULE
3qaw_GSH_A_1.pdb
 20 19 0 0 0
SMALL
GASTEIGER

@<TRIPOS>ATOM
      1  N1        21.2810   48.4100   44.2800 N.3   300  GSH300     -0.1159
      2  CA1       22.3530   48.5870   43.3810 C.3   300  GSH300      0.2164
      3  C1        21.9470   49.6480   42.4040 C.2   300  GSH300      0.3860
      4  O11       22.8660   50.3260   42.1090 O.co2 300  GSH300     -0.2437
      5  O12       20.8720   49.7380   42.0180 O.co2 300  GSH300     -0.2437
      6  CB1       22.6770   47.2380   42.7280 C.2   300  GSH300      0.0085
      7  CG1       23.8150   47.1420   41.6890 C.2   300  GSH300      0.0569
      8  CD1       24.0800   45.7790   41.1010 C.2   300  GSH300      0.2651
      9  OE1       23.3970   44.8820   41.4860 O.2   300  GSH300     -0.2684
     10  N2        25.0370   45.6840   40.2210 N.am  300  GSH300     -0.1931
     11  CA2       25.4410   44.5030   39.5650 C.3   300  GSH300      0.1846
     12  C2        26.8540   44.2640   39.9940 C.2   300  GSH300      0.2627
     13  O2        27.7830   44.9570   39.8500 O.2   300  GSH300     -0.2714
     14  CB2       25.3840   44.5820   38.0190 C.3   300  GSH300      0.0997
     15  SG2       23.7420   44.8640   37.3780 S.3   300  GSH300     -0.0797
     16  N3        26.8630   43.1930   40.5340 N.am  300  GSH300     -0.1917
     17  CA3       27.9770   42.6090   41.0710 C.3   300  GSH300      0.2285
     18  C3        27.9620   41.9300   42.3460 C.2   300  GSH300      0.3865
     19  O31       29.0310   41.5250   42.5730 O.co2 300  GSH300     -0.2437
     20  O32       27.0300   41.7600   43.1280 O.co2 300  GSH300     -0.2437
@<TRIPOS>BOND
     1    15    14    1
     2    14    11    1
     3    11    12    1
     4    11    10    1
     5    13    12    2
     6    12    16   am
     7    10     8   am
     8    16    17    1
     9    17    18    1
    10     8     9    2
    11     8     7    1
    12     7     6    2
    13     5     3   ar
    14     4     3   ar
    15    18    19   ar
    16    18    20   ar
    17     3     2    1
    18     6     2    1
    19     2     1    1
