@<TRIPOS>MOLECULE
3qax_ARG_A_1.pdb
 12 11 0 0 0
SMALL
GASTEIGER

@<TRIPOS>ATOM
      1  N         -3.4900  -17.2830   14.6800 N.3   600  ARG600     -0.1208
      2  CA        -4.6480  -16.6870   13.9230 C.3   600  ARG600      0.1944
      3  C         -5.4780  -17.7880   13.2740 C.2   600  ARG600      0.3819
      4  O         -4.9560  -18.8810   13.1830 O.co2 600  ARG600     -0.2441
      5  CB        -4.1200  -15.7820   12.8240 C.3   600  ARG600      0.0343
      6  CG        -3.1040  -16.4580   11.8650 C.3   600  ARG600      0.0490
      7  CD        -2.8580  -15.5830   10.5520 C.3   600  ARG600      0.2205
      8  NE        -1.6020  -15.9500    9.9380 N.pl3 600  ARG600     -0.0865
      9  CZ        -1.1470  -15.4320    8.7990 C.cat 600  ARG600      0.5346
     10  NH1       -1.8720  -14.5620    8.1290 N.pl3 600  ARG600      0.1354
     11  NH2       -0.0130  -15.8170    8.2920 N.pl3 600  ARG600      0.1354
     12  OXT       -6.6220  -17.6530   12.8240 O.co2 600  ARG600     -0.2441
@<TRIPOS>BOND
     1    10     9    1
     2    11     9    1
     3     9     8    2
     4     8     7    1
     5     7     6    1
     6     6     5    1
     7     5     2    1
     8    12     3   ar
     9     4     3   ar
    10     3     2    1
    11     2     1    1
