@<TRIPOS>MOLECULE
3qb3_THP_A_1.pdb
 25 26 0 0 0
SMALL
GASTEIGER

@<TRIPOS>ATOM
      1  P2        17.7330   10.8190    5.1260 P.3   150  THP150      0.5327
      2  O4P       17.7340    9.3620    5.4300 O.2   150  THP150     -0.2224
      3  O5P       19.0190   11.5190    5.7470 O.3   150  THP150     -0.1145
      4  O6P       16.4590   11.5900    5.6940 O.3   150  THP150     -0.1145
      5  P1        20.9490   14.4810    1.4150 P.3   150  THP150      0.5326
      6  O1P       21.5670   13.3560    2.2350 O.3   150  THP150     -0.1145
      7  O2P       22.0870   15.1750    0.5830 O.2   150  THP150     -0.2224
      8  O3P       20.3100   15.4540    2.5050 O.3   150  THP150     -0.1145
      9  O5'       17.7650   10.9080    3.5410 O.3   150  THP150     -0.2675
     10  C5'       17.7860   12.2660    3.0170 C.3   150  THP150      0.1857
     11  C4'       18.6830   12.2020    1.7850 C.3   150  THP150      0.1748
     12  O4'       18.2470   11.1050    0.9560 O.3   150  THP150     -0.3340
     13  C3'       18.6430   13.5060    0.9050 C.3   150  THP150      0.1600
     14  O3'       19.9690   13.7460    0.3710 O.3   150  THP150     -0.2700
     15  C2'       17.7690   13.0840   -0.2990 C.3   150  THP150      0.0847
     16  C1'       17.9130   11.5400   -0.3560 C.3   150  THP150      0.2089
     17  N1        16.6310   10.9340   -0.7760 N.am  150  THP150     -0.1794
     18  C2        16.3660   10.8230   -2.1020 C.1   150  THP150      0.2844
     19  O2        17.2130   11.1570   -2.9350 O.2   150  THP150     -0.1918
     20  N3        15.1840   10.3640   -2.5720 N.2   150  THP150     -0.2455
     21  C4        14.2330    9.9820   -1.6690 C.1   150  THP150      0.2134
     22  O4        13.1470    9.6530   -2.1210 O.2   150  THP150     -0.2088
     23  C5        14.4690   10.1420   -0.2720 C.2   150  THP150      0.0891
     24  C5M       13.3940    9.7230    0.7320 C.3   150  THP150      0.0462
     25  C6        15.6760   10.5820    0.1790 C.2   150  THP150      0.0877
@<TRIPOS>BOND
     1    19    18    2
     2    20    18    2
     3    20    21    2
     4    22    21    2
     5    18    17   am
     6    21    23    1
     7    17    16    1
     8    17    25    1
     9    16    15    1
    10    16    12    1
    11    15    13    1
    12    23    25    2
    13    23    24    1
    14    14    13    1
    15    14     5    1
    16     7     5    2
    17    13    11    1
    18    12    11    1
    19     5     6    1
    20     5     8    1
    21    11    10    1
    22    10     9    1
    23     9     1    1
    24     1     2    2
    25     1     4    1
    26     1     3    1
