@<TRIPOS>MOLECULE
3qb6_FOL_A_1.pdb
 32 34 0 0 0
SMALL
GASTEIGER

@<TRIPOS>ATOM
      1  N1         8.9450   11.1140   68.4980 N.2   703  FOL703     -0.2672
      2  C2         8.7650   12.4520   68.8110 C.1   703  FOL703      0.2609
      3  NA2        9.2090   13.3940   67.9240 N.pl3 703  FOL703     -0.0220
      4  N3         8.1880   12.8740   69.9830 N.2   703  FOL703     -0.2466
      5  C4         7.7800   12.0050   70.9340 C.1   703  FOL703      0.2569
      6  O4         7.2710   12.4000   72.0070 O.2   703  FOL703     -0.2052
      7  C4A        7.9590   10.5450   70.6580 C.2   703  FOL703      0.2988
      8  N5         7.6190    9.5930   71.5500 N.2   703  FOL703     -0.3839
      9  C6         7.7980    8.2540   71.2730 C.2   703  FOL703      0.1356
     10  C7         8.3840    7.8710   70.0300 C.3   703  FOL703      0.1931
     11  N8         8.7360    8.8240   69.1510 N.2   703  FOL703     -0.1992
     12  C8A        8.5650   10.1390   69.4110 C.1   703  FOL703      0.1401
     13  C9         7.4120    7.2120   72.3140 C.3   703  FOL703      0.1683
     14  N10        6.9800    8.0130   73.4090 N.pl3 703  FOL703     -0.2303
     15  C11        5.9460    7.0710   77.4530 C.ar  703  FOL703      0.0551
     16  C12        5.9530    8.3420   76.9360 C.ar  703  FOL703      0.0059
     17  C13        6.2550    8.6160   75.6220 C.ar  703  FOL703      0.0162
     18  C14        6.6330    7.5990   74.7200 C.ar  703  FOL703      0.0658
     19  C15        6.6390    6.2330   75.1920 C.ar  703  FOL703      0.0162
     20  C16        6.3080    5.9680   76.5870 C.ar  703  FOL703      0.0059
     21  C          5.6670    6.9270   78.9120 C.2   703  FOL703      0.2652
     22  O          5.4180    7.9260   79.5380 O.2   703  FOL703     -0.2684
     23  N          5.7000    5.6540   79.5150 N.am  703  FOL703     -0.1918
     24  CA         5.4590    5.2280   81.0520 C.3   703  FOL703      0.1986
     25  CB         4.4760    6.1030   82.0020 C.3   703  FOL703      0.0451
     26  CG         4.8820    7.5130   82.2240 C.3   703  FOL703      0.1164
     27  CD         3.8080    8.2800   83.0910 C.2   703  FOL703      0.3649
     28  OE1        2.7720    7.7670   83.5640 O.co2 703  FOL703     -0.2457
     29  OE2        3.9760    9.6120   83.2690 O.co2 703  FOL703     -0.2457
     30  CT         4.9380    3.8140   80.9400 C.2   703  FOL703      0.3842
     31  O1         3.9530    3.6000   80.2990 O.co2 703  FOL703     -0.2437
     32  O2         5.6300    2.8270   81.4850 O.co2 703  FOL703     -0.2437
@<TRIPOS>BOND
     1     3     2    1
     2     1     2    2
     3     1    12    2
     4     2     4    2
     5    11    12    2
     6    11    10    1
     7    12     7    1
     8     4     5    2
     9    10     9    1
    10     7     5    1
    11     7     8    2
    12     5     6    2
    13     9     8    2
    14     9    13    1
    15    13    14    1
    16    14    18    1
    17    18    19   ar
    18    18    17   ar
    19    19    20   ar
    20    17    16   ar
    21    20    15   ar
    22    16    15   ar
    23    15    21    1
    24    21    23   am
    25    21    22    2
    26    23    24    1
    27    31    30   ar
    28    30    24    1
    29    30    32   ar
    30    24    25    1
    31    25    26    1
    32    26    27    1
    33    27    29   ar
    34    27    28   ar
