@<TRIPOS>MOLECULE
3qb8_COA_A_1.pdb
 48 50 0 0 0
SMALL
GASTEIGER

@<TRIPOS>ATOM
      1  N1A       17.3240   14.2860    2.1190 N.2   198  COA198      0.0021
      2  C2A       16.3590   15.1420    1.8480 C.3   198  COA198      0.5254
      3  N3A       15.4690   14.9160    0.8980 N.2   198  COA198     -0.0055
      4  C4A       15.5400   13.8250    0.1890 C.2   198  COA198      0.3518
      5  C5A       16.5360   12.8930    0.4420 C.2   198  COA198      0.2526
      6  C6A       17.4360   13.1850    1.4420 C.2   198  COA198      0.4393
      7  N6A       18.4770   12.2800    1.7580 N.pl3 198  COA198      0.2180
      8  N7A       16.3510   11.8830   -0.4050 N.2   198  COA198     -0.2095
      9  C8A       15.3230   12.1540   -1.1480 C.3   198  COA198      0.3377
     10  N9A       14.8080   13.3380   -0.8220 N.pl3 198  COA198     -0.1439
     11  C1B       13.6430   13.9770   -1.3630 C.3   198  COA198      0.3185
     12  C2B       13.7330   14.3410   -2.7860 C.3   198  COA198      0.2543
     13  O2B       14.4530   15.5090   -2.9780 O.3   198  COA198     -0.2131
     14  C3B       12.2910   14.3290   -3.1730 C.3   198  COA198      0.1928
     15  O3B       11.6130   15.5110   -2.9700 O.3   198  COA198     -0.2673
     16  P3B       11.2060   16.5320   -4.0960 P.3   198  COA198      0.5327
     17  O7A       10.8870   15.8400   -5.3540 O.2   198  COA198     -0.2224
     18  O8A       10.0640   17.3240   -3.6100 O.3   198  COA198     -0.1145
     19  O9A       12.4670   17.2660   -4.1470 O.3   198  COA198     -0.1145
     20  C4B       11.7590   13.2220   -2.3070 C.3   198  COA198      0.1795
     21  O4B       12.6230   13.0780   -1.2550 O.3   198  COA198     -0.3136
     22  C5B       11.5470   11.8930   -3.0180 C.3   198  COA198      0.1812
     23  O5B       12.6470   11.5440   -3.7360 O.3   198  COA198     -0.3112
     24  P1A       12.7270   10.1530   -4.4780 P.3   198  COA198      0.2189
     25  O1A       11.4020    9.8840   -5.0390 O.3   198  COA198     -0.4371
     26  O2A       13.9630   10.5220   -5.2030 O.2   198  COA198     -0.5170
     27  O3A       13.1040    9.2870   -3.1840 O.3   198  COA198     -0.2703
     28  P2A       14.2200    8.0580   -3.1000 P.3   198  COA198      0.2188
     29  O4A       15.4130    8.8300   -2.8940 O.3   198  COA198     -0.4371
     30  O5A       13.9240    7.2370   -4.3130 O.2   198  COA198     -0.5170
     31  O6A       13.6100    7.3570   -1.8250 O.3   198  COA198     -0.3138
     32  CBP       13.5010    6.9150    0.5150 C.3   198  COA198      0.0645
     33  CCP       13.4690    7.9580   -0.5800 C.3   198  COA198      0.1519
     34  CDP       13.0670    7.5890    1.7910 C.3   198  COA198      0.0056
     35  CEP       12.5240    5.8210    0.1570 C.3   198  COA198      0.0056
     36  CAP       14.9530    6.4010    0.7150 C.3   198  COA198      0.2312
     37  OAP       15.7860    7.3390    1.2670 O.3   198  COA198     -0.2131
     38  C9P       15.0520    5.1100    1.5430 C.2   198  COA198      0.2719
     39  O9P       14.9580    4.0910    1.0330 O.2   198  COA198     -0.2706
     40  N8P       15.3430    5.1980    2.9700 N.am  198  COA198     -0.2028
     41  C7P       15.4930    3.9860    3.8720 C.3   198  COA198      0.1248
     42  C6P       14.1150    3.6300    3.7620 C.3   198  COA198      0.1102
     43  C5P       13.1470    4.3810    4.6170 C.2   198  COA198      0.2432
     44  O5P       13.4330    4.9510    5.6020 O.2   198  COA198     -0.2733
     45  N4P       11.8790    4.2140    4.1770 N.am  198  COA198     -0.2044
     46  C3P       10.7570    4.8180    4.8030 C.3   198  COA198      0.1276
     47  C2P       10.2230    4.2510    6.0420 C.3   198  COA198      0.0920
     48  S1P        8.7170    5.1610    6.2950 S.3   198  COA198     -0.0802
@<TRIPOS>BOND
     1    17    16    2
     2    26    24    2
     3    25    24    1
     4    24    23    1
     5    24    27    1
     6    30    28    2
     7    19    16    1
     8    16    18    1
     9    16    15    1
    10    23    22    1
    11    27    28    1
    12    14    15    1
    13    14    12    1
    14    14    20    1
    15    28    29    1
    16    28    31    1
    17    22    20    1
    18    13    12    1
    19    12    11    1
    20    20    21    1
    21    31    33    1
    22    11    21    1
    23    11    10    1
    24     9    10    1
    25     9     8    1
    26    10     4    1
    27    33    32    1
    28     8     5    2
    29    35    32    1
    30     4     5    1
    31     4     3    2
    32     5     6    1
    33    32    36    1
    34    32    34    1
    35    36    37    1
    36    36    38    1
    37     3     2    1
    38    39    38    2
    39     6     7    1
    40     6     1    2
    41    38    40   am
    42     2     1    1
    43    40    41    1
    44    42    41    1
    45    42    43    1
    46    45    43   am
    47    45    46    1
    48    43    44    2
    49    46    47    1
    50    47    48    1
