@<TRIPOS>MOLECULE
3qb9_HEM_B_1.pdb
 43 50 0 0 0
SMALL
GASTEIGER

@<TRIPOS>ATOM
      1  CHA      -46.6570  -39.4790   26.1750 C.2   301  HEM301      0.0000
      2  CHB      -43.9440  -40.5910   30.0960 C.2   301  HEM301      0.0000
      3  CHC      -44.0570  -35.8640   31.3980 C.2   301  HEM301      0.0000
      4  CHD      -46.5640  -34.6780   27.3650 C.2   301  HEM301      0.0000
      5  C1A      -45.8490  -40.1910   27.0610 C.2   301  HEM301      0.0000
      6  C2A      -45.3820  -41.5700   26.9330 C.2   301  HEM301      0.0000
      7  C3A      -44.6400  -41.8660   28.0130 C.2   301  HEM301      0.0000
      8  C4A      -44.6010  -40.7010   28.8790 C.2   301  HEM301      0.0000
      9  CMA      -43.9390  -43.2130   28.2970 C.3   301  HEM301      0.0000
     10  CAA      -45.6780  -42.5450   25.7660 C.3   301  HEM301      0.0000
     11  CBA      -45.1720  -41.9890   24.4410 C.3   301  HEM301      0.0000
     12  CGA      -43.6690  -42.0940   24.3810 C.2   301  HEM301      0.0000
     13  O1A      -43.0490  -42.6090   25.3480 O.co2 301  HEM301      0.0000
     14  O2A      -43.0850  -41.6610   23.3570 O.co2 301  HEM301      0.0000
     15  C1B      -43.7220  -39.4150   30.7940 C.ar  301  HEM301      0.0000
     16  C2B      -42.9290  -39.2520   31.9960 C.ar  301  HEM301      0.0000
     17  C3B      -42.9590  -37.9590   32.3390 C.ar  301  HEM301      0.0000
     18  C4B      -43.7770  -37.2300   31.3870 C.ar  301  HEM301      0.0000
     19  CMB      -42.1670  -40.3690   32.7340 C.3   301  HEM301      0.0000
     20  CAB      -42.2570  -37.3280   33.5500 C.2   301  HEM301      0.0000
     21  CBB      -42.1900  -35.9960   33.6200 C.2   301  HEM301      0.0000
     22  C1C      -44.6520  -35.1080   30.3970 C.2   301  HEM301      0.0000
     23  C2C      -44.6470  -33.6590   30.2680 C.2   301  HEM301      0.0000
     24  C3C      -45.3370  -33.3330   29.1630 C.2   301  HEM301      0.0000
     25  C4C      -45.8120  -34.5560   28.5300 C.2   301  HEM301      0.0000
     26  CMC      -43.9680  -32.6730   31.2440 C.3   301  HEM301      0.0000
     27  CAC      -45.5850  -31.9040   28.6460 C.2   301  HEM301      0.0000
     28  CBC      -46.3990  -31.7210   27.6040 C.2   301  HEM301      0.0000
     29  C1D      -46.9740  -35.8590   26.7570 C.ar  301  HEM301      0.0000
     30  C2D      -48.0800  -36.0160   25.8290 C.ar  301  HEM301      0.0000
     31  C3D      -48.1030  -37.5160   25.4690 C.ar  301  HEM301      0.0000
     32  C4D      -47.0130  -38.1290   26.2070 C.ar  301  HEM301      0.0000
     33  CMD      -49.0390  -34.9160   25.3130 C.3   301  HEM301      0.0000
     34  CAD      -49.0800  -38.2330   24.5110 C.3   301  HEM301      0.0000
     35  CBD      -50.2400  -38.8320   25.2990 C.3   301  HEM301      0.0000
     36  CGD      -50.9130  -39.8600   24.4290 C.2   301  HEM301      0.0000
     37  O1D      -52.0410  -40.2970   24.7720 O.co2 301  HEM301      0.0000
     38  O2D      -50.3170  -40.2370   23.3850 O.co2 301  HEM301      0.0000
     39  NA       -45.3520  -39.7090   28.2650 N.2   301  HEM301      0.0000
     40  NB       -44.2230  -38.1620   30.4590 N.ar  301  HEM301      0.0000
     41  NC       -45.3700  -35.6100   29.3200 N.2   301  HEM301      0.0000
     42  ND       -46.3860  -37.1160   26.9420 N.ar  301  HEM301      0.0000
     43 FE        -45.3750  -37.6430   28.7660 Fe    301  HEM301      0.0000
@<TRIPOS>BOND
     1    14    12   ar
     2    38    36   ar
     3    12    11    1
     4    12    13   ar
     5    36    37   ar
     6    36    35    1
     7    11    10    1
     8    34    35    1
     9    34    31    1
    10    33    30    1
    11    31    30   ar
    12    31    32   ar
    13    10     6    1
    14    30    29   ar
    15     1    32    2
    16     1     5    1
    17    32    42   ar
    18    29    42   ar
    19    29     4    2
    20     6     5    1
    21     6     7    2
    22    42    43    1
    23     5    39    2
    24     4    25    1
    25    28    27    2
    26     7     9    1
    27     7     8    1
    28    39    43    1
    29    39     8    1
    30    25    24    1
    31    25    41    2
    32    27    24    1
    33    43    41    1
    34    43    40    1
    35     8     2    2
    36    24    23    2
    37    41    22    1
    38     2    15    1
    39    23    22    1
    40    23    26    1
    41    22     3    2
    42    40    15   ar
    43    40    18   ar
    44    15    16   ar
    45    18     3    1
    46    18    17   ar
    47    16    17   ar
    48    16    19    1
    49    17    20    1
    50    20    21    2
