@<TRIPOS>MOLECULE
3qbc_B55_A_1.pdb
 12 13 0 0 0
SMALL
GASTEIGER

@<TRIPOS>ATOM
      1  O1         0.7840   -1.6030   11.1050 O.2   159  B55159     -0.2051
      2  C5         1.4320   -2.1050   12.0240 C.1   159  B55159      0.2590
      3  C2         1.5760   -1.5410   13.3630 C.2   159  B55159      0.3236
      4  N1         1.0910   -0.3620   13.9010 N.2   159  B55159     -0.3081
      5  N4         2.0960   -3.3220   11.9820 N.2   159  B55159     -0.2465
      6  C4         2.8220   -3.9250   13.0040 C.1   159  B55159      0.2618
      7  N3         3.4010   -5.1210   12.7400 N.pl3 159  B55159     -0.0220
      8  N2         2.9280   -3.4320   14.2030 N.2   159  B55159     -0.2543
      9  C3         2.2940   -2.2300   14.2640 C.1   159  B55159      0.2060
     10  N5         2.2610   -1.4570   15.4320 N.2   159  B55159     -0.2639
     11  C1         1.5130   -0.3840   15.1440 C.1   159  B55159      0.1914
     12  S1         1.1930    0.8130   16.3880 S.2   159  B55159      0.0582
@<TRIPOS>BOND
     1     1     2    2
     2     5     2    2
     3     5     6    2
     4     2     3    1
     5     7     6    1
     6     6     8    2
     7     3     4    2
     8     3     9    1
     9     4    11    2
    10     8     9    2
    11     9    10    2
    12    11    10    2
    13    11    12    2
