@<TRIPOS>MOLECULE
3qbd_NAD_A_1.pdb
 44 48 0 0 0
SMALL
GASTEIGER

@<TRIPOS>ATOM
      1  PA       -55.9410   36.3920    8.4680 P.3   400  NAD400      0.2189
      2  O1A      -55.0810   35.4970    7.6000 O.2   400  NAD400     -0.5170
      3  O2A      -55.4890   36.7460    9.8630 O.3   400  NAD400     -0.4371
      4  O5B      -57.3690   35.6990    8.5220 O.3   400  NAD400     -0.3112
      5  C5B      -58.5060   36.3340    9.1110 C.3   400  NAD400      0.1813
      6  C4B      -59.2950   35.3160    9.9510 C.3   400  NAD400      0.1821
      7  O4B      -60.1690   34.4520    9.1870 O.3   400  NAD400     -0.3135
      8  C3B      -58.3390   34.3950   10.6670 C.3   400  NAD400      0.2184
      9  O3B      -58.8790   34.3530   11.9730 O.3   400  NAD400     -0.2174
     10  C2B      -58.5330   33.0650    9.9630 C.3   400  NAD400      0.2570
     11  O2B      -58.2320   31.9490   10.7690 O.3   400  NAD400     -0.2130
     12  C1B      -60.0060   33.0860    9.6380 C.3   400  NAD400      0.3186
     13  N9A      -60.3530   32.3210    8.4420 N.pl3 400  NAD400     -0.1439
     14  C8A      -59.5100   32.1730    7.4050 C.3   400  NAD400      0.3377
     15  N7A      -60.1460   31.4840    6.4450 N.2   400  NAD400     -0.2095
     16  C5A      -61.3840   31.2060    6.8920 C.2   400  NAD400      0.2526
     17  C6A      -62.5390   30.4810    6.2940 C.2   400  NAD400      0.4393
     18  N6A      -62.4130   30.0100    5.0440 N.pl3 400  NAD400      0.2180
     19  N1A      -63.6670   30.3460    7.0070 N.2   400  NAD400      0.0021
     20  C2A      -63.7320   30.8950    8.2330 C.3   400  NAD400      0.5254
     21  N3A      -62.6920   31.5570    8.7890 N.2   400  NAD400     -0.0055
     22  C4A      -61.5280   31.7440    8.1490 C.2   400  NAD400      0.3518
     23  O3       -56.1400   37.8370    7.7830 O.3   400  NAD400     -0.2703
     24  PN       -56.4090   38.1170    6.2480 P.3   400  NAD400      0.2189
     25  O1N      -56.6720   36.8480    5.5430 O.2   400  NAD400     -0.5170
     26  O2N      -57.2860   39.2850    6.2260 O.3   400  NAD400     -0.4371
     27  O5D      -55.0060   38.6730    5.8130 O.3   400  NAD400     -0.3112
     28  C5D      -54.3870   39.7070    6.5560 C.3   400  NAD400      0.1813
     29  C4D      -52.8910   39.5200    6.3460 C.3   400  NAD400      0.1799
     30  O4D      -52.6080   39.4840    4.9250 O.3   400  NAD400     -0.3327
     31  C3D      -52.1480   40.6990    6.9470 C.3   400  NAD400      0.2158
     32  O3D      -51.1490   40.1690    7.7790 O.3   400  NAD400     -0.2175
     33  C2D      -51.5610   41.3550    5.7300 C.3   400  NAD400      0.2309
     34  O2D      -50.3340   42.0200    5.9590 O.3   400  NAD400     -0.2158
     35  C1D      -51.4360   40.2350    4.7130 C.3   400  NAD400      0.2263
     36  N1N      -51.4070   40.7090    3.3330 N.pl3 400  NAD400     -0.2787
     37  C2N      -50.3230   40.4400    2.5910 C.3   400  NAD400      0.1244
     38  C3N      -50.2400   40.8830    1.2630 C.2   400  NAD400      0.0544
     39  C7N      -49.0490   40.5570    0.4140 C.2   400  NAD400      0.2818
     40  O7N      -49.0190   41.0710   -0.6810 O.2   400  NAD400     -0.2670
     41  N7N      -48.1100   39.6800    0.8400 N.am  400  NAD400     -0.0839
     42  C4N      -51.2920   41.6050    0.6950 C.2   400  NAD400      0.0033
     43  C5N      -52.3910   41.8680    1.5060 C.2   400  NAD400      0.0157
     44  C6N      -52.4240   41.4000    2.8270 C.2   400  NAD400      0.0633
@<TRIPOS>BOND
     1    40    39    2
     2    39    41   am
     3    39    38    1
     4    42    38    2
     5    42    43    1
     6    38    37    1
     7    43    44    2
     8    37    36    1
     9    44    36    1
    10    36    35    1
    11    35    30    1
    12    35    33    1
    13    30    29    1
    14    18    17    1
    15    25    24    2
    16    33    34    1
    17    33    31    1
    18    27    24    1
    19    27    28    1
    20    26    24    1
    21    24    23    1
    22    17    16    1
    23    17    19    2
    24    29    28    1
    25    29    31    1
    26    15    16    2
    27    15    14    1
    28    16    22    1
    29    31    32    1
    30    19    20    1
    31    14    13    1
    32     2     1    2
    33    23     1    1
    34    22    13    1
    35    22    21    2
    36    20    21    1
    37    13    12    1
    38     1     4    1
    39     1     3    1
    40     4     5    1
    41     5     6    1
    42     7    12    1
    43     7     6    1
    44    12    10    1
    45     6     8    1
    46    10     8    1
    47    10    11    1
    48     8     9    1
