@<TRIPOS>MOLECULE
3qbf_JHG_A_1.pdb
 39 42 0 0 0
SMALL
GASTEIGER

@<TRIPOS>ATOM
      1  C1        16.9770  -18.7270   -5.7110 C.3   100  JHG100      0.1082
      2  C2        16.4580  -20.1190   -5.3900 C.3   100  JHG100      0.1142
      3  N3        16.7070  -18.5090   -7.1200 N.3   100  JHG100     -0.2118
      4  C4        17.6070  -19.1160   -8.0900 C.3   100  JHG100      0.1150
      5  C5        18.7650  -18.1620   -8.1860 C.ar  100  JHG100     -0.0048
      6  C6        18.5220  -16.9210   -8.7470 C.ar  100  JHG100     -0.0029
      7  C7        19.5450  -16.0010   -8.8460 C.ar  100  JHG100      0.0036
      8  C8        20.8060  -16.3300   -8.3800 C.ar  100  JHG100      0.0714
      9  C9        21.8750  -15.2980   -8.5100 C.3   100  JHG100      0.4186
     10  F10       21.4790  -14.2660   -7.7910 F     100  JHG100     -0.1659
     11  F11       21.9950  -14.9140   -9.7680 F     100  JHG100     -0.1659
     12  F12       23.0300  -15.7570   -8.0710 F     100  JHG100     -0.1659
     13  C13       21.0580  -17.5750   -7.8120 C.ar  100  JHG100      0.0036
     14  C14       20.0280  -18.5040   -7.7130 C.ar  100  JHG100     -0.0029
     15  C15       16.1690  -17.7540   -4.8740 C.3   100  JHG100      0.1075
     16  N16       14.9510  -18.4700   -4.5720 N.3   100  JHG100     -0.2150
     17  C17       15.1080  -19.9160   -4.6850 C.3   100  JHG100      0.1078
     18  N18       17.3390  -20.8790   -4.4870 N.3   100  JHG100     -0.1541
     19  C19       17.8470  -20.2410   -3.2770 C.3   100  JHG100      0.0962
     20  C20       19.2310  -19.6860   -3.5800 C.3   100  JHG100      0.0238
     21  C21       19.5010  -18.5210   -2.6440 C.3   100  JHG100      0.0278
     22  C22       20.9850  -18.3510   -2.4360 C.ar  100  JHG100     -0.0221
     23  C23       21.8960  -19.1000   -3.1760 C.ar  100  JHG100     -0.0043
     24  C24       23.2620  -18.9290   -2.9610 C.ar  100  JHG100     -0.0003
     25  C25       23.7040  -18.0140   -2.0120 C.ar  100  JHG100     -0.0000
     26  C26       22.7900  -17.2630   -1.2830 C.ar  100  JHG100     -0.0003
     27  C27       21.4280  -17.4280   -1.4960 C.ar  100  JHG100     -0.0043
     28  S28       17.5890  -22.3580   -4.7860 S.O2  100  JHG100      0.0633
     29  O29       18.6950  -22.8140   -3.9930 O.2   100  JHG100     -0.1528
     30  O30       17.7970  -22.5180   -6.2000 O.2   100  JHG100     -0.1528
     31  C31       16.2280  -23.0880   -4.2860 C.ar  100  JHG100      0.1222
     32  C32       16.0340  -23.3420   -2.9300 C.ar  100  JHG100      0.0201
     33  C33       14.8670  -23.9540   -2.4700 C.ar  100  JHG100      0.0060
     34  C34       13.8720  -24.3220   -3.3660 C.ar  100  JHG100      0.0567
     35  C35       12.6190  -24.9780   -2.8390 C.2   100  JHG100      0.2842
     36  N36       11.9400  -25.8380   -3.5920 N.am  100  JHG100     -0.0837
     37  O37       12.2530  -24.7140   -1.7030 O.2   100  JHG100     -0.2667
     38  C38       14.0520  -24.0650   -4.7240 C.ar  100  JHG100      0.0060
     39  C39       15.2280  -23.4580   -5.1810 C.ar  100  JHG100      0.0201
@<TRIPOS>BOND
     1    11     9    1
     2     7     6   ar
     3     7     8   ar
     4     6     5   ar
     5     9     8    1
     6     9    12    1
     7     9    10    1
     8     8    13   ar
     9     5     4    1
    10     5    14   ar
    11     4     3    1
    12    13    14   ar
    13     3     1    1
    14    30    28    2
    15     1     2    1
    16     1    15    1
    17     2    17    1
    18     2    18    1
    19    39    38   ar
    20    39    31   ar
    21    15    16    1
    22    28    18    1
    23    28    31    1
    24    28    29    2
    25    38    34   ar
    26    17    16    1
    27    18    19    1
    28    31    32   ar
    29    36    35   am
    30    20    19    1
    31    20    21    1
    32    34    35    1
    33    34    33   ar
    34    23    24   ar
    35    23    22   ar
    36    24    25   ar
    37    32    33   ar
    38    35    37    2
    39    21    22    1
    40    22    27   ar
    41    25    26   ar
    42    27    26   ar
