@<TRIPOS>MOLECULE
3qbg_RET_A_1.pdb
 20 20 0 0 0
SMALL
GASTEIGER

@<TRIPOS>ATOM
      1  C1        40.5660   -5.6940   22.6370 C.3   292  RET292      0.0183
      2  C2        40.9940   -6.7740   21.5590 C.3   292  RET292      0.0044
      3  C3        41.5560   -6.3450   20.2850 C.3   292  RET292      0.0047
      4  C4        42.5050   -5.1680   20.3530 C.3   292  RET292      0.0217
      5  C5        42.1570   -4.0690   21.3630 C.2   292  RET292     -0.0479
      6  C6        41.2850   -4.2520   22.4470 C.2   292  RET292     -0.0307
      7  C7        41.0720   -3.0500   23.4030 C.2   292  RET292     -0.0052
      8  C8        40.2670   -2.9520   24.4820 C.2   292  RET292     -0.0046
      9  C9        40.2020   -1.8740   25.4630 C.2   292  RET292     -0.0219
     10  C10       39.2770   -2.0190   26.4560 C.2   292  RET292     -0.0043
     11  C11       39.0250   -1.1360   27.5770 C.2   292  RET292     -0.0007
     12  C12       38.0700   -1.4660   28.4400 C.2   292  RET292     -0.0046
     13  C13       37.6500   -0.7420   29.6470 C.2   292  RET292     -0.0261
     14  C14       36.6060   -1.3120   30.2820 C.2   292  RET292     -0.0300
     15  C15       35.8290   -0.8910   31.4250 C.3   292  RET292      0.0304
     16  C16       39.0480   -5.6070   22.4670 C.3   292  RET292      0.0043
     17  C17       40.8550   -6.3740   23.9880 C.3   292  RET292      0.0043
     18  C18       42.8900   -2.7670   21.0330 C.3   292  RET292      0.0260
     19  C19       41.1490   -0.6970   25.3980 C.3   292  RET292      0.0310
     20  C20       38.2910    0.5590   30.0930 C.3   292  RET292      0.0307
@<TRIPOS>BOND
     1     3     4    1
     2     3     2    1
     3     4     5    1
     4    18     5    1
     5     5     6    2
     6     2     1    1
     7     6     1    1
     8     6     7    1
     9    16     1    1
    10     1    17    1
    11     7     8    2
    12     8     9    1
    13    19     9    1
    14     9    10    2
    15    10    11    1
    16    11    12    2
    17    12    13    1
    18    13    20    1
    19    13    14    2
    20    14    15    1
