@<TRIPOS>MOLECULE
3qbg_22B_B_1.pdb
 27 26 0 0 0
SMALL
GASTEIGER

@<TRIPOS>ATOM
      1  C1        40.8980   13.6690    9.9170 C.3   300  22B300      0.1267
      2  C2        41.4910   13.4730   11.4000 C.3   300  22B300      0.0285
      3  C3        41.4020   11.9390   11.9420 C.3   300  22B300      0.0068
      4  C4        41.8860   10.7410   11.4970 C.3   300  22B300      0.0221
      5  C5        41.3530    9.3920   11.7410 C.2   300  22B300     -0.0439
      6  C6        42.0690    8.3970   11.1640 C.2   300  22B300     -0.0085
      7  C7        41.7970    6.9740   11.2240 C.2   300  22B300     -0.0010
      8  C8        42.5210    5.9930   10.6490 C.2   300  22B300     -0.0043
      9  C9        42.1480    4.5580   10.7750 C.2   300  22B300     -0.0218
     10  C10       42.8370    3.6920    9.9740 C.2   300  22B300     -0.0043
     11  C11       42.6350    2.2340    9.9270 C.2   300  22B300     -0.0007
     12  C12       42.9570    1.5570    8.8300 C.2   300  22B300     -0.0046
     13  C13       42.8120    0.0960    8.6240 C.2   300  22B300     -0.0261
     14  C14       43.2300   -0.2680    7.4020 C.2   300  22B300     -0.0300
     15  C15       43.3110   -1.5520    6.6870 C.3   300  22B300      0.0304
     16  C16       39.3700   13.2900    9.7120 C.3   300  22B300      0.0329
     17  C17       41.0340   15.1660    9.4450 C.3   300  22B300      0.0329
     18  C18       40.0750    9.1320   12.5940 C.3   300  22B300      0.0264
     19  C19       41.0200    4.0860   11.7780 C.3   300  22B300      0.0310
     20  C20       42.2400   -0.8970    9.6890 C.3   300  22B300      0.0307
     21  C21       40.6840   14.3240   12.4770 C.3   300  22B300      0.0050
     22  C22       41.2690   14.1680   13.9640 C.3   300  22B300      0.0305
     23  C23       40.5630   14.7640   15.2520 C.3   300  22B300      0.1268
     24  C24       39.2330   15.5370   15.0670 C.3   300  22B300      0.0329
     25  C25       40.3280   13.6320   16.2770 C.3   300  22B300      0.0329
     26  O26       41.6420   12.9120    8.9750 O.3   300  22B300     -0.2257
     27  O27       41.5810   15.7470   15.8600 O.3   300  22B300     -0.2257
@<TRIPOS>BOND
     1    15    14    1
     2    14    13    2
     3    13    12    1
     4    13    20    1
     5    12    11    2
     6    26     1    1
     7    17     1    1
     8    16     1    1
     9     1     2    1
    10    11    10    1
    11    10     9    2
    12     8     9    1
    13     8     7    2
    14     9    19    1
    15     6     7    1
    16     6     5    2
    17     2     3    1
    18     2    21    1
    19     4     5    1
    20     4     3    1
    21     5    18    1
    22    21    22    1
    23    22    23    1
    24    24    23    1
    25    23    27    1
    26    23    25    1
