@<TRIPOS>MOLECULE
3qbh_QBH_A_1.pdb
 38 41 0 0 0
SMALL
GASTEIGER

@<TRIPOS>ATOM
      1  S1        28.7780    5.2150   14.3000 S.O2  387  QBH387     -0.0084
      2  C2        29.5930    3.6230   14.1070 C.3   387  QBH387      0.1707
      3  C5        30.9700    3.8330   13.4070 C.3   387  QBH387      0.1270
      4  C7        31.9250    4.7850   14.1980 C.3   387  QBH387      0.1715
      5  C9        31.3680    6.2090   14.5170 C.3   387  QBH387      0.0598
      6  C11       29.9880    6.1180   15.2500 C.3   387  QBH387      0.1537
      7  C14       32.3940    7.0700   15.3420 C.3   387  QBH387      0.0307
      8  C17       31.8020    8.3860   15.8730 C.ar  387  QBH387     -0.0222
      9  C18       31.5160    8.5250   17.2550 C.ar  387  QBH387     -0.0053
     10  C20       30.9550    9.7160   17.7760 C.ar  387  QBH387      0.0182
     11  C21       30.6770   10.7830   16.8740 C.ar  387  QBH387      0.1917
     12  C22       30.9710   10.6570   15.4960 C.ar  387  QBH387      0.0414
     13  C24       31.5340    9.4630   14.9910 C.ar  387  QBH387     -0.0010
     14  O26       30.1060   11.9770   17.3100 O.3   387  QBH387     -0.2869
     15  C28       30.6650    9.8190   19.2910 C.3   387  QBH387      0.0533
     16  C31       29.3520    9.1360   19.7770 C.3   387  QBH387      0.1267
     17  N33       29.2380    7.6830   19.6880 N.am  387  QBH387     -0.2436
     18  C34       28.1800    7.2680   18.9400 C.2   387  QBH387      0.4050
     19  O35       27.5250    8.3320   18.4570 O.3   387  QBH387     -0.4327
     20  C36       28.0520    9.5350   19.0420 C.3   387  QBH387      0.2301
     21  O39       27.8220    6.1280   18.6920 O.2   387  QBH387     -0.2262
     22  C40       30.1620    6.7260   20.3190 C.3   387  QBH387      0.0968
     23  C43       30.2440    6.7890   21.8660 C.3   387  QBH387      0.0216
     24  C46       31.1530    5.6460   22.3960 C.3   387  QBH387      0.0018
     25  O50       33.1640    4.8650   13.4740 O.3   387  QBH387     -0.2215
     26  N52       31.6490    2.5440   13.0870 N.3   387  QBH387     -0.2103
     27  C54       31.0770    1.6410   12.0330 C.3   387  QBH387      0.1151
     28  C57       30.9750    2.3530   10.6680 C.ar  387  QBH387     -0.0051
     29  C58       32.1410    2.7400    9.9650 C.ar  387  QBH387     -0.0072
     30  C60       32.0660    3.3980    8.7080 C.ar  387  QBH387     -0.0228
     31  C61       30.7890    3.6680    8.1630 C.ar  387  QBH387     -0.0043
     32  C63       29.6130    3.2880    8.8530 C.ar  387  QBH387     -0.0006
     33  C65       29.7040    2.6300   10.1050 C.ar  387  QBH387     -0.0029
     34  C67       33.3530    3.8070    7.9570 C.3   387  QBH387      0.0223
     35  C69       33.9860    5.0620    8.6140 C.3   387  QBH387      0.0047
     36  C73       34.4040    2.6810    7.7570 C.3   387  QBH387      0.0047
     37  O77       27.5960    4.9960   15.1010 O.2   387  QBH387     -0.1729
     38  O78       28.6370    5.8460   13.0000 O.2   387  QBH387     -0.1729
@<TRIPOS>BOND
     1    36    34    1
     2    34    35    1
     3    34    30    1
     4    31    30   ar
     5    31    32   ar
     6    30    29   ar
     7    32    33   ar
     8    29    28   ar
     9    33    28   ar
    10    28    27    1
    11    27    26    1
    12    38     1    2
    13    26     3    1
    14     3     2    1
    15     3     4    1
    16    25     4    1
    17     2     1    1
    18     4     5    1
    19     1    37    2
    20     1     6    1
    21     5     6    1
    22     5     7    1
    23    13    12   ar
    24    13     8   ar
    25     7     8    1
    26    12    11   ar
    27     8     9   ar
    28    11    14    1
    29    11    10   ar
    30     9    10   ar
    31    10    15    1
    32    19    18    1
    33    19    20    1
    34    21    18    2
    35    18    17   am
    36    20    16    1
    37    15    16    1
    38    17    16    1
    39    17    22    1
    40    22    23    1
    41    23    24    1
