@<TRIPOS>MOLECULE
3qbi_22B_B_1.pdb
 27 26 0 0 0
SMALL
GASTEIGER

@<TRIPOS>ATOM
      1  C1        41.0710   13.5000    9.5200 C.3   300  22B300      0.1267
      2  C2        41.6360   13.3350   11.0340 C.3   300  22B300      0.0285
      3  C3        41.4990   11.8100   11.6200 C.3   300  22B300      0.0068
      4  C4        41.9310   10.5550   11.2750 C.3   300  22B300      0.0221
      5  C5        41.2940    9.2440   11.5230 C.2   300  22B300     -0.0439
      6  C6        42.0180    8.1870   11.0540 C.2   300  22B300     -0.0085
      7  C7        41.7090    6.7650   11.1230 C.2   300  22B300     -0.0010
      8  C8        42.4790    5.7590   10.6420 C.2   300  22B300     -0.0043
      9  C9        42.1030    4.3170   10.7450 C.2   300  22B300     -0.0218
     10  C10       42.6080    3.5030    9.7650 C.2   300  22B300     -0.0043
     11  C11       42.3770    2.0490    9.6400 C.2   300  22B300     -0.0007
     12  C12       42.9080    1.3630    8.6320 C.2   300  22B300     -0.0046
     13  C13       42.7520   -0.0940    8.3770 C.2   300  22B300     -0.0261
     14  C14       43.4160   -0.4620    7.2650 C.2   300  22B300     -0.0300
     15  C15       43.6090   -1.7350    6.5420 C.3   300  22B300      0.0304
     16  C16       39.5410   13.1540    9.2630 C.3   300  22B300      0.0329
     17  C17       41.2420   14.9770    9.0060 C.3   300  22B300      0.0329
     18  C18       39.9280    9.0980   12.2630 C.3   300  22B300      0.0264
     19  C19       41.1700    3.7900   11.9190 C.3   300  22B300      0.0310
     20  C20       41.9200   -1.0720    9.2800 C.3   300  22B300      0.0307
     21  C21       40.8280   14.2220   12.0950 C.3   300  22B300      0.0050
     22  C22       41.4150   14.0980   13.6000 C.3   300  22B300      0.0305
     23  C23       40.6870   14.6370   14.9060 C.3   300  22B300      0.1268
     24  C24       39.3050   15.3190   14.7620 C.3   300  22B300      0.0329
     25  C25       40.5510   13.4910   15.9410 C.3   300  22B300      0.0329
     26  O26       41.8270   12.7030    8.6210 O.3   300  22B300     -0.2257
     27  O27       41.6520   15.6760   15.4880 O.3   300  22B300     -0.2257
@<TRIPOS>BOND
     1    15    14    1
     2    14    13    2
     3    13    12    1
     4    13    20    1
     5    26     1    1
     6    12    11    2
     7    17     1    1
     8    16     1    1
     9     1     2    1
    10    11    10    1
    11    10     9    2
    12     8     9    1
    13     8     7    2
    14     9    19    1
    15     2     3    1
    16     2    21    1
    17     6     7    1
    18     6     5    2
    19     4     5    1
    20     4     3    1
    21     5    18    1
    22    21    22    1
    23    22    23    1
    24    24    23    1
    25    23    27    1
    26    23    25    1
