@<TRIPOS>MOLECULE
3qbi_RET_A_1.pdb
 20 20 0 0 0
SMALL
GASTEIGER

@<TRIPOS>ATOM
      1  C1        40.6850   -5.6570   22.3810 C.3   292  RET292      0.0183
      2  C2        41.1510   -6.7190   21.2980 C.3   292  RET292      0.0044
      3  C3        41.6060   -6.2370   20.0040 C.3   292  RET292      0.0047
      4  C4        42.5670   -5.0620   20.0690 C.3   292  RET292      0.0217
      5  C5        42.2410   -3.9950   21.1110 C.2   292  RET292     -0.0479
      6  C6        41.3770   -4.2050   22.2040 C.2   292  RET292     -0.0307
      7  C7        41.1620   -3.0250   23.1800 C.2   292  RET292     -0.0052
      8  C8        40.3610   -2.9520   24.2700 C.2   292  RET292     -0.0046
      9  C9        40.2920   -1.8890   25.2620 C.2   292  RET292     -0.0219
     10  C10       39.3570   -2.0620   26.2500 C.2   292  RET292     -0.0043
     11  C11       39.1040   -1.2230   27.4030 C.2   292  RET292     -0.0007
     12  C12       38.1320   -1.5490   28.2590 C.2   292  RET292     -0.0046
     13  C13       37.7470   -0.8140   29.4750 C.2   292  RET292     -0.0261
     14  C14       36.6290   -1.2920   30.0740 C.2   292  RET292     -0.0300
     15  C15       35.8330   -0.7890   31.1760 C.3   292  RET292      0.0304
     16  C16       39.1620   -5.6030   22.1820 C.3   292  RET292      0.0043
     17  C17       40.9920   -6.3320   23.7310 C.3   292  RET292      0.0043
     18  C18       42.9880   -2.7000   20.8040 C.3   292  RET292      0.0260
     19  C19       41.2290   -0.7020   25.2000 C.3   292  RET292      0.0310
     20  C20       38.4780    0.4300   29.9410 C.3   292  RET292      0.0307
@<TRIPOS>BOND
     1     3     4    1
     2     3     2    1
     3     4     5    1
     4    18     5    1
     5     5     6    2
     6     2     1    1
     7    16     1    1
     8     6     1    1
     9     6     7    1
    10     1    17    1
    11     7     8    2
    12     8     9    1
    13    19     9    1
    14     9    10    2
    15    10    11    1
    16    11    12    2
    17    12    13    1
    18    13    20    1
    19    13    14    2
    20    14    15    1
