@<TRIPOS>MOLECULE
3qbj_NXZ_A_1.pdb
 25 28 0 0 0
SMALL
GASTEIGER

@<TRIPOS>ATOM
      1  N1        18.5470   18.4120   34.1770 N.pl3 900  NXZ900     -0.1910
      2  C2        19.1210   17.3670   36.1700 C.3   900  NXZ900      0.1605
      3  C3        17.6580   17.8450   36.1450 C.3   900  NXZ900      0.1435
      4  C4        17.5700   18.9700   35.1520 C.3   900  NXZ900      0.2234
      5  C5        19.4730   17.3340   34.6620 C.3   900  NXZ900      0.2228
      6  C6        20.1920   18.6880   29.4590 C.ar  900  NXZ900      0.0139
      7  C7        20.0080   19.3420   28.1350 C.ar  900  NXZ900      0.0012
      8  C8        20.8730   18.9380   27.0620 C.ar  900  NXZ900      0.0000
      9  C9        21.9060   17.9500   27.3070 C.ar  900  NXZ900      0.0000
     10  C10       22.1110   17.3210   28.5820 C.ar  900  NXZ900      0.0000
     11  C11       21.2290   17.6790   29.6660 C.ar  900  NXZ900      0.0012
     12  C12       19.3030   19.0710   30.5990 C.2   900  NXZ900      0.0703
     13  C13       19.4290   18.4580   31.8850 C.3   900  NXZ900      0.1620
     14  C14       18.5390   18.9190   32.8780 C.2   900  NXZ900      0.3031
     15  N15       17.6160   19.9350   32.5300 N.2   900  NXZ900     -0.0407
     16  C16       17.4930   20.5050   31.3250 C.3   900  NXZ900      0.3911
     17  N17       18.3320   20.0610   30.3840 N.2   900  NXZ900     -0.2225
     18  N18       19.1970   16.0660   36.7340 N.3   900  NXZ900     -0.1266
     19  N19       17.1490   18.1630   37.4930 N.am  900  NXZ900     -0.2755
     20  C20       17.6440   19.4280   38.1320 C.3   900  NXZ900      0.0936
     21  C21       17.3480   19.5530   39.6290 C.3   900  NXZ900      0.0220
     22  C22       16.0610   18.7860   40.1310 C.3   900  NXZ900      0.0113
     23  C23       15.8810   17.3690   39.5190 C.3   900  NXZ900      0.0853
     24  C24       16.3230   17.2040   38.0450 C.2   900  NXZ900      0.2257
     25  O25       15.9870   16.1660   37.4340 O.2   900  NXZ900     -0.2749
@<TRIPOS>BOND
     1     8     9   ar
     2     8     7   ar
     3     9    10   ar
     4     7     6   ar
     5    10    11   ar
     6     6    11   ar
     7     6    12    1
     8    17    12    2
     9    17    16    1
    10    12    13    1
    11    16    15    1
    12    13    14    1
    13    15    14    2
    14    14     1    1
    15     1     5    1
    16     1     4    1
    17     5     2    1
    18     4     3    1
    19     3     2    1
    20     3    19    1
    21     2    18    1
    22    25    24    2
    23    19    24   am
    24    19    20    1
    25    24    23    1
    26    20    21    1
    27    23    22    1
    28    21    22    1
