@<TRIPOS>MOLECULE
3qbk_22B_A_1.pdb
 27 26 0 0 0
SMALL
GASTEIGER

@<TRIPOS>ATOM
      1  C1        23.6200   12.8160   40.4830 C.3   300  22B300      0.1267
      2  C2        22.0490   12.8770   40.0840 C.3   300  22B300      0.0285
      3  C3        21.4850   11.4360   39.5460 C.3   300  22B300      0.0068
      4  C4        21.4100   10.1570   40.0430 C.3   300  22B300      0.0221
      5  C5        21.3950    8.8700   39.3220 C.2   300  22B300     -0.0439
      6  C6        21.2930    7.7850   40.1430 C.2   300  22B300     -0.0085
      7  C7        21.2370    6.3710   39.7880 C.2   300  22B300     -0.0010
      8  C8        21.1270    5.3420   40.6610 C.2   300  22B300     -0.0043
      9  C9        21.0610    3.9100   40.2470 C.2   300  22B300     -0.0218
     10  C10       21.5720    3.0090   41.1450 C.2   300  22B300     -0.0043
     11  C11       21.6250    1.5390   40.9830 C.2   300  22B300     -0.0007
     12  C12       22.1610    0.7920   41.9430 C.2   300  22B300     -0.0046
     13  C13       22.3120   -0.6880   41.9700 C.2   300  22B300     -0.0261
     14  C14       22.9080   -1.0780   43.1100 C.2   300  22B300     -0.0300
     15  C15       23.3130   -2.3760   43.6800 C.3   300  22B300      0.0304
     16  C16       24.6360   12.3900   39.3380 C.3   300  22B300      0.0329
     17  C17       24.1430   14.2110   41.0080 C.3   300  22B300      0.0329
     18  C18       21.4740    8.7770   37.7710 C.3   300  22B300      0.0264
     19  C19       20.4280    3.4870   38.8530 C.3   300  22B300      0.0310
     20  C20       21.8480   -1.6650   40.8310 C.3   300  22B300      0.0307
     21  C21       21.7390   13.8940   38.8770 C.3   300  22B300      0.0050
     22  C22       20.1660   13.9730   38.4950 C.3   300  22B300      0.0305
     23  C23       19.5730   14.7560   37.2430 C.3   300  22B300      0.1268
     24  C24       20.5480   15.5020   36.3020 C.3   300  22B300      0.0329
     25  C25       18.7330   13.7830   36.3800 C.3   300  22B300      0.0329
     26  O26       23.8220   11.9110   41.5620 O.3   300  22B300     -0.2257
     27  O27       18.6150   15.8020   37.8370 O.3   300  22B300     -0.2257
@<TRIPOS>BOND
     1    24    23    1
     2    25    23    1
     3    23    27    1
     4    23    22    1
     5    18     5    1
     6    22    21    1
     7    19     9    1
     8    21     2    1
     9     5     4    1
    10     5     6    2
    11    16     1    1
    12     3     4    1
    13     3     2    1
    14     7     6    1
    15     7     8    2
    16     2     1    1
    17     9     8    1
    18     9    10    2
    19     1    17    1
    20     1    26    1
    21    20    13    1
    22    11    10    1
    23    11    12    2
    24    12    13    1
    25    13    14    2
    26    14    15    1
