@<TRIPOS>MOLECULE
3qbk_RET_A_1.pdb
 20 20 0 0 0
SMALL
GASTEIGER

@<TRIPOS>ATOM
      1  C1        40.6190   -5.8150   22.2830 C.3   292  RET292      0.0183
      2  C2        41.0430   -6.9030   21.2250 C.3   292  RET292      0.0044
      3  C3        41.4320   -6.4570   19.8950 C.3   292  RET292      0.0047
      4  C4        42.3980   -5.2670   19.8790 C.3   292  RET292      0.0217
      5  C5        42.1280   -4.1810   20.9210 C.2   292  RET292     -0.0479
      6  C6        41.3130   -4.3720   22.0600 C.2   292  RET292     -0.0307
      7  C7        41.1650   -3.1750   23.0270 C.2   292  RET292     -0.0052
      8  C8        40.3960   -3.0900   24.1380 C.2   292  RET292     -0.0046
      9  C9        40.2890   -2.0450   25.1380 C.2   292  RET292     -0.0219
     10  C10       39.3420   -2.2820   26.1170 C.2   292  RET292     -0.0043
     11  C11       39.0540   -1.4530   27.2710 C.2   292  RET292     -0.0007
     12  C12       38.0700   -1.8100   28.1040 C.2   292  RET292     -0.0046
     13  C13       37.6360   -1.0790   29.3090 C.2   292  RET292     -0.0261
     14  C14       36.5560   -1.6160   29.9410 C.2   292  RET292     -0.0300
     15  C15       35.7570   -1.1060   31.0440 C.3   292  RET292      0.0304
     16  C16       39.0930   -5.7420   22.1150 C.3   292  RET292      0.0043
     17  C17       40.9680   -6.4770   23.6290 C.3   292  RET292      0.0043
     18  C18       42.8810   -2.8710   20.5930 C.3   292  RET292      0.0260
     19  C19       41.1590   -0.8020   25.1160 C.3   292  RET292      0.0310
     20  C20       38.3060    0.2280   29.7300 C.3   292  RET292      0.0307
@<TRIPOS>BOND
     1     4     3    1
     2     4     5    1
     3     3     2    1
     4    18     5    1
     5     5     6    2
     6     2     1    1
     7     6     1    1
     8     6     7    1
     9    16     1    1
    10     1    17    1
    11     7     8    2
    12     8     9    1
    13    19     9    1
    14     9    10    2
    15    10    11    1
    16    11    12    2
    17    12    13    1
    18    13    20    1
    19    13    14    2
    20    14    15    1
