@<TRIPOS>MOLECULE
3qbl_22B_B_1.pdb
 27 26 0 0 0
SMALL
GASTEIGER

@<TRIPOS>ATOM
      1  C1        41.0570   13.2670    9.6130 C.3   300  22B300      0.1267
      2  C2        41.5750   13.2190   11.1460 C.3   300  22B300      0.0285
      3  C3        41.3930   11.7320   11.8230 C.3   300  22B300      0.0068
      4  C4        41.8340   10.4600   11.5370 C.3   300  22B300      0.0221
      5  C5        41.0990    9.1780   11.4910 C.2   300  22B300     -0.0439
      6  C6        41.8910    8.1040   11.1760 C.2   300  22B300     -0.0085
      7  C7        41.5280    6.6930   11.0470 C.2   300  22B300     -0.0010
      8  C8        42.3740    5.6730   10.7370 C.2   300  22B300     -0.0043
      9  C9        41.9340    4.2420   10.6360 C.2   300  22B300     -0.0218
     10  C10       42.5480    3.4900    9.6650 C.2   300  22B300     -0.0043
     11  C11       42.2880    2.0660    9.3760 C.2   300  22B300     -0.0007
     12  C12       42.9380    1.4410    8.3910 C.2   300  22B300     -0.0046
     13  C13       42.7800    0.0140    7.9870 C.2   300  22B300     -0.0261
     14  C14       43.5800   -0.2900    6.9480 C.2   300  22B300     -0.0300
     15  C15       43.8290   -1.5110    6.1560 C.3   300  22B300      0.0304
     16  C16       39.5320   12.9070    9.3540 C.3   300  22B300      0.0329
     17  C17       41.2540   14.7010    8.9920 C.3   300  22B300      0.0329
     18  C18       39.5720    9.0730   11.7860 C.3   300  22B300      0.0264
     19  C19       40.8250    3.6600   11.6060 C.3   300  22B300      0.0310
     20  C20       41.8050   -1.0000    8.6760 C.3   300  22B300      0.0307
     21  C21       40.7440   14.2070   12.1060 C.3   300  22B300      0.0050
     22  C22       41.2630   14.2200   13.6390 C.3   300  22B300      0.0305
     23  C23       40.3330   14.4630   14.9060 C.3   300  22B300      0.1268
     24  C24       38.8190   14.6880   14.6760 C.3   300  22B300      0.0329
     25  C25       40.5040   13.2920   15.9060 C.3   300  22B300      0.0329
     26  O26       41.8280   12.3940    8.7940 O.3   300  22B300     -0.2257
     27  O27       40.8900   15.7310   15.5750 O.3   300  22B300     -0.2257
@<TRIPOS>BOND
     1    15    14    1
     2    14    13    2
     3    13    12    1
     4    13    20    1
     5    12    11    2
     6    26     1    1
     7    17     1    1
     8    16     1    1
     9    11    10    1
    10     1     2    1
    11    10     9    2
    12     9     8    1
    13     9    19    1
    14     8     7    2
    15     7     6    1
    16     2     3    1
    17     2    21    1
    18     6     5    2
    19     5     4    1
    20     5    18    1
    21     4     3    1
    22    21    22    1
    23    22    23    1
    24    24    23    1
    25    23    27    1
    26    23    25    1
