@<TRIPOS>MOLECULE
3qbl_RET_A_1.pdb
 20 20 0 0 0
SMALL
GASTEIGER

@<TRIPOS>ATOM
      1  C1        40.5750   -5.7120   22.2470 C.3   292  RET292      0.0183
      2  C2        40.9780   -6.8030   21.1840 C.3   292  RET292      0.0044
      3  C3        41.4210   -6.3600   19.8740 C.3   292  RET292      0.0047
      4  C4        42.3940   -5.1920   19.8720 C.3   292  RET292      0.0217
      5  C5        42.1500   -4.1120   20.9280 C.2   292  RET292     -0.0479
      6  C6        41.3050   -4.2910   22.0530 C.2   292  RET292     -0.0307
      7  C7        41.1280   -3.0960   23.0300 C.2   292  RET292     -0.0052
      8  C8        40.3330   -3.0320   24.1330 C.2   292  RET292     -0.0046
      9  C9        40.2030   -2.0000   25.1470 C.2   292  RET292     -0.0219
     10  C10       39.2680   -2.2330   26.1330 C.2   292  RET292     -0.0043
     11  C11       39.0100   -1.3900   27.2840 C.2   292  RET292     -0.0007
     12  C12       38.0540   -1.7260   28.1500 C.2   292  RET292     -0.0046
     13  C13       37.6470   -0.9990   29.3650 C.2   292  RET292     -0.0261
     14  C14       36.5860   -1.5520   30.0010 C.2   292  RET292     -0.0300
     15  C15       35.8050   -1.0420   31.1100 C.3   292  RET292      0.0304
     16  C16       39.0490   -5.6140   22.0660 C.3   292  RET292      0.0043
     17  C17       40.8650   -6.3810   23.6020 C.3   292  RET292      0.0043
     18  C18       42.9150   -2.8240   20.5850 C.3   292  RET292      0.0260
     19  C19       41.0760   -0.7680   25.1280 C.3   292  RET292      0.0310
     20  C20       38.2950    0.3070   29.8020 C.3   292  RET292      0.0307
@<TRIPOS>BOND
     1     4     3    1
     2     4     5    1
     3     3     2    1
     4    18     5    1
     5     5     6    2
     6     2     1    1
     7     6     1    1
     8     6     7    1
     9    16     1    1
    10     1    17    1
    11     7     8    2
    12     8     9    1
    13    19     9    1
    14     9    10    2
    15    10    11    1
    16    11    12    2
    17    12    13    1
    18    13    20    1
    19    13    14    2
    20    14    15    1
