@<TRIPOS>MOLECULE
3qbn_E9Z_A_1.pdb
 23 25 0 0 0
SMALL
GASTEIGER

@<TRIPOS>ATOM
      1  N1        -2.9690   33.1570   -7.6050 N.2     1  E9Z1       -0.1674
      2  C2        -3.0740   33.2420   -6.2690 C.1     1  E9Z1        0.1710
      3  N3        -3.7000   32.2570   -5.6190 N.2     1  E9Z1       -0.3184
      4  C4        -4.1990   31.1730   -6.2340 C.2     1  E9Z1        0.2240
      5  C5        -4.0650   31.0860   -7.6210 C.2     1  E9Z1        0.1237
      6  C6        -3.4350   32.1260   -8.2770 C.2     1  E9Z1        0.1271
      7  CAA       -0.0660   37.9720    3.4700 C.3     1  E9Z1        0.1743
      8  CAC       -2.3920   33.7190   -3.2560 C.ar    1  E9Z1        0.0205
      9  CAD       -1.1750   35.5660   -4.1970 C.ar    1  E9Z1        0.0205
     10  CAE       -1.8240   33.9850   -2.0000 C.ar    1  E9Z1        0.0383
     11  CAF       -0.6110   35.8380   -2.9450 C.ar    1  E9Z1        0.0383
     12  CAH        0.2520   36.7890    1.3290 C.3     1  E9Z1        0.1894
     13  CAI       -0.6030   36.6340    0.0210 C.3     1  E9Z1        0.2373
     14  CAJ       -4.8530   29.8900   -2.9030 C.3     1  E9Z1        0.0234
     15  CAK       -6.2380   29.4750   -3.4620 C.3     1  E9Z1        0.0234
     16  NAN       -2.5850   34.3330   -5.6250 N.pl3   1  E9Z1       -0.1357
     17  NAO       -4.8030   30.2280   -5.4750 N.pl3   1  E9Z1       -0.2100
     18  OAP       -0.5190   36.8900    2.5900 O.3     1  E9Z1       -0.3471
     19  OAQ       -0.3630   35.3140   -0.5980 O.3     1  E9Z1       -0.4727
     20  CAS       -2.0700   34.5030   -4.3760 C.ar    1  E9Z1        0.0828
     21  CAT       -0.9350   35.0580   -1.8300 C.ar    1  E9Z1        0.1388
     22  CAW       -5.4570   30.5970   -4.1500 C.3     1  E9Z1        0.0952
     23 CL5        -4.6620   29.7490   -8.5480 Cl      1  E9Z1       -0.0764
@<TRIPOS>BOND
     1    23     5    1
     2     6     5    2
     3     6     1    1
     4     5     4    1
     5     1     2    2
     6     2    16    1
     7     2     3    2
     8     4     3    2
     9     4    17    1
    10    16    20    1
    11    17    22    1
    12    20     9   ar
    13    20     8   ar
    14     9    11   ar
    15    22    15    1
    16    22    14    1
    17    15    14    1
    18     8    10   ar
    19    11    21   ar
    20    10    21   ar
    21    21    19    1
    22    19    13    1
    23    13    12    1
    24    12    18    1
    25    18     7    1
