@<TRIPOS>MOLECULE
3qbo_PLP_A_1.pdb
 15 15 0 0 0
SMALL
GASTEIGER

@<TRIPOS>ATOM
      1  N1        56.6460   72.6820   19.0180 N.ar  501  PLP501     -0.2452
      2  C2        56.5150   71.8540   17.9600 C.ar  501  PLP501      0.0978
      3  C2A       55.5230   70.6940   17.9040 C.3   501  PLP501      0.0555
      4  C3        57.3670   72.0800   16.7810 C.ar  501  PLP501      0.2049
      5  O3        57.2480   71.2790   15.7210 O.3   501  PLP501     -0.2857
      6  C4        58.3620   73.1650   16.7440 C.ar  501  PLP501      0.0182
      7  C4A       59.2660   73.5140   15.6300 C.3   501  PLP501      0.0342
      8  C5        58.4220   73.9800   17.9790 C.ar  501  PLP501      0.0261
      9  C6        57.5570   73.7060   19.0450 C.ar  501  PLP501      0.0965
     10  C5A       59.4000   75.1530   18.0410 C.3   501  PLP501      0.1815
     11  O4P       59.0040   76.1330   17.0780 O.3   501  PLP501     -0.2653
     12  P         59.8030   77.5590   16.9900 P.3   501  PLP501      0.5329
     13  O1P       61.2340   77.2460   16.3140 O.3   501  PLP501     -0.1145
     14  O2P       59.9620   78.1090   18.5040 O.3   501  PLP501     -0.1145
     15  O3P       58.7850   78.3640   16.2080 O.2   501  PLP501     -0.2224
@<TRIPOS>BOND
     1     7     6    1
     2     5     4    1
     3    15    12    2
     4    13    12    1
     5     6     4   ar
     6     6     8   ar
     7     4     2   ar
     8    12    11    1
     9    12    14    1
    10    11    10    1
    11     3     2    1
    12     2     1   ar
    13     8    10    1
    14     8     9   ar
    15     1     9   ar
