@<TRIPOS>MOLECULE
3qbt_GNP_A_1.pdb
 32 34 0 0 0
SMALL
GASTEIGER

@<TRIPOS>ATOM
      1  PG        10.3860    5.6270   72.8530 P.3   200  GNP200      0.4884
      2  O1G       11.1470    4.8290   73.8760 O.3   200  GNP200     -0.1240
      3  O2G       10.9060    5.1980   71.4620 O.2   200  GNP200     -0.2331
      4  O3G       10.5990    7.1610   73.1730 O.3   200  GNP200     -0.1240
      5  N3B        8.7730    5.2220   73.0450 N.3   200  GNP200     -0.0163
      6  PB         7.6530    5.6930   71.9600 P.3   200  GNP200      0.4669
      7  O1B        7.1990    7.0090   72.3860 O.3   200  GNP200     -0.1253
      8  O2B        8.1250    5.5450   70.5730 O.2   200  GNP200     -0.2351
      9  O3A        6.4180    4.6550   72.1510 O.3   200  GNP200     -0.2360
     10  PA         6.0170    3.4880   71.1300 P.3   200  GNP200      0.2220
     11  O1A        5.4720    4.0490   69.8860 O.2   200  GNP200     -0.5170
     12  O2A        7.0820    2.5030   70.9910 O.3   200  GNP200     -0.4370
     13  O5'        4.8080    2.7490   71.9480 O.3   200  GNP200     -0.3111
     14  C5'        4.9680    2.2840   73.3480 C.3   200  GNP200      0.1813
     15  C4'        3.8870    1.2800   73.7470 C.3   200  GNP200      0.1799
     16  O4'        2.5970    1.9110   73.6400 O.3   200  GNP200     -0.3326
     17  C3'        3.9060    0.1320   72.7470 C.3   200  GNP200      0.2158
     18  O3'        3.4790   -1.0730   73.3890 O.3   200  GNP200     -0.2175
     19  C2'        2.8830    0.5780   71.6970 C.3   200  GNP200      0.2310
     20  O2'        2.2890   -0.5330   71.0060 O.3   200  GNP200     -0.2158
     21  C1'        1.8520    1.2690   72.5640 C.3   200  GNP200      0.2293
     22  N9         1.0000    2.2440   71.8440 N.pl3 200  GNP200     -0.2354
     23  C8         1.4110    3.2400   71.0580 C.3   200  GNP200      0.2246
     24  N7         0.3450    3.9200   70.6100 N.2   200  GNP200     -0.2322
     25  C5        -0.7540    3.3380   71.1140 C.2   200  GNP200      0.2182
     26  C6        -2.1140    3.5940   70.9940 C.1   200  GNP200      0.2372
     27  O6        -2.5380    4.5230   70.3370 O.2   200  GNP200     -0.2069
     28  N1        -3.0400    2.8600   71.6810 N.2   200  GNP200     -0.2485
     29  C2        -2.5790    1.7850   72.4290 C.1   200  GNP200      0.2531
     30  N2        -3.5220    1.1040   73.0520 N.pl3 200  GNP200     -0.0226
     31  N3        -1.2570    1.5270   72.5640 N.2   200  GNP200     -0.3074
     32  C4        -0.3380    2.2760   71.9130 C.2   200  GNP200      0.2300
@<TRIPOS>BOND
     1    11    10    2
     2    27    26    2
     3     8     6    2
     4    24    23    1
     5    24    25    2
     6    12    10    1
     7    26    25    1
     8    26    28    2
     9    20    19    1
    10    23    22    1
    11    25    32    1
    12    10    13    1
    13    10     9    1
    14     3     1    2
    15    28    29    2
    16    19    21    1
    17    19    17    1
    18    22    32    1
    19    22    21    1
    20    32    31    2
    21    13    14    1
    22     6     9    1
    23     6     7    1
    24     6     5    1
    25    29    31    2
    26    29    30    1
    27    21    16    1
    28    17    18    1
    29    17    15    1
    30     1     5    1
    31     1     4    1
    32     1     2    1
    33    14    15    1
    34    16    15    1
