@<TRIPOS>MOLECULE
3qbv_GDP_A_1.pdb
 28 30 0 0 0
SMALL
GASTEIGER

@<TRIPOS>ATOM
      1  PB        38.0920    6.4700   34.0550 P.3   200  GDP200      0.5373
      2  O1B       38.3470    6.9050   32.6350 O.2   200  GDP200     -0.2221
      3  O2B       38.0540    4.9620   34.1430 O.3   200  GDP200     -0.1143
      4  O3B       36.7570    7.0080   34.5270 O.3   200  GDP200     -0.1143
      5  O3A       39.2920    7.0220   34.9820 O.3   200  GDP200     -0.2261
      6  PA        39.0300    7.9550   36.2750 P.3   200  GDP200      0.2231
      7  O1A       38.1430    7.2580   37.2810 O.3   200  GDP200     -0.4370
      8  O2A       38.4310    9.2860   35.8970 O.2   200  GDP200     -0.5169
      9  O5'       40.5080    8.1110   36.8860 O.3   200  GDP200     -0.3111
     10  C5'       40.6360    8.1060   38.3050 C.3   200  GDP200      0.1813
     11  C4'       42.0380    7.7070   38.7420 C.3   200  GDP200      0.1799
     12  O4'       42.9910    8.2580   37.8350 O.3   200  GDP200     -0.3326
     13  C3'       42.3140    8.3140   40.1060 C.3   200  GDP200      0.2158
     14  O3'       43.1210    7.4250   40.8860 O.3   200  GDP200     -0.2175
     15  C2'       43.0810    9.5840   39.8130 C.3   200  GDP200      0.2310
     16  O2'       44.0610    9.8220   40.8270 O.3   200  GDP200     -0.2158
     17  C1'       43.7270    9.3150   38.4620 C.3   200  GDP200      0.2293
     18  N9        43.6690   10.5030   37.5750 N.pl3 200  GDP200     -0.2354
     19  C8        42.6610   10.8020   36.7360 C.3   200  GDP200      0.2246
     20  N7        42.9140   11.9430   36.0520 N.2   200  GDP200     -0.2322
     21  C5        44.1180   12.3950   36.4530 C.2   200  GDP200      0.2182
     22  C6        44.9890   13.5530   36.1310 C.1   200  GDP200      0.2372
     23  O6        44.6420   14.4140   35.2890 O.2   200  GDP200     -0.2069
     24  N1        46.1590   13.6440   36.7720 N.2   200  GDP200     -0.2485
     25  C2        46.5610   12.7330   37.6790 C.1   200  GDP200      0.2531
     26  N2        47.7620   12.8970   38.2860 N.pl3 200  GDP200     -0.0226
     27  N3        45.8180   11.6520   38.0230 N.2   200  GDP200     -0.3074
     28  C4        44.6110   11.4380   37.4550 C.2   200  GDP200      0.2300
@<TRIPOS>BOND
     1     2     1    2
     2     1     3    1
     3     1     4    1
     4     1     5    1
     5     5     6    1
     6    23    22    2
     7     8     6    2
     8    20    21    2
     9    20    19    1
    10    22    21    1
    11    22    24    2
    12     6     9    1
    13     6     7    1
    14    21    28    1
    15    19    18    1
    16    24    25    2
    17     9    10    1
    18    28    18    1
    19    28    27    2
    20    18    17    1
    21    25    27    2
    22    25    26    1
    23    12    17    1
    24    12    11    1
    25    10    11    1
    26    17    15    1
    27    11    13    1
    28    15    13    1
    29    15    16    1
    30    13    14    1
