@<TRIPOS>MOLECULE
3qbw_ADP_A_1.pdb
 27 29 0 0 0
SMALL
GASTEIGER

@<TRIPOS>ATOM
      1  PB        17.6520   54.5320   86.6610 P.3   601  ADP601      0.5373
      2  O1B       19.0200   53.8950   87.0720 O.3   601  ADP601     -0.1143
      3  O2B       16.5300   54.1080   87.6790 O.3   601  ADP601     -0.1143
      4  O3B       17.8550   56.0300   86.6430 O.2   601  ADP601     -0.2221
      5  PA        16.5120   52.7200   84.8530 P.3   601  ADP601      0.2231
      6  O1A       17.5290   51.8550   84.0360 O.2   601  ADP601     -0.5169
      7  O2A       16.1080   51.9900   86.1110 O.3   601  ADP601     -0.4370
      8  O3A       17.2050   54.0970   85.2000 O.3   601  ADP601     -0.2261
      9  O5'       15.2290   52.9250   83.9520 O.3   601  ADP601     -0.3111
     10  C5'       14.1970   53.8230   84.2570 C.3   601  ADP601      0.1813
     11  C4'       13.7470   54.7230   83.1270 C.3   601  ADP601      0.1821
     12  O4'       13.7730   53.9610   81.8710 O.3   601  ADP601     -0.3135
     13  C3'       12.3110   55.2280   83.2370 C.3   601  ADP601      0.2184
     14  O3'       12.2090   56.3520   84.0350 O.3   601  ADP601     -0.2174
     15  C2'       11.9320   55.5030   81.8140 C.3   601  ADP601      0.2570
     16  O2'       12.3310   56.7510   81.3530 O.3   601  ADP601     -0.2130
     17  C1'       12.7270   54.4970   80.9960 C.3   601  ADP601      0.3186
     18  N9        11.8240   53.4400   80.5930 N.pl3 601  ADP601     -0.1439
     19  C8        11.6000   52.2650   81.2230 C.3   601  ADP601      0.3377
     20  N7        10.6330   51.5220   80.4470 N.2   601  ADP601     -0.2095
     21  C5        10.2930   52.3040   79.3230 C.2   601  ADP601      0.2526
     22  C6         9.3720   52.1030   78.2280 C.2   601  ADP601      0.4393
     23  N6         8.5850   50.9060   78.1260 N.pl3 601  ADP601      0.2180
     24  N1         9.2380   53.0490   77.2960 N.2   601  ADP601      0.0021
     25  C2         9.9850   54.2210   77.3470 C.3   601  ADP601      0.5254
     26  N3        10.8690   54.4330   78.4350 N.2   601  ADP601     -0.0055
     27  C4        10.9920   53.4820   79.3960 C.2   601  ADP601      0.3518
@<TRIPOS>BOND
     1    24    25    1
     2    24    22    2
     3    25    26    1
     4    23    22    1
     5    22    21    1
     6    26    27    2
     7    21    27    1
     8    21    20    2
     9    27    18    1
    10    20    19    1
    11    18    17    1
    12    18    19    1
    13    17    15    1
    14    17    12    1
    15    16    15    1
    16    15    13    1
    17    12    11    1
    18    11    13    1
    19    11    10    1
    20    13    14    1
    21     9    10    1
    22     9     5    1
    23     6     5    2
    24     5     8    1
    25     5     7    1
    26     8     1    1
    27     4     1    2
    28     1     2    1
    29     1     3    1
