@<TRIPOS>MOLECULE
3qbx_AH0_A_1.pdb
 19 20 0 0 0
SMALL
GASTEIGER

@<TRIPOS>ATOM
      1  C1        23.4780   58.0950   85.2800 C.3   653  AH0653      0.2585
      2  C2        24.4360   57.5660   86.4100 C.3   653  AH0653      0.1810
      3  N2        25.2020   58.6250   87.0730 N.am  653  AH0653     -0.1994
      4  C7        25.1630   58.8800   88.3800 C.2   653  AH0653      0.2420
      5  O7        24.4190   58.1810   89.1010 O.2   653  AH0653     -0.2733
      6  C8        26.0190   60.0040   89.0030 C.3   653  AH0653      0.0964
      7  C3        25.4700   56.4960   85.8900 C.3   653  AH0653      0.1734
      8  O3        24.9810   55.2120   86.1300 O.3   653  AH0653     -0.3429
      9  C4        25.8240   56.7900   84.3950 C.3   653  AH0653      0.2102
     10  O4        26.8540   57.7840   84.4130 O.3   653  AH0653     -0.2178
     11  C5        24.6120   57.3410   83.5850 C.3   653  AH0653      0.1800
     12  O5        24.1870   58.5940   84.1330 O.3   653  AH0653     -0.3263
     13  C6        23.3360   56.5200   83.5620 C.3   653  AH0653      0.1770
     14  O6        22.6860   57.0050   84.7480 O.3   653  AH0653     -0.3265
     15  CA        25.4890   53.9990   85.5010 C.3   653  AH0653      0.2178
     16  CB        24.8520   52.7710   86.1640 C.3   653  AH0653      0.0444
     17  C         26.9940   53.8710   85.5310 C.2   653  AH0653      0.3913
     18  O         27.5560   53.1580   84.6910 O.co2 653  AH0653     -0.2430
     19  OXT       27.7450   54.5020   86.4340 O.co2 653  AH0653     -0.2430
@<TRIPOS>BOND
     1    13    11    1
     2    13    14    1
     3    11    12    1
     4    11     9    1
     5    12     1    1
     6     9    10    1
     7     9     7    1
     8    18    17   ar
     9    14     1    1
    10     1     2    1
    11    15    17    1
    12    15     8    1
    13    15    16    1
    14    17    19   ar
    15     7     8    1
    16     7     2    1
    17     2     3    1
    18     3     4   am
    19     4     6    1
    20     4     5    2
