@<TRIPOS>MOLECULE
3qby_III_H_1.pdb
 22 21 0 0 0
SMALL
GASTEIGER

@<TRIPOS>ATOM
      1  N         23.9950   -8.2130  -20.7380 N.3    18  HIS18      -0.1231
      2  CA        23.8710   -9.3280  -19.7540 C.3    18  HIS18       0.1694
      3  C         24.0230  -10.6860  -20.4420 C.2    18  HIS18       0.2592
      4  O         23.6170  -10.8600  -21.5890 O.2    18  HIS18      -0.2718
      5  CB        22.5300   -9.2440  -19.0210 C.3    18  HIS18       0.0304
      6  N         24.6130  -11.6400  -19.7280 N.am   19  ARG19      -0.1966
      7  CA        24.9110  -12.9630  -20.2760 C.3    19  ARG19       0.1728
      8  C         23.6550  -13.8180  -20.4000 C.2    19  ARG19       0.2616
      9  O         22.7590  -13.7500  -19.5520 O.2    19  ARG19      -0.2715
     10  CB        25.9360  -13.6880  -19.3960 C.3    19  ARG19       0.0334
     11  N         23.5890  -14.6190  -21.4590 N.am   20  LYS20      -0.1977
     12  CA        22.5310  -15.6210  -21.5830 C.3    20  LYS20       0.1596
     13  CB        21.9160  -15.6400  -22.9760 C.3    20  LYS20       0.0296
     14  CG        20.6530  -16.4990  -22.9540 C.3    20  LYS20       0.0001
     15  CD        19.7510  -16.2490  -24.1550 C.3    20  LYS20      -0.0222
     16  CE        18.5600  -15.4100  -23.7280 C.3    20  LYS20      -0.0733
     17  NZ        17.2880  -15.7130  -24.4000 N.4    20  LYS20       0.3857
     18  C         23.0390  -16.9840  -21.1970 C.2    20  LYS20       0.2287
     19  O         24.2290  -17.2780  -21.3340 O.2    20  LYS20      -0.2864
     20  CM1       16.3240  -15.9920  -23.3340 C.3    20  LYS20      -0.0960
     21  CM2       17.3630  -16.8600  -25.3280 C.3    20  LYS20      -0.0960
     22  CM3       16.8400  -14.5190  -25.1280 C.3    20  LYS20      -0.0960
@<TRIPOS>BOND
     1    21    17    1
     2    22    17    1
     3    17    16    1
     4    17    20    1
     5    15    16    1
     6    15    14    1
     7    13    14    1
     8    13    12    1
     9     4     3    2
    10    12    11    1
    11    12    18    1
    12    11     8   am
    13    19    18    2
    14     1     2    1
    15     3     2    1
    16     3     6   am
    17     8     7    1
    18     8     9    2
    19     7     6    1
    20     7    10    1
    21     2     5    1
