@<TRIPOS>MOLECULE
3qc4_MP7_A_1.pdb
 38 42 0 0 0
SMALL
GASTEIGER

@<TRIPOS>ATOM
      1  C         15.1040   32.2130   21.3850 C.ar    1  MP71        0.1111
      2  F          9.3500   26.8700   21.0990 F       1  MP71       -0.2018
      3  N         14.0790   30.4490   19.9550 N.ar    1  MP71       -0.2898
      4  O         12.7870   31.7070   21.3690 O.2     1  MP71       -0.2668
      5  C1        16.3270   31.8230   20.8310 C.ar    1  MP71        0.0109
      6  C2        16.4100   30.7950   19.8680 C.ar    1  MP71        0.0190
      7  C3        15.2760   30.0900   19.4440 C.ar    1  MP71        0.0786
      8  C4        13.9160   31.4820   20.9020 C.ar    1  MP71        0.2656
      9  C5        12.8390   29.7900   19.5990 C.3     1  MP71        0.1359
     10  C6        12.4340   28.6350   20.4750 C.ar    1  MP71        0.0029
     11  C7        13.3400   27.9010   21.1950 C.ar    1  MP71        0.0001
     12  C8        12.8800   26.8140   21.9490 C.ar    1  MP71        0.0317
     13  C9        11.5200   26.4690   21.9060 C.ar    1  MP71        0.1674
     14  C10       10.6250   27.2250   21.1580 C.ar    1  MP71        0.1671
     15  C11       11.1080   28.3010   20.4300 C.ar    1  MP71        0.0296
     16  F12       11.0800   25.4540   22.5830 F       1  MP71       -0.2018
     17  C13        9.4790   38.4850   20.5180 C.ar    1  MP71        0.1773
     18  C14       10.5200   37.9790   19.6730 C.ar    1  MP71        0.1801
     19  C15       11.4910   37.1220   20.1710 C.ar    1  MP71        0.0726
     20  C16       11.4200   36.7650   21.5310 C.ar    1  MP71        0.1414
     21  C17       10.4010   37.2690   22.3970 C.ar    1  MP71        0.0397
     22  C18        9.4190   38.0880   21.8700 C.ar    1  MP71        0.0389
     23  N19        8.6630   39.2490   19.7670 N.2     1  MP71       -0.3058
     24  N20       10.3010   38.4830   18.4520 N.2     1  MP71       -0.3057
     25  O21       12.4010   35.9890   22.0850 O.3     1  MP71       -0.4731
     26  C22       12.3490   35.5610   23.4590 C.3     1  MP71        0.2313
     27  C23       13.6550   34.8420   23.7440 C.3     1  MP71        0.1613
     28  C24       13.9030   34.5440   25.2180 C.ar    1  MP71        0.0011
     29  C25       13.7810   35.5490   26.1840 C.ar    1  MP71       -0.0025
     30  C26       14.0380   35.3110   27.5270 C.ar    1  MP71       -0.0003
     31  C27       14.4520   34.0380   27.9440 C.ar    1  MP71       -0.0000
     32  C28       14.6060   33.0290   27.0170 C.ar    1  MP71       -0.0003
     33  C29       14.3230   33.2860   25.6520 C.ar    1  MP71       -0.0025
     34  C30        9.2350   39.2320   18.5280 C.1     1  MP71        0.3554
     35  O31        8.7620   39.8480   17.4850 O.2     1  MP71       -0.1752
     36  N32       13.7890   33.6610   22.8960 N.am    1  MP71       -0.1949
     37  C33       14.9860   33.3020   22.4220 C.2     1  MP71        0.2698
     38  O34       16.0530   33.7950   22.8130 O.2     1  MP71       -0.2682
@<TRIPOS>BOND
     1    35    34    2
     2    24    34    2
     3    24    18    2
     4    34    23    2
     5     7     6   ar
     6     7     3   ar
     7     9     3    1
     8     9    10    1
     9    18    19   ar
    10    18    17   ar
    11    23    17    2
    12     6     5   ar
    13     3     8   ar
    14    19    20   ar
    15    15    10   ar
    16    15    14   ar
    17    10    11   ar
    18    17    22   ar
    19     5     1   ar
    20     8     4    2
    21     8     1   ar
    22     2    14    1
    23    14    13   ar
    24    11    12   ar
    25     1    37    1
    26    20    25    1
    27    20    21   ar
    28    22    21   ar
    29    13    12   ar
    30    13    16    1
    31    25    26    1
    32    37    38    2
    33    37    36   am
    34    36    27    1
    35    26    27    1
    36    27    28    1
    37    28    33   ar
    38    28    29   ar
    39    33    32   ar
    40    29    30   ar
    41    32    31   ar
    42    30    31   ar
