@<TRIPOS>MOLECULE
3qc9_ADP_A_1.pdb
 27 29 0 0 0
SMALL
GASTEIGER

@<TRIPOS>ATOM
      1  PB       -41.0180   -3.7870   62.3310 P.3   700  ADP700      0.5373
      2  O1B      -42.0490   -2.7490   62.6780 O.3   700  ADP700     -0.1143
      3  O2B      -39.7550   -3.2050   61.7200 O.2   700  ADP700     -0.2221
      4  O3B      -40.7570   -4.8260   63.3910 O.3   700  ADP700     -0.1143
      5  PA       -41.1400   -6.0110   60.5470 P.3   700  ADP700      0.2231
      6  O1A      -40.4030   -5.6420   59.2780 O.2   700  ADP700     -0.5169
      7  O2A      -40.3470   -6.7990   61.5590 O.3   700  ADP700     -0.4370
      8  O3A      -41.7540   -4.6520   61.1820 O.3   700  ADP700     -0.2261
      9  O5'      -42.4830   -6.8570   60.2180 O.3   700  ADP700     -0.3111
     10  C5'      -43.4260   -7.1680   61.2390 C.3   700  ADP700      0.1813
     11  C4'      -43.8270   -8.6400   61.2290 C.3   700  ADP700      0.1821
     12  O4'      -44.4710   -8.9770   60.0090 O.3   700  ADP700     -0.3135
     13  C3'      -42.6600   -9.6000   61.3690 C.3   700  ADP700      0.2184
     14  O3'      -42.4630   -9.9520   62.7480 O.3   700  ADP700     -0.2174
     15  C2'      -43.0980  -10.8030   60.5610 C.3   700  ADP700      0.2570
     16  O2'      -43.8720  -11.7010   61.3550 O.3   700  ADP700     -0.2130
     17  C1'      -44.0340  -10.2370   59.5150 C.3   700  ADP700      0.3186
     18  N9       -43.2040  -10.0410   58.3040 N.pl3 700  ADP700     -0.1439
     19  C8       -42.3760   -8.9940   58.1070 C.3   700  ADP700      0.3377
     20  N7       -41.7220   -9.0950   56.9200 N.2   700  ADP700     -0.2095
     21  C5       -42.1390  -10.2380   56.3350 C.2   700  ADP700      0.2526
     22  C6       -41.8480  -10.9320   55.0630 C.2   700  ADP700      0.4393
     23  N6       -40.9560  -10.3990   54.1940 N.pl3 700  ADP700      0.2180
     24  N1       -42.4790  -12.1080   54.8270 N.2   700  ADP700      0.0021
     25  C2       -43.3500  -12.6220   55.7130 C.3   700  ADP700      0.5254
     26  N3       -43.6790  -12.0380   56.8870 N.2   700  ADP700     -0.0055
     27  C4       -43.1100  -10.8650   57.2530 C.2   700  ADP700      0.3518
@<TRIPOS>BOND
     1    23    22    1
     2    24    22    2
     3    24    25    1
     4    22    21    1
     5    25    26    1
     6    21    20    2
     7    21    27    1
     8    26    27    2
     9    20    19    1
    10    27    18    1
    11    19    18    1
    12    18    17    1
    13     6     5    2
    14    17    12    1
    15    17    15    1
    16    12    11    1
    17     9     5    1
    18     9    10    1
    19     5     8    1
    20     5     7    1
    21    15    16    1
    22    15    13    1
    23     8     1    1
    24    11    10    1
    25    11    13    1
    26    13    14    1
    27     3     1    2
    28     1     2    1
    29     1     4    1
