@<TRIPOS>MOLECULE
3qce_NXY_A_1.pdb
 18 19 0 0 0
SMALL
GASTEIGER

@<TRIPOS>ATOM
      1  C1        18.0590   28.6240   55.7520 C.ar  2001  NXY2001     0.0385
      2  C2        18.1040   29.9800   56.2580 C.ar  2001  NXY2001     0.1149
      3  S3        18.1340   27.1110   56.6030 S.3   2001  NXY2001    -0.1081
      4  C4        17.9420   28.9300   54.4760 C.ar  2001  NXY2001     0.0138
      5  S5        17.9470   31.1490   54.8960 S.2   2001  NXY2001    -0.0794
      6  C6        18.2620   30.2970   57.6730 C.2   2001  NXY2001     0.3941
      7  C7        18.2180   26.1300   55.1150 C.3   2001  NXY2001     0.0884
      8  C8        17.8700   29.9360   53.6290 C.ar  2001  NXY2001     0.0362
      9  O9        18.5410   31.4670   57.9950 O.co2 2001  NXY2001    -0.2400
     10  O10       18.1320   29.3850   58.5090 O.co2 2001  NXY2001    -0.2400
     11  C11       17.9870   24.7000   55.4520 C.ar  2001  NXY2001    -0.0101
     12  C12       16.6280   24.2620   55.5220 C.ar  2001  NXY2001     0.0088
     13  C13       19.1400   23.8610   55.6800 C.ar  2001  NXY2001    -0.0025
     14  C14       16.4620   22.8950   55.8450 C.ar  2001  NXY2001     0.0679
     15  C15       18.9670   22.4940   56.0530 C.ar  2001  NXY2001     0.0120
     16  C16       17.6050   22.0590   56.1270 C.ar  2001  NXY2001     0.0682
     17 CL17       14.8770   22.2420   55.8160 Cl    2001  NXY2001    -0.0814
     18 CL18       17.3110   20.4310   56.5450 Cl    2001  NXY2001    -0.0814
@<TRIPOS>BOND
     1     8     4   ar
     2     8     5   ar
     3     4     1   ar
     4     5     2   ar
     5     7    11    1
     6     7     3    1
     7    11    12   ar
     8    11    13   ar
     9    12    14   ar
    10    13    15   ar
    11     1     2   ar
    12     1     3    1
    13    17    14    1
    14    14    16   ar
    15    15    16   ar
    16    16    18    1
    17     2     6    1
    18     6     9   ar
    19     6    10   ar
