@<TRIPOS>MOLECULE
3qcf_NXY_A_1.pdb
 18 19 0 0 0
SMALL
GASTEIGER

@<TRIPOS>ATOM
      1  C1        18.3310   28.6380   55.9270 C.ar  2001  NXY2001     0.0385
      2  C2        18.2110   30.0290   56.2900 C.ar  2001  NXY2001     0.1149
      3  S3        18.4920   27.2110   56.8710 S.3   2001  NXY2001    -0.1081
      4  C4        18.3400   28.7990   54.6210 C.ar  2001  NXY2001     0.0138
      5  S5        18.1570   30.9990   54.7640 S.2   2001  NXY2001    -0.0794
      6  C6        18.1970   30.5150   57.6620 C.2   2001  NXY2001     0.3941
      7  C7        18.3730   26.2380   55.3560 C.3   2001  NXY2001     0.0884
      8  C8        18.3010   29.6690   53.6440 C.ar  2001  NXY2001     0.0362
      9  O9        18.3100   31.7380   57.8920 O.co2 2001  NXY2001    -0.2400
     10  O10       18.0750   29.6700   58.5680 O.co2 2001  NXY2001    -0.2400
     11  C11       18.0930   24.8020   55.5820 C.ar  2001  NXY2001    -0.0101
     12  C12       16.7280   24.3870   55.5140 C.ar  2001  NXY2001     0.0088
     13  C13       19.2220   23.9310   55.8370 C.ar  2001  NXY2001    -0.0025
     14  C14       16.5230   22.9940   55.7310 C.ar  2001  NXY2001     0.0679
     15  C15       19.0090   22.5450   56.0690 C.ar  2001  NXY2001     0.0120
     16  C16       17.6410   22.1210   56.0120 C.ar  2001  NXY2001     0.0682
     17 CL17       14.9330   22.3280   55.6500 Cl    2001  NXY2001    -0.0814
     18 CL18       17.3050   20.4670   56.2640 Cl    2001  NXY2001    -0.0814
@<TRIPOS>BOND
     1     8     4   ar
     2     8     5   ar
     3     4     1   ar
     4     5     2   ar
     5     7    11    1
     6     7     3    1
     7    12    11   ar
     8    12    14   ar
     9    11    13   ar
    10    17    14    1
    11    14    16   ar
    12    13    15   ar
    13     1     2   ar
    14     1     3    1
    15    16    15   ar
    16    16    18    1
    17     2     6    1
    18     6     9   ar
    19     6    10   ar
