@<TRIPOS>MOLECULE
3qcg_NX1_A_1.pdb
 18 19 0 0 0
SMALL
GASTEIGER

@<TRIPOS>ATOM
      1  C1        19.7820   29.7310   62.0200 C.ar  2001  NX12001     0.0385
      2  C2        20.9800   30.3230   62.5800 C.ar  2001  NX12001     0.1149
      3  S3        19.3610   29.6330   60.3250 S.3   2001  NX12001    -0.1081
      4  C4        19.2680   29.3000   63.1590 C.ar  2001  NX12001     0.0138
      5  S5        21.0210   30.1880   64.3760 S.2   2001  NX12001    -0.0794
      6  C6        22.0060   30.8980   61.7450 C.2   2001  NX12001     0.3941
      7  C7        17.7380   28.9240   60.4390 C.3   2001  NX12001     0.0884
      8  C8        19.5050   29.2480   64.4610 C.ar  2001  NX12001     0.0362
      9  O9        23.1150   31.0830   62.2720 O.co2 2001  NX12001    -0.2400
     10  O10       21.7610   31.1960   60.5600 O.co2 2001  NX12001    -0.2400
     11  C11       17.3850   28.4400   59.0670 C.ar  2001  NX12001    -0.0104
     12  C12       17.7290   27.0900   58.7350 C.ar  2001  NX12001     0.0041
     13  C13       16.7240   29.3550   58.1600 C.ar  2001  NX12001    -0.0025
     14  C14       17.3710   26.6790   57.4250 C.ar  2001  NX12001     0.0448
     15  C15       16.3610   28.9330   56.8470 C.ar  2001  NX12001     0.0116
     16  C16       16.6940   27.5790   56.5310 C.ar  2001  NX12001     0.0638
     17 BR17       17.6740   24.9080   56.9470 Br    2001  NX12001    -0.0481
     18 CL18       16.1710   26.9440   55.0210 Cl    2001  NX12001    -0.0817
@<TRIPOS>BOND
     1    18    16    1
     2    16    15   ar
     3    16    14   ar
     4    15    13   ar
     5    17    14    1
     6    14    12   ar
     7    13    11   ar
     8    12    11   ar
     9    11     7    1
    10     3     7    1
    11     3     1    1
    12    10     6   ar
    13     6     9   ar
    14     6     2    1
    15     1     2   ar
    16     1     4   ar
    17     2     5   ar
    18     4     8   ar
    19     5     8   ar
