@<TRIPOS>MOLECULE
3qch_NX2_A_1.pdb
 22 23 0 0 0
SMALL
GASTEIGER

@<TRIPOS>ATOM
      1  C1        20.0320   30.3370   62.5530 C.ar  2001  NX22001     0.0365
      2  C2        19.0920   29.7120   63.2730 C.ar  2001  NX22001     0.0138
      3  C3        19.4850   30.0290   64.6420 C.ar  2001  NX22001     0.0361
      4  S4        21.0150   30.9450   64.6100 S.2   2001  NX22001    -0.0813
      5  C5        21.1100   31.0380   62.8920 C.ar  2001  NX22001     0.0917
      6  S6        19.7010   30.2280   60.7600 S.3   2001  NX22001    -0.1082
      7  C7        18.1670   29.3100   60.8110 C.3   2001  NX22001     0.0884
      8  C8        17.7130   28.8820   59.4560 C.ar  2001  NX22001    -0.0101
      9  C9        17.9540   27.5090   59.0970 C.ar  2001  NX22001     0.0088
     10  C10       16.5780   29.4700   57.3220 C.ar  2001  NX22001     0.0120
     11  C11       17.0470   29.8470   58.6150 C.ar  2001  NX22001    -0.0025
     12  C12       17.4690   27.1320   57.8090 C.ar  2001  NX22001     0.0679
     13  C13       16.7910   28.1000   56.9680 C.ar  2001  NX22001     0.0682
     14 CL14       16.1760   27.5490   55.4670 Cl    2001  NX22001    -0.0814
     15 CL15       17.7090   25.5130   57.2200 Cl    2001  NX22001    -0.0814
     16  C16       22.1450   31.7440   62.1110 C.2   2001  NX22001     0.2918
     17  N17       23.0550   32.4750   62.7770 N.am  2001  NX22001    -0.0585
     18  O18       22.1410   31.6480   60.8930 O.2   2001  NX22001    -0.2661
     19  S19       24.3760   33.1540   62.0040 S.O2  2001  NX22001     0.0778
     20  C20       25.6370   31.8930   61.7600 C.3   2001  NX22001     0.2018
     21  O21       23.9620   33.6310   60.6940 O.2   2001  NX22001    -0.1527
     22  O22       24.9370   34.1120   62.9360 O.2   2001  NX22001    -0.1527
@<TRIPOS>BOND
     1    14    13    1
     2    13    10   ar
     3    13    12   ar
     4    15    12    1
     5    10    11   ar
     6    12     9   ar
     7    11     8   ar
     8     9     8   ar
     9     8     7    1
    10    21    19    2
    11     6     7    1
    12     6     1    1
    13    18    16    2
    14    20    19    1
    15    19    17    1
    16    19    22    2
    17    16    17   am
    18    16     5    1
    19     1     5   ar
    20     1     2   ar
    21     5     4   ar
    22     2     3   ar
    23     4     3   ar
