@<TRIPOS>MOLECULE
3qci_NX3_A_1.pdb
 28 30 0 0 0
SMALL
GASTEIGER

@<TRIPOS>ATOM
      1  S1        20.6840   30.7920   64.7490 S.2   2001  NX32001    -0.0813
      2  C2        20.5910   30.8860   63.0450 C.ar  2001  NX32001     0.0917
      3  C3        19.5490   30.1740   62.6060 C.ar  2001  NX32001     0.0365
      4  C4        18.7360   29.5870   63.6690 C.ar  2001  NX32001     0.0138
      5  C5        19.2700   29.8240   64.8580 C.ar  2001  NX32001     0.0361
      6  C6        21.5500   31.6730   62.2290 C.2   2001  NX32001     0.2921
      7  N7        22.4920   32.3650   62.8750 N.am  2001  NX32001    -0.0544
      8  O8        21.4220   31.6720   61.0120 O.2   2001  NX32001    -0.2661
      9  S9        23.4130   33.4600   62.1020 S.O2  2001  NX32001     0.0957
     10  S10       19.1790   29.9590   60.9190 S.3   2001  NX32001    -0.1082
     11  C11       17.6460   29.1040   61.0130 C.3   2001  NX32001     0.0884
     12  C12       17.2160   28.6730   59.6380 C.ar  2001  NX32001    -0.0101
     13  C13       16.6160   29.6290   58.7200 C.ar  2001  NX32001    -0.0025
     14  C14       16.1940   29.2400   57.4170 C.ar  2001  NX32001     0.0120
     15  C15       16.4010   27.8630   57.0920 C.ar  2001  NX32001     0.0682
     16  C16       16.9990   26.8970   57.9890 C.ar  2001  NX32001     0.0679
     17  C17       17.4200   27.2880   59.2870 C.ar  2001  NX32001     0.0088
     18 CL18       17.1980   25.2300   57.4850 Cl    2001  NX32001    -0.0814
     19 CL19       15.8690   27.3170   55.5380 Cl    2001  NX32001    -0.0814
     20  O20       23.8590   34.3620   63.1140 O.2   2001  NX32001    -0.1482
     21  O21       22.7490   33.9860   60.9480 O.2   2001  NX32001    -0.1482
     22  C22       24.9630   32.7470   61.6620 C.ar  2001  NX32001     0.1285
     23  C23       25.1750   31.9950   60.4410 C.ar  2001  NX32001     0.0203
     24  C24       26.4770   31.4370   60.1380 C.ar  2001  NX32001     0.0028
     25  C25       27.5290   31.6790   61.1120 C.ar  2001  NX32001     0.0181
     26  C26       27.3200   32.4380   62.3390 C.ar  2001  NX32001     0.0904
     27  C27       26.0210   32.9810   62.6260 C.ar  2001  NX32001     0.0383
     28  N28       28.3370   32.6590   63.2240 N.pl3 2001  NX32001    -0.1280
@<TRIPOS>BOND
     1    19    15    1
     2    15    14   ar
     3    15    16   ar
     4    14    13   ar
     5    18    16    1
     6    16    17   ar
     7    13    12   ar
     8    17    12   ar
     9    12    11    1
    10    24    23   ar
    11    24    25   ar
    12    23    22   ar
    13    10    11    1
    14    10     3    1
    15    21     9    2
    16     8     6    2
    17    25    26   ar
    18    22     9    1
    19    22    27   ar
    20     9     7    1
    21     9    20    2
    22     6     7   am
    23     6     2    1
    24    26    27   ar
    25    26    28    1
    26     3     2   ar
    27     3     4   ar
    28     2     1   ar
    29     4     5   ar
    30     1     5   ar
