@<TRIPOS>MOLECULE
3qcj_NX4_A_1.pdb
 32 34 0 0 0
SMALL
GASTEIGER

@<TRIPOS>ATOM
      1  C1        19.9920   29.9670   62.0000 C.ar  2001  NX42001     0.0365
      2  C2        21.9840   31.4990   61.7360 C.2   2001  NX42001     0.2921
      3  N3        22.6960   32.3920   62.4200 N.am  2001  NX42001    -0.0544
      4  S4        19.6480   29.6980   60.3490 S.3   2001  NX42001    -0.1082
      5  C5        17.9580   29.0710   60.4460 C.3   2001  NX42001     0.0884
      6  C6        17.5400   28.5720   59.0830 C.ar  2001  NX42001    -0.0101
      7  C7        16.8850   29.4980   58.2090 C.ar  2001  NX42001    -0.0025
      8  C8        16.4440   29.0990   56.9100 C.ar  2001  NX42001     0.0120
      9  C9        16.7030   27.7340   56.5640 C.ar  2001  NX42001     0.0682
     10  C10       17.3640   26.7950   57.4210 C.ar  2001  NX42001     0.0679
     11  C11       17.8030   27.1880   58.7120 C.ar  2001  NX42001     0.0088
     12 CL12       16.1480   27.1840   55.0320 Cl    2001  NX42001    -0.0814
     13 CL13       17.6260   25.1760   56.8270 Cl    2001  NX42001    -0.0814
     14  O14       22.0430   31.2720   60.5350 O.2   2001  NX42001    -0.2661
     15  S15       23.7770   33.3380   61.7590 S.O2  2001  NX42001     0.0956
     16  O16       24.0770   34.2810   62.7960 O.2   2001  NX42001    -0.1482
     17  O17       23.2390   33.8310   60.5120 O.2   2001  NX42001    -0.1482
     18  C18       21.0510   30.7660   62.5450 C.ar  2001  NX42001     0.0917
     19  C19       19.4580   29.5790   63.1320 C.ar  2001  NX42001     0.0138
     20  C20       19.5810   29.7160   64.4350 C.ar  2001  NX42001     0.0361
     21  S21       21.0070   30.7640   64.3070 S.2   2001  NX42001    -0.0813
     22  C22       25.2850   32.5450   61.5070 C.ar  2001  NX42001     0.1276
     23  C23       26.2660   32.8250   62.5120 C.ar  2001  NX42001     0.0234
     24  C24       27.5570   32.2670   62.4140 C.ar  2001  NX42001     0.0385
     25  C25       27.8060   31.4170   61.2640 C.ar  2001  NX42001     0.1451
     26  C26       26.7800   31.1420   60.2490 C.ar  2001  NX42001     0.1149
     27  C27       25.4610   31.7230   60.3610 C.ar  2001  NX42001     0.0299
     28  O28       29.0860   30.8410   61.1170 O.3   2001  NX42001    -0.4712
     29  C29       30.1680   31.3400   61.9480 C.3   2001  NX42001     0.2525
     30  C30       27.0440   30.2730   59.0800 C.2   2001  NX42001     0.3907
     31  O31       28.2280   30.1740   58.6940 O.co2 2001  NX42001    -0.2404
     32  O32       26.0930   29.6790   58.5200 O.co2 2001  NX42001    -0.2404
@<TRIPOS>BOND
     1    12     9    1
     2     9     8   ar
     3     9    10   ar
     4    13    10    1
     5     8     7   ar
     6    10    11   ar
     7     7     6   ar
     8    32    30   ar
     9    31    30   ar
    10    11     6   ar
    11    30    26    1
    12     6     5    1
    13    26    27   ar
    14    26    25   ar
    15     4     5    1
    16     4     1    1
    17    27    22   ar
    18    17    15    2
    19    14     2    2
    20    28    25    1
    21    28    29    1
    22    25    24   ar
    23    22    15    1
    24    22    23   ar
    25     2     3   am
    26     2    18    1
    27    15     3    1
    28    15    16    2
    29     1    18   ar
    30     1    19   ar
    31    24    23   ar
    32    18    21   ar
    33    19    20   ar
    34    21    20   ar
