@<TRIPOS>MOLECULE
3qck_NX5_A_1.pdb
 19 20 0 0 0
SMALL
GASTEIGER

@<TRIPOS>ATOM
      1  C1        19.7460   30.0560   62.1540 C.ar  2001  NX52001     0.0319
      2  S2        19.3910   29.6850   60.4550 S.3   2001  NX52001    -0.1086
      3  C3        17.6880   29.0240   60.4900 C.3   2001  NX52001     0.0884
      4  C4        17.3360   28.4890   59.1230 C.ar  2001  NX52001    -0.0101
      5  C5        17.7080   27.1330   58.7830 C.ar  2001  NX52001     0.0088
      6  C6        16.3100   28.9590   56.9020 C.ar  2001  NX52001     0.0120
      7  C7        16.6590   29.3800   58.2170 C.ar  2001  NX52001    -0.0025
      8  C8        17.3540   26.7160   57.4770 C.ar  2001  NX52001     0.0679
      9  C9        16.6590   27.6070   56.5860 C.ar  2001  NX52001     0.0682
     10 CL10       16.1570   26.9960   55.0690 Cl    2001  NX52001    -0.0814
     11 CL11       17.7110   25.1090   56.9360 Cl    2001  NX52001    -0.0814
     12  C12       18.9160   29.5590   63.2290 C.ar  2001  NX52001     0.0064
     13  C13       19.3230   29.8680   64.5720 C.ar  2001  NX52001     0.0005
     14  C14       20.5140   30.6520   64.8220 C.ar  2001  NX52001     0.0002
     15  C15       21.3400   31.1460   63.7550 C.ar  2001  NX52001     0.0071
     16  C16       20.9190   30.8290   62.4150 C.ar  2001  NX52001     0.0854
     17  C17       21.7200   31.2920   61.3110 C.2   2001  NX52001     0.3882
     18  O18       22.9540   31.1600   61.4000 O.co2 2001  NX52001    -0.2405
     19  O19       21.1760   31.8290   60.3300 O.co2 2001  NX52001    -0.2405
@<TRIPOS>BOND
     1    10     9    1
     2     9     6   ar
     3     9     8   ar
     4     6     7   ar
     5    11     8    1
     6     8     5   ar
     7     7     4   ar
     8     5     4   ar
     9     4     3    1
    10    19    17   ar
    11     2     3    1
    12     2     1    1
    13    17    18   ar
    14    17    16    1
    15     1    16   ar
    16     1    12   ar
    17    16    15   ar
    18    12    13   ar
    19    15    14   ar
    20    13    14   ar
