@<TRIPOS>MOLECULE
3qcl_NXV_A_1.pdb
 24 25 0 0 0
SMALL
GASTEIGER

@<TRIPOS>ATOM
      1  C1        19.3360   29.9610   64.2700 C.ar  2001  NXV2001     0.0421
      2  C2        20.4670   30.7760   64.4730 C.ar  2001  NXV2001     0.0085
      3  C3        21.2710   31.2380   63.4020 C.ar  2001  NXV2001     0.0077
      4  C4        20.9600   30.8090   62.1100 C.ar  2001  NXV2001     0.0855
      5  C5        19.8330   29.9670   61.9060 C.ar  2001  NXV2001     0.0325
      6  C6        19.0340   29.5040   62.9870 C.ar  2001  NXV2001     0.0146
      7  C7        18.5630   29.5160   65.3870 C.1   2001  NXV2001    -0.0643
      8  C8        17.9250   29.1510   66.3110 C.1   2001  NXV2001    -0.0837
      9  C9        17.1900   28.6850   67.4770 C.3   2001  NXV2001     0.1119
     10  S10       19.4700   29.4100   60.2920 S.3   2001  NXV2001    -0.1086
     11  C11       17.8080   28.8400   60.3770 C.3   2001  NXV2001     0.0884
     12  C12       17.4500   28.3610   59.0380 C.ar  2001  NXV2001    -0.0101
     13  C13       16.8230   29.2360   58.1630 C.ar  2001  NXV2001    -0.0025
     14  C14       16.4710   28.8280   56.8860 C.ar  2001  NXV2001     0.0120
     15  C15       16.7070   27.5170   56.5260 C.ar  2001  NXV2001     0.0682
     16  C16       17.3590   26.6300   57.4380 C.ar  2001  NXV2001     0.0679
     17  C17       17.7340   27.0380   58.7120 C.ar  2001  NXV2001     0.0088
     18 CL18       17.6470   25.0090   56.9560 Cl    2001  NXV2001    -0.0814
     19 CL19       16.1670   26.9140   54.9830 Cl    2001  NXV2001    -0.0814
     20  C20       21.7170   31.2900   60.9710 C.2   2001  NXV2001     0.3882
     21  O21       21.1390   32.0830   60.2530 O.co2 2001  NXV2001    -0.2405
     22  O22       22.9320   30.8950   60.7190 O.co2 2001  NXV2001    -0.2405
     23  C23       18.1550   28.3240   68.5620 C.3   2001  NXV2001     0.1960
     24  O24       18.2660   29.4230   69.4930 O.3   2001  NXV2001    -0.2193
@<TRIPOS>BOND
     1    19    15    1
     2    15    14   ar
     3    15    16   ar
     4    14    13   ar
     5    18    16    1
     6    16    17   ar
     7    13    12   ar
     8    17    12   ar
     9    12    11    1
    10    21    20   ar
    11    10    11    1
    12    10     5    1
    13    22    20   ar
    14    20     4    1
    15     5     4   ar
    16     5     6   ar
    17     4     3   ar
    18     6     1   ar
    19     3     2   ar
    20     1     2   ar
    21     1     7    1
    22     7     8    3
    23     8     9    1
    24     9    23    1
    25    23    24    1
