@<TRIPOS>MOLECULE
3qcm_NXW_A_1.pdb
 36 38 0 0 0
SMALL
GASTEIGER

@<TRIPOS>ATOM
      1  C1        23.6560   26.3080   24.5700 C.1   2001  NXW2001    -0.0597
      2  C2        23.1610   26.4310   25.6630 C.1   2001  NXW2001    -0.0597
      3  C3        26.1560   25.9980   21.8320 C.ar  2001  NXW2001     0.0020
      4  C4        25.6110   26.1090   23.1100 C.ar  2001  NXW2001     0.0083
      5  C5        21.2760   27.1120   27.0360 C.ar  2001  NXW2001     0.0085
      6  C6        20.6440   27.2110   28.2720 C.ar  2001  NXW2001     0.0077
      7  C7        26.2320   26.8270   32.5910 C.ar  2001  NXW2001    -0.0025
      8  C8        25.3200   25.9470   20.7110 C.ar  2001  NXW2001     0.0166
      9  C9        26.9750   26.5790   33.7600 C.ar  2001  NXW2001     0.0120
     10  C10       23.3820   26.1140   22.1440 C.ar  2001  NXW2001     0.0248
     11  C11       23.1850   26.0330   28.0730 C.ar  2001  NXW2001     0.0146
     12  C12       26.2060   24.4670   32.0680 C.ar  2001  NXW2001     0.0088
     13  C13       24.2230   26.1670   23.2620 C.ar  2001  NXW2001     0.0433
     14  C14       22.5430   26.5310   26.9390 C.ar  2001  NXW2001     0.0425
     15  C15       21.2810   26.7040   29.4070 C.ar  2001  NXW2001     0.0855
     16  C16       25.8640   25.7680   31.7640 C.ar  2001  NXW2001    -0.0101
     17  C17       23.9260   26.0060   20.8600 C.ar  2001  NXW2001     0.0740
     18  C18       22.5570   26.1320   29.3220 C.ar  2001  NXW2001     0.0325
     19  C19       27.3300   25.2640   34.0730 C.ar  2001  NXW2001     0.0682
     20  C20       26.9400   24.2270   33.2300 C.ar  2001  NXW2001     0.0679
     21  C21       20.6160   26.8280   30.6850 C.2   2001  NXW2001     0.3882
     22  C22       21.7020   25.9830   19.6310 C.2   2001  NXW2001     0.2633
     23  C23       16.7950   23.4270   16.9950 C.3   2001  NXW2001     0.1075
     24  C24       25.0720   26.0170   30.5270 C.3   2001  NXW2001     0.0884
     25  C25       21.2560   25.8950   18.1810 C.3   2001  NXW2001     0.1757
     26  C26       18.6320   24.3200   18.3020 C.3   2001  NXW2001     0.1075
     27  C27       18.9970   25.4960   17.3960 C.3   2001  NXW2001     0.1080
     28  N28       23.1020   25.9440   19.7310 N.am  2001  NXW2001    -0.1780
     29  N29       17.2200   24.0040   18.2750 N.3   2001  NXW2001    -0.2150
     30  N30       19.9310   26.4500   18.0010 N.3   2001  NXW2001    -0.2070
     31  O31       20.9180   27.6870   31.5100 O.co2 2001  NXW2001    -0.2405
     32  O32       20.9030   26.0750   20.5520 O.2   2001  NXW2001    -0.2714
     33  O33       19.6550   25.9030   30.9080 O.co2 2001  NXW2001    -0.2405
     34  S34       23.3770   25.4800   30.7910 S.3   2001  NXW2001    -0.1086
     35 CL35       28.2540   24.9260   35.4970 Cl    2001  NXW2001    -0.0814
     36 CL36       27.3810   22.6160   33.5950 Cl    2001  NXW2001    -0.0814
@<TRIPOS>BOND
     1    23    29    1
     2    27    30    1
     3    27    26    1
     4    30    25    1
     5    25    22    1
     6    29    26    1
     7    22    28   am
     8    22    32    2
     9    28    17    1
    10     8    17   ar
    11     8     3   ar
    12    17    10   ar
    13     3     4   ar
    14    10    13   ar
    15     4    13   ar
    16    13     1    1
    17     1     2    3
    18     2    14    1
    19    14     5   ar
    20    14    11   ar
    21     5     6   ar
    22    11    18   ar
    23     6    15   ar
    24    18    15   ar
    25    18    34    1
    26    15    21    1
    27    24    34    1
    28    24    16    1
    29    21    33   ar
    30    21    31   ar
    31    16    12   ar
    32    16     7   ar
    33    12    20   ar
    34     7     9   ar
    35    20    36    1
    36    20    19   ar
    37     9    19   ar
    38    19    35    1
