@<TRIPOS>MOLECULE
3qcq_3Q0_A_1.pdb
 20 22 0 0 0
SMALL
GASTEIGER

@<TRIPOS>ATOM
      1  C13      -40.6490   16.4720   12.7400 C.2   370  3Q0370     -0.0079
      2  C12      -41.8220   17.1280   12.4460 C.2   370  3Q0370     -0.0013
      3  C20      -42.9400   15.1320   11.7670 C.2   370  3Q0370      0.0217
      4  C5       -44.4240   18.5120   12.0030 C.3   370  3Q0370      0.1371
      5  C14      -40.6310   15.0970   12.5430 C.3   370  3Q0370      0.1824
      6  C11      -42.9450   16.4960   11.9600 C.2   370  3Q0370      0.0279
      7  C19      -41.7720   14.4790   12.0740 C.2   370  3Q0370      0.1212
      8  C6       -44.1550   17.2140   11.6230 C.2   370  3Q0370      0.1312
      9  C4       -45.6480   19.0320   11.6260 C.2   370  3Q0370      0.1968
     10  C15      -39.6760   14.0500   12.7090 C.2   370  3Q0370      0.4267
     11  C8       -46.1940   17.0560   10.6050 C.1   370  3Q0370      0.2421
     12  C1       -45.0440   20.8470   14.1490 C.3   370  3Q0370      0.0252
     13  C2       -44.8700   20.9790   12.6560 C.3   370  3Q0370      0.1146
     14  N7       -45.0280   16.4850   10.9230 N.2   370  3Q0370     -0.3298
     15  N10      -46.5350   18.3100   10.9300 N.2   370  3Q0370     -0.3132
     16  N17      -40.1960   12.8660   12.3590 N.2   370  3Q0370      0.0844
     17  N18      -41.4570   13.1520   11.9840 N.2   370  3Q0370     -0.0378
     18  N16      -38.4090   14.2590   13.1660 N.pl3 370  3Q0370      0.2142
     19  N9       -47.0980   16.2830    9.8740 N.pl3 370  3Q0370     -0.0232
     20  N3       -45.9880   20.3460   11.9780 N.pl3 370  3Q0370     -0.2123
@<TRIPOS>BOND
     1    19    11    1
     2    11    14    2
     3    11    15    2
     4    14     8    2
     5    15     9    2
     6     8     6    1
     7     8     4    1
     8     9    20    1
     9     9     4    1
    10     3     6    2
    11     3     7    1
    12     6     2    1
    13    20    13    1
    14    17     7    2
    15    17    16    1
    16     7     5    1
    17    16    10    2
    18     2     1    2
    19     5    10    1
    20     5     1    1
    21    13    12    1
    22    10    18    1
