@<TRIPOS>MOLECULE
3qcs_3Q1_A_1.pdb
 23 26 0 0 0
SMALL
GASTEIGER

@<TRIPOS>ATOM
      1  C9       -40.8520   16.4420   12.8550 C.2   370  3Q1370     -0.0079
      2  C8       -42.0130   17.1260   12.5620 C.2   370  3Q1370     -0.0013
      3  C6       -43.1360   15.1680   11.7880 C.2   370  3Q1370      0.0217
      4  C12      -44.6080   18.5260   12.1850 C.3   370  3Q1370      0.1356
      5  C10      -40.8490   15.0810   12.6040 C.3   370  3Q1370      0.1824
      6  C7       -43.1310   16.5230   12.0350 C.2   370  3Q1370      0.0279
      7  C5       -41.9800   14.4920   12.0880 C.2   370  3Q1370      0.1212
      8  C11      -44.3330   17.2600   11.7230 C.2   370  3Q1370      0.1311
      9  C13      -45.8210   19.0770   11.8310 C.2   370  3Q1370      0.1811
     10  C2       -39.9130   14.0190   12.7480 C.2   370  3Q1370      0.4267
     11  C15      -46.3500   17.1830   10.6660 C.1   370  3Q1370      0.2420
     12  C19      -44.9590   21.0230   12.8250 C.3   370  3Q1370      0.1249
     13  C23      -47.0900   21.0210   11.4150 C.3   370  3Q1370      0.1249
     14  C20      -44.8290   22.4510   12.3540 C.3   370  3Q1370      0.1636
     15  C22      -46.7030   22.4450   11.1100 C.3   370  3Q1370      0.1636
     16  N17      -45.1980   16.5800   10.9680 N.2   370  3Q1370     -0.3298
     17  N14      -46.6970   18.4100   11.0720 N.2   370  3Q1370     -0.3146
     18  N3       -40.4280   12.8530   12.3470 N.2   370  3Q1370      0.0844
     19  N4       -41.6720   13.1670   11.9540 N.2   370  3Q1370     -0.0378
     20  N18      -46.1430   20.3610   12.3020 N.pl3 370  3Q1370     -0.2808
     21  N1       -38.6640   14.2090   13.2340 N.pl3 370  3Q1370      0.2142
     22  N16      -47.2480   16.4620    9.8770 N.pl3 370  3Q1370     -0.0232
     23  O21      -46.1250   23.0140   12.2780 O.3   370  3Q1370     -0.3501
@<TRIPOS>BOND
     1    22    11    1
     2    11    16    2
     3    11    17    2
     4    16     8    2
     5    17     9    2
     6    15    13    1
     7    15    23    1
     8    13    20    1
     9     8     6    1
    10     8     4    1
    11     3     6    2
    12     3     7    1
    13     9     4    1
    14     9    20    1
    15    19     7    2
    16    19    18    1
    17     6     2    1
    18     7     5    1
    19    23    14    1
    20    20    12    1
    21    18    10    2
    22    14    12    1
    23     2     1    2
    24     5    10    1
    25     5     1    1
    26    10    21    1
