@<TRIPOS>MOLECULE
3qcu_NKN_H_1.pdb
 25 24 0 0 0
SMALL
GASTEIGER

@<TRIPOS>ATOM
      1  OAA       65.9490  -36.9420   10.2960 O.2   215  NKN215     -0.2224
      2  OAB       64.8270  -35.0700   11.5540 O.3   215  NKN215     -0.1145
      3  PAC       65.3520  -36.4650   11.5810 P.3   215  NKN215      0.5327
      4  OAD       66.1990  -36.7790   12.8010 O.3   215  NKN215     -0.1145
      5  OAE       59.9900  -37.0520   14.9470 O.2   215  NKN215     -0.2501
      6  OAF       64.0470  -37.3740   11.8060 O.3   215  NKN215     -0.2674
      7  CAG       63.0280  -37.3670   10.8130 C.3   215  NKN215      0.1904
      8  CAH       61.8340  -38.1450   11.3530 C.3   215  NKN215      0.2254
      9  CAI       61.2650  -37.4380   12.5710 C.3   215  NKN215      0.2437
     10  OAJ       60.4880  -38.4460   13.1950 O.3   215  NKN215     -0.4456
     11  CAK       59.9010  -38.2050   14.4850 C.2   215  NKN215      0.3171
     12  CAL       59.2060  -39.3530   15.1880 C.3   215  NKN215      0.1096
     13  CAM       59.5710  -40.7100   14.5470 C.3   215  NKN215      0.0116
     14  CAN       59.1000  -41.9140   15.3760 C.3   215  NKN215      0.0006
     15  CAO       59.7580  -43.1870   14.8210 C.3   215  NKN215      0.0000
     16  CAP       59.0620  -44.4900   15.2340 C.3   215  NKN215      0.0000
     17  CAQ       59.4870  -45.5900   14.2420 C.3   215  NKN215      0.0000
     18  CAR       58.8150  -46.9330   14.5360 C.3   215  NKN215      0.0000
     19  CAS       59.3370  -48.0390   13.6040 C.3   215  NKN215      0.0000
     20  CAT       60.8060  -48.3480   13.8680 C.3   215  NKN215      0.0000
     21  CAU       61.1390  -49.8190   13.6530 C.3   215  NKN215      0.0000
     22  CAV       62.4750  -49.9780   12.9500 C.3   215  NKN215      0.0000
     23  CAW       63.5810  -50.3730   13.9180 C.3   215  NKN215      0.0000
     24  CAX       64.5940  -51.2770   13.2480 C.3   215  NKN215      0.0000
     25  OAY       60.8180  -38.2700   10.3450 O.3   215  NKN215     -0.2164
@<TRIPOS>BOND
     1     1     3    2
     2    25     8    1
     3     7     8    1
     4     7     6    1
     5     8     9    1
     6     2     3    1
     7     3     6    1
     8     3     4    1
     9     9    10    1
    10    22    21    1
    11    22    23    1
    12    10    11    1
    13    24    23    1
    14    19    20    1
    15    19    18    1
    16    21    20    1
    17    17    18    1
    18    17    16    1
    19    11     5    2
    20    11    12    1
    21    13    12    1
    22    13    14    1
    23    15    16    1
    24    15    14    1
