@<TRIPOS>MOLECULE
3qcv_18L_H_1.pdb
 29 28 0 0 0
SMALL
GASTEIGER

@<TRIPOS>ATOM
      1  C1       -19.2800   37.2120   10.5790 C.3   215  18L215      0.1904
      2  O1       -21.2210   34.8930   11.1290 O.3   215  18L215     -0.1145
      3  P1       -21.6080   36.3200   11.3890 P.3   215  18L215      0.5327
      4  C2       -18.1200   38.0430   11.0990 C.3   215  18L215      0.2254
      5  O2       -22.2080   36.9340   10.1560 O.2   215  18L215     -0.2224
      6  C3       -17.5640   37.4500   12.3810 C.3   215  18L215      0.2437
      7  O3       -22.3100   36.5780   12.6910 O.3   215  18L215     -0.1145
      8  C4       -15.9970   38.1930   14.1580 C.2   215  18L215      0.3171
      9  O4       -20.2390   37.1140   11.6220 O.3   215  18L215     -0.2674
     10  C5       -15.3910   39.3750   14.8950 C.3   215  18L215      0.1096
     11  O5       -17.0730   38.0720   10.1230 O.3   215  18L215     -0.2164
     12  C6       -15.8410   40.7240   14.3360 C.3   215  18L215      0.0116
     13  O6       -16.5430   38.3310   12.8290 O.3   215  18L215     -0.4456
     14  C7       -15.2190   41.8960   15.0870 C.3   215  18L215      0.0006
     15  O7       -16.0370   37.0780   14.6550 O.2   215  18L215     -0.2501
     16  C8       -15.8160   43.2110   14.6030 C.3   215  18L215      0.0000
     17  C9       -15.1340   44.4460   15.1820 C.3   215  18L215      0.0003
     18  C10      -14.9850   45.5570   14.1370 C.3   215  18L215      0.0047
     19  C11      -15.3730   46.9200   14.7130 C.3   215  18L215      0.0257
     20  C12      -14.9930   48.0490   13.7740 C.2   215  18L215     -0.0304
     21  C13      -15.7990   49.0680   13.4260 C.2   215  18L215     -0.0260
     22  C14      -17.2350   49.2940   13.8790 C.3   215  18L215      0.0513
     23  C15      -18.2350   48.4470   13.0930 C.2   215  18L215     -0.0260
     24  C16      -19.1490   48.8680   12.1890 C.2   215  18L215     -0.0304
     25  C17      -19.3640   50.3050   11.7620 C.3   215  18L215      0.0257
     26  C18      -19.1350   50.4400   10.2540 C.3   215  18L215      0.0047
     27  C19      -17.9440   51.3510    9.9340 C.3   215  18L215      0.0003
     28  C20      -18.2500   52.3410    8.8080 C.3   215  18L215      0.0000
     29  C21      -17.1030   52.4290    7.8150 C.3   215  18L215      0.0000
@<TRIPOS>BOND
     1    29    28    1
     2    28    27    1
     3    27    26    1
     4    11     4    1
     5     5     3    2
     6    26    25    1
     7     1     4    1
     8     1     9    1
     9     4     6    1
    10     2     3    1
    11     3     9    1
    12     3     7    1
    13    25    24    1
    14    24    23    2
    15     6    13    1
    16    13     8    1
    17    23    22    1
    18    21    20    2
    19    21    22    1
    20    20    19    1
    21    18    19    1
    22    18    17    1
    23     8    15    2
    24     8    10    1
    25    12    10    1
    26    12    14    1
    27    16    14    1
    28    16    17    1
