@<TRIPOS>MOLECULE
3qcx_3Q2_A_1.pdb
 24 27 0 0 0
SMALL
GASTEIGER

@<TRIPOS>ATOM
      1  C1       -40.6850   16.4550   12.9350 C.2   370  3Q2370     -0.0120
      2  C2       -41.8750   17.0930   12.6120 C.3   370  3Q2370      0.0550
      3  C3       -42.9100   15.0750   11.8780 C.2   370  3Q2370      0.0215
      4  C4       -44.3540   18.4770   11.8950 C.3   370  3Q2370      0.1353
      5  C5       -40.6150   15.0770   12.7190 C.2   370  3Q2370      0.1103
      6  C6       -42.9720   16.4350   12.0800 C.2   370  3Q2370      0.0107
      7  C7       -41.7370   14.4430   12.2140 C.2   370  3Q2370      0.1346
      8  C8       -44.1880   17.1330   11.6770 C.2   370  3Q2370      0.1275
      9  C9       -45.5240   19.0700   11.4710 C.2   370  3Q2370      0.1811
     10  C10      -39.6520   14.0240   12.8860 C.2   370  3Q2370      0.4416
     11  C11      -46.2580   17.0720   10.6730 C.1   370  3Q2370      0.2420
     12  C12      -47.0610   20.9290   11.7300 C.3   370  3Q2370      0.1249
     13  C13      -46.9770   22.3920   11.3480 C.3   370  3Q2370      0.1636
     14  C14      -44.7440   22.5510   12.1170 C.3   370  3Q2370      0.1618
     15  C15      -44.7480   21.1090   12.5730 C.3   370  3Q2370      0.1045
     16  C16      -45.2040   21.0400   14.0050 C.3   370  3Q2370      0.0241
     17  N17      -45.1440   16.4210   11.0680 N.2   370  3Q2370     -0.3301
     18  N18      -46.4790   18.3740   10.8450 N.2   370  3Q2370     -0.3146
     19  N19      -40.1520   12.8400   12.5000 N.2   370  3Q2370      0.0889
     20  N20      -41.4040   13.1190   12.0980 N.2   370  3Q2370     -0.0338
     21  N21      -45.6910   20.4680   11.6540 N.pl3 370  3Q2370     -0.2825
     22  N22      -38.3840   14.1870   13.3820 N.pl3 370  3Q2370      0.2188
     23  N23      -47.2810   16.3820   10.0280 N.pl3 370  3Q2370     -0.0232
     24  O24      -46.0780   23.0730   12.2250 O.3   370  3Q2370     -0.3502
@<TRIPOS>BOND
     1    23    11    1
     2    11    18    2
     3    11    17    2
     4    18     9    2
     5    17     8    2
     6    13    12    1
     7    13    24    1
     8     9    21    1
     9     9     4    1
    10    21    12    1
    11    21    15    1
    12     8     4    1
    13     8     6    1
    14     3     6    2
    15     3     7    1
    16     6     2    1
    17    20     7    2
    18    20    19    1
    19    14    24    1
    20    14    15    1
    21     7     5    1
    22    19    10    2
    23    15    16    1
    24     2     1    1
    25     5    10    1
    26     5     1    2
    27    10    22    1
