@<TRIPOS>MOLECULE
3qcy_3Q3_A_1.pdb
 32 36 0 0 0
SMALL
GASTEIGER

@<TRIPOS>ATOM
      1  C1       -52.3130   24.8140    9.0860 C.ar  371  3Q3371      0.0001
      2  C2       -51.9380   23.6580    8.4390 C.ar  371  3Q3371      0.0013
      3  C3       -51.4510   25.4180    9.9730 C.ar  371  3Q3371      0.0013
      4  C4       -40.6460   16.4430   13.0320 C.2   371  3Q3371     -0.0120
      5  C5       -41.8160   17.0990   12.7060 C.3   371  3Q3371      0.0550
      6  C6       -50.7030   23.1030    8.6790 C.ar  371  3Q3371      0.0166
      7  C7       -50.2160   24.8640   10.2120 C.ar  371  3Q3371      0.0166
      8  C8       -42.8600   15.1180   11.8700 C.2   371  3Q3371      0.0215
      9  C9       -44.2550   18.5570   11.9890 C.3   371  3Q3371      0.1353
     10  C10      -40.5950   15.0820   12.7690 C.2   371  3Q3371      0.1103
     11  C11      -42.9030   16.4710   12.1350 C.2   371  3Q3371      0.0107
     12  C12      -41.6950   14.4700   12.2100 C.2   371  3Q3371      0.1346
     13  C13      -49.8460   23.7080    9.5660 C.ar  371  3Q3371      0.0734
     14  C14      -44.0980   17.2080   11.7620 C.2   371  3Q3371      0.1275
     15  C15      -45.4340   19.1380   11.5730 C.2   371  3Q3371      0.1811
     16  C16      -39.6330   14.0450   12.9310 C.2   371  3Q3371      0.4416
     17  C17      -46.1520   17.1230   10.7690 C.1   371  3Q3371      0.2420
     18  C18      -48.0390   23.1910   11.0650 C.2   371  3Q3371      0.2745
     19  C19      -44.8460   21.1600   12.7850 C.3   371  3Q3371      0.1250
     20  C20      -46.9820   21.0280   11.6660 C.3   371  3Q3371      0.1319
     21  C21      -44.6550   22.5540   12.2170 C.3   371  3Q3371      0.1642
     22  C22      -46.7480   22.4300   11.1220 C.3   371  3Q3371      0.2126
     23  N23      -45.0390   16.4830   11.1520 N.2   371  3Q3371     -0.3301
     24  N24      -46.3800   18.4270   10.9520 N.2   371  3Q3371     -0.3146
     25  N25      -40.1020   12.8730   12.4900 N.2   371  3Q3371      0.0889
     26  N26      -41.3440   13.1560   12.0670 N.2   371  3Q3371     -0.0338
     27  N27      -45.6220   20.5300   11.7460 N.pl3 371  3Q3371     -0.2803
     28  N28      -38.3940   14.2510   13.4610 N.pl3 371  3Q3371      0.2188
     29  N29      -47.1560   16.3900   10.1260 N.pl3 371  3Q3371     -0.0232
     30  N30      -48.5900   23.1390    9.8060 N.am  371  3Q3371     -0.1771
     31  O31      -48.5120   23.7790   12.0280 O.2   371  3Q3371     -0.2703
     32  O32      -45.9310   23.1790   12.0300 O.3   371  3Q3371     -0.3435
@<TRIPOS>BOND
     1     2     6   ar
     2     2     1   ar
     3     6    13   ar
     4     1     3   ar
     5    13    30    1
     6    13     7   ar
     7    30    18   am
     8     3     7   ar
     9    29    17    1
    10    17    24    2
    11    17    23    2
    12    24    15    2
    13    18    22    1
    14    18    31    2
    15    22    20    1
    16    22    32    1
    17    23    14    2
    18    15    27    1
    19    15     9    1
    20    20    27    1
    21    27    19    1
    22    14     9    1
    23    14    11    1
    24     8    11    2
    25     8    12    1
    26    32    21    1
    27    26    12    2
    28    26    25    1
    29    11     5    1
    30    12    10    1
    31    21    19    1
    32    25    16    2
    33     5     4    1
    34    10    16    1
    35    10     4    2
    36    16    28    1
