@<TRIPOS>MOLECULE
3qcz_GLU_A_1.pdb
 10 9 0 0 0
SMALL
GASTEIGER

@<TRIPOS>ATOM
      1  N          4.1280   33.9860   24.5270 N.3   701  GLU701     -0.1208
      2  CA         3.2030   33.0120   25.1540 C.3   701  GLU701      0.1949
      3  C          1.8260   32.9190   24.5620 C.2   701  GLU701      0.3819
      4  O          0.8100   33.4130   25.0290 O.co2 701  GLU701     -0.2441
      5  CB         3.1020   33.2220   26.6180 C.3   701  GLU701      0.0424
      6  CG         4.3480   32.9580   27.1610 C.3   701  GLU701      0.1161
      7  CD         5.1670   34.1930   27.1500 C.2   701  GLU701      0.3649
      8  OE1        6.3190   33.9570   27.4050 O.co2 701  GLU701     -0.2457
      9  OE2        4.7140   35.3660   26.8930 O.co2 701  GLU701     -0.2457
     10  OXT        1.8500   32.1550   23.5800 O.co2 701  GLU701     -0.2441
@<TRIPOS>BOND
     1    10     3   ar
     2     1     2    1
     3     3     4   ar
     4     3     2    1
     5     2     5    1
     6     5     6    1
     7     9     7   ar
     8     7     6    1
     9     7     8   ar
