@<TRIPOS>MOLECULE
3qcz_ANP_A_1.pdb
 31 33 0 0 0
SMALL
GASTEIGER

@<TRIPOS>ATOM
      1  PG         6.0290   26.7360   18.4700 P.3   501  ANP501      0.4884
      2  O1G        4.7910   26.3400   17.5990 O.2   501  ANP501     -0.2331
      3  O2G        6.5640   28.1720   18.4460 O.3   501  ANP501     -0.1240
      4  O3G        7.1760   25.7740   18.2100 O.3   501  ANP501     -0.1240
      5  PB         4.7910   25.2270   20.6610 P.3   501  ANP501      0.4669
      6  O1B        3.7330   24.7730   19.6030 O.2   501  ANP501     -0.2351
      7  O2B        4.2100   25.6520   22.0840 O.3   501  ANP501     -0.1253
      8  N3B        5.6490   26.5430   20.0990 N.3   501  ANP501     -0.0163
      9  PA         6.5600   22.9340   20.3060 P.3   501  ANP501      0.2220
     10  O1A        5.9700   21.6590   20.7750 O.3   501  ANP501     -0.4370
     11  O2A        6.5280   23.2640   18.8210 O.2   501  ANP501     -0.5170
     12  O3A        5.9020   24.1820   21.1750 O.3   501  ANP501     -0.2360
     13  O5'        8.0370   22.9710   20.8240 O.3   501  ANP501     -0.3111
     14  C5'        8.8870   24.0180   20.3570 C.3   501  ANP501      0.1813
     15  C4'       10.2080   24.1590   21.0750 C.3   501  ANP501      0.1821
     16  O4'       10.0550   24.1700   22.5130 O.3   501  ANP501     -0.3135
     17  C3'       11.2070   23.0380   20.7420 C.3   501  ANP501      0.2184
     18  O3'       12.5330   23.6050   20.9690 O.3   501  ANP501     -0.2174
     19  C2'       10.9070   22.1530   21.8690 C.3   501  ANP501      0.2570
     20  O2'       11.9540   21.2750   22.1350 O.3   501  ANP501     -0.2130
     21  C1'       10.7180   23.1030   23.1130 C.3   501  ANP501      0.3186
     22  N9         9.8940   22.4410   24.1260 N.pl3 501  ANP501     -0.1439
     23  C8         8.7120   21.9010   23.8770 C.3   501  ANP501      0.3377
     24  N7         8.1480   21.4120   24.9990 N.2   501  ANP501     -0.2095
     25  C5         9.1010   21.6650   25.9860 C.2   501  ANP501      0.2526
     26  C6         9.1440   21.3660   27.3250 C.2   501  ANP501      0.4393
     27  N6         8.1170   20.7480   27.9540 N.pl3 501  ANP501      0.2180
     28  N1        10.1850   21.7550   28.0360 N.2   501  ANP501      0.0021
     29  C2        11.2140   22.3580   27.4550 C.3   501  ANP501      0.5254
     30  N3        11.2470   22.6830   26.1680 N.2   501  ANP501     -0.0055
     31  C4        10.1690   22.2850   25.4120 C.2   501  ANP501      0.3518
@<TRIPOS>BOND
     1     2     1    2
     2     4     1    1
     3     3     1    1
     4     1     8    1
     5    11     9    2
     6     6     5    2
     7     8     5    1
     8     9    10    1
     9     9    13    1
    10     9    12    1
    11    14    13    1
    12    14    15    1
    13     5    12    1
    14     5     7    1
    15    17    18    1
    16    17    15    1
    17    17    19    1
    18    15    16    1
    19    19    20    1
    20    19    21    1
    21    16    21    1
    22    21    22    1
    23    23    22    1
    24    23    24    1
    25    22    31    1
    26    24    25    2
    27    31    25    1
    28    31    30    2
    29    25    26    1
    30    30    29    1
    31    26    27    1
    32    26    28    2
    33    29    28    1
