@<TRIPOS>MOLECULE
3qd0_3Q4_A_1.pdb
 33 37 0 0 0
SMALL
GASTEIGER

@<TRIPOS>ATOM
      1  C1       -52.8550   24.7130    9.1690 C.ar  370  3Q4370      0.0001
      2  C2       -52.2490   23.8000    8.3290 C.ar  370  3Q4370      0.0013
      3  C3       -52.1820   25.1640   10.2880 C.ar  370  3Q4370      0.0013
      4  C4       -40.8020   16.4820   13.0440 C.2   370  3Q4370     -0.0120
      5  C5       -42.0000   17.0910   12.7040 C.3   370  3Q4370      0.0550
      6  C6       -50.9790   23.3360    8.6110 C.ar  370  3Q4370      0.0166
      7  C7       -50.9130   24.7030   10.5740 C.ar  370  3Q4370      0.0166
      8  C8       -43.0190   15.0870   11.9110 C.2   370  3Q4370      0.0215
      9  C9       -44.5490   18.5190   12.0560 C.3   370  3Q4370      0.1353
     10  C10      -40.7190   15.1080   12.7980 C.2   370  3Q4370      0.1103
     11  C11      -43.1010   16.4520   12.1410 C.2   370  3Q4370      0.0107
     12  C12      -41.8260   14.4760   12.2570 C.2   370  3Q4370      0.1346
     13  C13      -50.3160   23.7840    9.7340 C.ar  370  3Q4370      0.0734
     14  C14      -44.3320   17.1860   11.7520 C.2   370  3Q4370      0.1275
     15  C15      -45.7500   19.1170   11.6860 C.2   370  3Q4370      0.1809
     16  C16      -39.7370   14.0810   12.9550 C.2   370  3Q4370      0.4416
     17  C17      -46.4210   17.1120   10.7650 C.1   370  3Q4370      0.2420
     18  C18      -48.5250   23.1180   11.2570 C.2   370  3Q4370      0.2468
     19  C19      -46.3510   23.2490   12.3950 C.3   370  3Q4370      0.0126
     20  C20      -44.9820   22.6120   12.6350 C.3   370  3Q4370      0.0203
     21  C21      -47.3210   21.0520   11.8320 C.3   370  3Q4370      0.1019
     22  C22      -47.1510   22.4810   11.3360 C.3   370  3Q4370      0.0983
     23  C23      -45.0930   21.1290   12.9980 C.3   370  3Q4370      0.0749
     24  C24      -45.5760   20.9800   14.4180 C.3   370  3Q4370      0.0215
     25  N25      -45.2770   16.4850   11.1050 N.2   370  3Q4370     -0.3301
     26  N26      -46.6810   18.4020   11.0390 N.2   370  3Q4370     -0.3146
     27  N27      -40.2110   12.8990   12.5270 N.2   370  3Q4370      0.0889
     28  N28      -41.4590   13.1680   12.1200 N.2   370  3Q4370     -0.0338
     29  N29      -45.9620   20.5170   11.9760 N.pl3 370  3Q4370     -0.2870
     30  N30      -38.4790   14.2720   13.4660 N.pl3 370  3Q4370      0.2188
     31  N31      -47.4170   16.3900   10.0880 N.pl3 370  3Q4370     -0.0232
     32  N32      -49.0260   23.2960    9.9890 N.am  370  3Q4370     -0.1792
     33  O33      -49.1330   23.4090   12.2650 O.2   370  3Q4370     -0.2729
@<TRIPOS>BOND
     1     2     6   ar
     2     2     1   ar
     3     6    13   ar
     4     1     3   ar
     5    13    32    1
     6    13     7   ar
     7    32    18   am
     8    31    17    1
     9     3     7   ar
    10    17    26    2
    11    17    25    2
    12    26    15    2
    13    25    14    2
    14    18    22    1
    15    18    33    2
    16    22    21    1
    17    22    19    1
    18    15    29    1
    19    15     9    1
    20    14     9    1
    21    14    11    1
    22    21    29    1
    23     8    11    2
    24     8    12    1
    25    29    23    1
    26    28    12    2
    27    28    27    1
    28    11     5    1
    29    12    10    1
    30    19    20    1
    31    27    16    2
    32    20    23    1
    33     5     4    1
    34    10    16    1
    35    10     4    2
    36    16    30    1
    37    23    24    1
