@<TRIPOS>MOLECULE
3qd3_3Q5_A_1.pdb
 32 35 0 0 0
SMALL
GASTEIGER

@<TRIPOS>ATOM
      1  C1       -40.6660   16.4550   12.7750 C.2   360  3Q5360     -0.0120
      2  C2       -41.8590   17.0570   12.4210 C.3   360  3Q5360      0.0550
      3  C3       -42.8460   15.0070   11.6940 C.2   360  3Q5360      0.0215
      4  C4       -44.4420   18.3530   11.9070 C.3   360  3Q5360      0.1353
      5  C5       -40.5730   15.0820   12.5770 C.2   360  3Q5360      0.1103
      6  C6       -42.9360   16.3710   11.8880 C.2   360  3Q5360      0.0107
      7  C7       -41.6550   14.4070   12.0490 C.2   360  3Q5360      0.1346
      8  C8       -44.1760   17.0560   11.5220 C.2   360  3Q5360      0.1275
      9  C9       -45.6630   18.8970   11.5510 C.2   360  3Q5360      0.1810
     10  C10      -39.5730   14.0880   12.7780 C.2   360  3Q5360      0.4416
     11  C11      -46.2440   16.9380   10.5330 C.1   360  3Q5360      0.2420
     12  C12      -50.2420   21.6380   12.2420 C.2   360  3Q5360      0.4209
     13  C13      -46.8400   22.4720   13.1470 C.3   360  3Q5360      0.0252
     14  C14      -45.6190   21.7220   13.6720 C.3   360  3Q5360      0.0216
     15  C15      -47.0210   20.9300   11.2520 C.3   360  3Q5360      0.1144
     16  C16      -47.7830   21.5260   12.4210 C.3   360  3Q5360      0.1185
     17  C17      -44.9120   20.9990   12.5490 C.3   360  3Q5360      0.0750
     18  C18      -44.3720   22.0000   11.5600 C.3   360  3Q5360      0.0215
     19  C19      -52.8060   21.8810   13.4010 C.3   360  3Q5360      0.0437
     20  C20      -53.3910   23.2460   11.4280 C.3   360  3Q5360      0.0437
     21  C21      -52.8950   20.8590   11.1140 C.3   360  3Q5360      0.0437
     22  C22      -52.5490   22.0890   11.9220 C.3   360  3Q5360      0.1379
     23  N23      -45.0780   16.3410   10.8320 N.2   360  3Q5360     -0.3301
     24  N24      -46.5750   18.1870   10.8750 N.2   360  3Q5360     -0.3146
     25  N25      -40.0080   12.8800   12.3970 N.2   360  3Q5360      0.0889
     26  N26      -41.2670   13.0950   11.9680 N.2   360  3Q5360     -0.0338
     27  N27      -45.9870   20.2100   11.9740 N.pl3 360  3Q5360     -0.2858
     28  N28      -38.3390   14.3720   13.2870 N.pl3 360  3Q5360      0.2188
     29  N29      -47.2060   16.2170    9.8180 N.pl3 360  3Q5360     -0.0232
     30  N30      -49.0020   22.2040   12.0420 N.am  360  3Q5360     -0.1687
     31  O31      -50.4770   20.5740   12.7930 O.2   360  3Q5360     -0.2246
     32  O32      -51.1890   22.4510   11.7000 O.3   360  3Q5360     -0.4408
@<TRIPOS>BOND
     1    29    11    1
     2    11    23    2
     3    11    24    2
     4    23     8    2
     5    24     9    2
     6    21    22    1
     7    15    27    1
     8    15    16    1
     9    20    22    1
    10     8     6    1
    11     8     4    1
    12     9     4    1
    13     9    27    1
    14    18    17    1
    15     3     6    2
    16     3     7    1
    17    32    22    1
    18    32    12    1
    19     6     2    1
    20    22    19    1
    21    26     7    2
    22    26    25    1
    23    27    17    1
    24    30    12   am
    25    30    16    1
    26     7     5    1
    27    12    31    2
    28    25    10    2
    29     2     1    1
    30    16    13    1
    31    17    14    1
    32     5     1    2
    33     5    10    1
    34    10    28    1
    35    13    14    1
