@<TRIPOS>MOLECULE
3qd4_3Q6_A_1.pdb
 32 35 0 0 0
SMALL
GASTEIGER

@<TRIPOS>ATOM
      1  C1       -41.1240   16.4690   12.9480 C.2   360  3Q6360     -0.0120
      2  C2       -42.2820   17.1410   12.6000 C.3   360  3Q6360      0.0550
      3  C3       -43.3400   15.1520   11.8220 C.2   360  3Q6360      0.0215
      4  C4       -44.8070   18.5420   11.8730 C.3   360  3Q6360      0.1353
      5  C5       -41.0830   15.0980   12.7240 C.2   360  3Q6360      0.1103
      6  C6       -43.3760   16.5110   12.0360 C.2   360  3Q6360      0.0107
      7  C7       -42.1900   14.4870   12.1790 C.2   360  3Q6360      0.1346
      8  C8       -44.5840   17.2070   11.6270 C.2   360  3Q6360      0.1275
      9  C9       -46.0200   19.0500   11.4440 C.2   360  3Q6360      0.1810
     10  C10      -40.1420   14.0330   12.9060 C.2   360  3Q6360      0.4416
     11  C11      -46.6500   17.0150   10.6290 C.1   360  3Q6360      0.2420
     12  C12      -50.4740   21.7030   12.3330 C.2   360  3Q6360      0.4209
     13  C13      -47.0460   22.5690   13.0400 C.3   360  3Q6360      0.0252
     14  C14      -45.1710   21.2820   11.9550 C.3   360  3Q6360      0.0929
     15  C15      -47.4620   21.0020   11.0990 C.3   360  3Q6360      0.1145
     16  C16      -45.6510   21.9650   13.2290 C.3   360  3Q6360      0.0216
     17  C17      -48.0390   21.6270   12.3570 C.3   360  3Q6360      0.1185
     18  C18      -45.6720   20.9480   14.3450 C.3   360  3Q6360      0.0018
     19  C19      -53.1510   22.1240   13.4730 C.3   360  3Q6360      0.0437
     20  C20      -53.5610   23.2920   11.3170 C.3   360  3Q6360      0.0437
     21  C21      -53.1920   20.8780   11.2950 C.3   360  3Q6360      0.0437
     22  C22      -52.8070   22.1660   11.9910 C.3   360  3Q6360      0.1379
     23  N23      -45.4950   16.4440   11.0000 N.2   360  3Q6360     -0.3301
     24  N24      -46.9520   18.3010   10.8420 N.2   360  3Q6360     -0.3146
     25  N25      -40.6410   12.8620   12.4980 N.2   360  3Q6360      0.0889
     26  N26      -41.8770   13.1570   12.0670 N.2   360  3Q6360     -0.0338
     27  N27      -46.3020   20.4020   11.7270 N.pl3 360  3Q6360     -0.2841
     28  N28      -38.8970   14.1940   13.4270 N.pl3 360  3Q6360      0.2188
     29  N29      -47.6110   16.2260    9.9840 N.pl3 360  3Q6360     -0.0232
     30  N30      -49.2690   22.3130   12.0960 N.am  360  3Q6360     -0.1687
     31  O31      -50.6600   20.6440   12.9150 O.2   360  3Q6360     -0.2246
     32  O32      -51.4270   22.4970   11.7890 O.3   360  3Q6360     -0.4408
@<TRIPOS>BOND
     1    29    11    1
     2    11    24    2
     3    11    23    2
     4    24     9    2
     5    23     8    2
     6    15    27    1
     7    15    17    1
     8    21    22    1
     9    20    22    1
    10     9    27    1
    11     9     4    1
    12     8     4    1
    13     8     6    1
    14    27    14    1
    15    32    22    1
    16    32    12    1
    17     3     6    2
    18     3     7    1
    19    14    16    1
    20    22    19    1
    21     6     2    1
    22    26     7    2
    23    26    25    1
    24    30    12   am
    25    30    17    1
    26     7     5    1
    27    12    31    2
    28    17    13    1
    29    25    10    2
    30     2     1    1
    31     5    10    1
    32     5     1    2
    33    10    28    1
    34    13    16    1
    35    16    18    1
