@<TRIPOS>MOLECULE
3qdc_RET_A_1.pdb
 20 20 0 0 0
SMALL
GASTEIGER

@<TRIPOS>ATOM
      1  C1        19.2520   34.1520    5.8880 C.3   240  RET240      0.0152
      2  C2        20.2200   35.1480    6.5590 C.3   240  RET240      0.0037
      3  C3        21.0010   34.4300    7.7000 C.3   240  RET240      0.0006
      4  C4        22.0110   33.4860    7.0120 C.3   240  RET240      0.0040
      5  C5        21.2450   32.4940    6.1500 C.3   240  RET240      0.0183
      6  C6        19.9490   32.7390    5.6470 C.2   240  RET240     -0.0452
      7  C7        19.3210   31.6930    4.9350 C.2   240  RET240     -0.0092
      8  C8        18.0250   31.7640    4.3900 C.2   240  RET240     -0.0091
      9  C9        17.4470   30.7070    3.6640 C.2   240  RET240     -0.0439
     10  C10       16.1330   30.8400    3.1850 C.3   240  RET240      0.0224
     11  C11       15.4880   29.8330    2.4350 C.3   240  RET240      0.0087
     12  C12       14.1470   30.1350    2.2010 C.3   240  RET240      0.0220
     13  C13       13.2480   29.2040    1.6670 C.2   240  RET240     -0.0482
     14  C14       11.9420   29.5950    1.5220 C.2   240  RET240     -0.0342
     15  C15       11.0250   28.6780    1.0540 C.3   240  RET240      0.0300
     16  C16       18.0280   33.9700    6.7880 C.3   240  RET240      0.0040
     17  C17       18.8560   34.8470    4.5330 C.3   240  RET240      0.0040
     18  C18       21.9780   31.1520    5.9000 C.3   240  RET240      0.0043
     19  C19       18.2150   29.3720    3.4440 C.3   240  RET240      0.0264
     20  C20       13.6930   27.7930    1.1960 C.3   240  RET240      0.0260
@<TRIPOS>BOND
     1    15    14    1
     2    20    13    1
     3    14    13    2
     4    13    12    1
     5    12    11    1
     6    11    10    1
     7    10     9    1
     8    19     9    1
     9     9     8    2
    10     8     7    1
    11    17     1    1
    12     7     6    2
    13     6     1    1
    14     6     5    1
    15     1     2    1
    16     1    16    1
    17    18     5    1
    18     5     4    1
    19     2     3    1
    20     4     3    1
