@<TRIPOS>MOLECULE
3qdd_94M_A_1.pdb
 22 24 0 0 0
SMALL
GASTEIGER

@<TRIPOS>ATOM
      1  N1         1.5940   34.8750   25.7580 N.2   999  94M999     -0.3123
      2  C2         1.3230   34.2990   24.6010 C.1   999  94M999      0.2436
      3  N2         2.3430   33.8000   23.9490 N.pl3 999  94M999     -0.0232
      4  N3         0.0960   34.2200   24.0790 N.2   999  94M999     -0.3087
      5  C4        -0.9480   34.7420   24.7590 C.2   999  94M999      0.2196
      6  C5        -0.7210   35.3390   26.0190 C.2   999  94M999      0.1642
      7  C6         0.5780   35.3890   26.4700 C.2   999  94M999      0.2235
      8 CL6         0.9770   36.1350   28.0080 Cl    999  94M999     -0.0455
      9  N7        -1.9240   35.8120   26.4480 N.2   999  94M999     -0.2406
     10  C8        -2.8620   35.4420   25.5740 C.3   999  94M999      0.2223
     11  N9        -2.2570   34.8210   24.5490 N.pl3 999  94M999     -0.2550
     12  CAA       -4.5440   29.4950   26.3880 C.3   999  94M999      0.2524
     13  CAB       -7.1600   30.5510   24.7860 C.3   999  94M999      0.0358
     14  CAC       -2.2590   31.3860   24.3800 C.3   999  94M999      0.0355
     15  CAF       -6.2670   32.7750   23.9830 C.ar  999  94M999      0.0972
     16  CAH       -2.9480   34.2740   23.3670 C.3   999  94M999      0.1406
     17  NAI       -5.2630   33.6260   23.6720 N.ar  999  94M999     -0.2469
     18  OAM       -4.4450   29.7890   25.0020 O.3   999  94M999     -0.4720
     19  CAN       -6.0190   31.4930   24.4680 C.ar  999  94M999      0.0309
     20  CAP       -3.6860   31.9250   24.2390 C.ar  999  94M999      0.0270
     21  CAR       -3.9870   33.2430   23.7850 C.ar  999  94M999      0.0780
     22  CAS       -4.7130   31.0540   24.5460 C.ar  999  94M999      0.1333
@<TRIPOS>BOND
     1    16    21    1
     2    16    11    1
     3    17    21   ar
     4    17    15   ar
     5    21    20   ar
     6     3     2    1
     7    15    19   ar
     8     4     2    2
     9     4     5    2
    10    20    14    1
    11    20    22   ar
    12    19    22   ar
    13    19    13    1
    14    22    18    1
    15    11     5    1
    16    11    10    1
    17     2     1    2
    18     5     6    1
    19    18    12    1
    20    10     9    1
    21     1     7    2
    22     6     9    2
    23     6     7    1
    24     7     8    1
