@<TRIPOS>MOLECULE
3qdk_QDK_A_1.pdb
 10 9 0 0 0
SMALL
GASTEIGER

@<TRIPOS>ATOM
      1  C1        48.1560   39.3450   40.5730 C.3   573  QDK573      0.2486
      2  O1        48.5630   37.9120   40.4520 O.3   573  QDK573     -0.2118
      3  C2        47.7020   39.8610   39.2070 C.2   573  QDK573      0.2165
      4  O2        47.1210   39.0630   38.4550 O.2   573  QDK573     -0.2905
      5  C3        48.0490   41.3170   38.7150 C.3   573  QDK573      0.2440
      6  O3        47.1170   41.7140   37.6840 O.3   573  QDK573     -0.2122
      7  C4        47.9930   42.3890   39.8680 C.3   573  QDK573      0.2221
      8  O4        48.3880   43.7010   39.3550 O.3   573  QDK573     -0.2171
      9  C5        46.5960   42.5650   40.4190 C.3   573  QDK573      0.2179
     10  O5        46.6880   43.5300   41.4950 O.3   573  QDK573     -0.2175
@<TRIPOS>BOND
     1     6     5    1
     2     4     3    2
     3     5     3    1
     4     5     7    1
     5     3     1    1
     6     8     7    1
     7     7     9    1
     8     9    10    1
     9     2     1    1
