@<TRIPOS>MOLECULE
3qdl_FMN_A_1.pdb
 31 33 0 0 0
SMALL
GASTEIGER

@<TRIPOS>ATOM
      1  N1        17.4700  -10.4260    2.9220 N.2   300  FMN300     -0.2887
      2  C2        16.6630  -11.5410    3.0740 C.1   300  FMN300      0.3669
      3  O2        16.6940  -12.1780    4.1240 O.2   300  FMN300     -0.1744
      4  N3        15.8210  -11.9370    2.0510 N.2   300  FMN300     -0.2300
      5  C4        15.7840  -11.2230    0.8690 C.1   300  FMN300      0.2513
      6  O4        15.0320  -11.5760   -0.0430 O.2   300  FMN300     -0.2057
      7  C4A       16.6000  -10.1040    0.7130 C.2   300  FMN300      0.2706
      8  N5        16.5660   -9.3920   -0.4670 N.2   300  FMN300     -0.3841
      9  C5A       17.3600   -8.2760   -0.6400 C.2   300  FMN300      0.1452
     10  C6        17.2910   -7.5800   -1.8460 C.2   300  FMN300      0.0252
     11  C7        18.0780   -6.4530   -2.0530 C.2   300  FMN300     -0.0375
     12  C7M       17.9760   -5.7280   -3.3640 C.3   300  FMN300      0.0268
     13  C8        18.9390   -6.0230   -1.0390 C.3   300  FMN300      0.0417
     14  C8M       19.8020   -4.8080   -1.2240 C.3   300  FMN300      0.0091
     15  C9        19.0040   -6.7180    0.1690 C.2   300  FMN300     -0.0049
     16  C9A       18.2180   -7.8560    0.3830 C.2   300  FMN300      0.0795
     17  N10       18.2700   -8.5790    1.5800 N.pl3 300  FMN300     -0.2545
     18  C10       17.4530   -9.6990    1.7430 C.2   300  FMN300      0.2449
     19  C1'       19.1730   -8.1670    2.7170 C.3   300  FMN300      0.1336
     20  C2'       20.6590   -8.4520    2.4620 C.3   300  FMN300      0.2048
     21  O2'       20.8980   -9.8450    2.4560 O.3   300  FMN300     -0.2185
     22  C3'       21.5190   -7.7610    3.5280 C.3   300  FMN300      0.2165
     23  O3'       21.4350   -6.3590    3.3710 O.3   300  FMN300     -0.2175
     24  C4'       22.9960   -8.1650    3.5420 C.3   300  FMN300      0.2147
     25  O4'       23.1220   -9.5400    3.8350 O.3   300  FMN300     -0.2176
     26  C5'       23.7920   -7.3490    4.5640 C.3   300  FMN300      0.1892
     27  O5'       23.2740   -7.5280    5.8700 O.3   300  FMN300     -0.2674
     28  P         22.6840   -6.3000    6.7350 P.3   300  FMN300      0.5327
     29  O1P       21.9580   -6.8810    7.9240 O.3   300  FMN300     -0.1145
     30  O2P       21.7190   -5.4750    5.9160 O.2   300  FMN300     -0.2224
     31  O3P       23.8090   -5.4140    7.2080 O.3   300  FMN300     -0.1145
@<TRIPOS>BOND
     1    12    11    1
     2    11    10    2
     3    11    13    1
     4    10     9    1
     5    14    13    1
     6    13    15    1
     7     9     8    2
     8     9    16    1
     9     8     7    2
    10     6     5    2
    11    15    16    2
    12    16    17    1
    13     7     5    1
    14     7    18    1
    15     5     4    2
    16    17    18    1
    17    17    19    1
    18    18     1    2
    19     4     2    2
    20    21    20    1
    21    20    19    1
    22    20    22    1
    23     1     2    2
    24     2     3    2
    25    23    22    1
    26    22    24    1
    27    24    25    1
    28    24    26    1
    29    26    27    1
    30    27    28    1
    31    30    28    2
    32    28    31    1
    33    28    29    1
