@<TRIPOS>MOLECULE
3qdq_COA_A_1.pdb
 48 50 0 0 0
SMALL
GASTEIGER

@<TRIPOS>ATOM
      1  N1A      -22.4580    2.8400   20.5200 N.2   500  COA500      0.0021
      2  C2A      -22.6250    1.9670   19.5130 C.3   500  COA500      0.5254
      3  N3A      -23.8230    1.6920   18.9770 N.2   500  COA500     -0.0055
      4  C4A      -24.9550    2.2830   19.4350 C.2   500  COA500      0.3518
      5  C5A      -24.8410    3.2560   20.5310 C.2   500  COA500      0.2526
      6  C6A      -23.4910    3.5190   21.0700 C.2   500  COA500      0.4393
      7  N6A      -23.3150    4.4040   22.0820 N.pl3 500  COA500      0.2180
      8  N7A      -26.0790    3.7000   20.7940 N.2   500  COA500     -0.2095
      9  C8A      -26.9120    3.0590   19.9380 C.3   500  COA500      0.3377
     10  N9A      -26.2520    2.2160   19.1240 N.pl3 500  COA500     -0.1439
     11  C1B      -26.8500    1.3510   18.0590 C.3   500  COA500      0.3185
     12  C2B      -28.0560    0.5360   18.5350 C.3   500  COA500      0.2543
     13  O2B      -27.6580   -0.8200   18.7310 O.3   500  COA500     -0.2131
     14  C3B      -29.1060    0.6730   17.4360 C.3   500  COA500      0.1928
     15  O3B      -29.5100   -0.6030   16.8810 O.3   500  COA500     -0.2673
     16  P3B      -29.1680   -1.3060   15.4360 P.3   500  COA500      0.5327
     17  O7A      -29.6330   -2.7250   15.7070 O.3   500  COA500     -0.1145
     18  O8A      -27.6760   -1.1660   15.2440 O.3   500  COA500     -0.1145
     19  O9A      -29.9860   -0.6060   14.3630 O.2   500  COA500     -0.2224
     20  C4B      -28.5420    1.6940   16.4450 C.3   500  COA500      0.1795
     21  O4B      -27.2460    2.0870   16.8940 O.3   500  COA500     -0.3136
     22  C5B      -29.3750    2.9630   16.3760 C.3   500  COA500      0.1812
     23  O5B      -29.8020    3.4020   17.6740 O.3   500  COA500     -0.3112
     24  P1A      -31.3890    3.5020   17.9780 P.3   500  COA500      0.2189
     25  O1A      -31.4760    3.5710   19.4830 O.3   500  COA500     -0.4371
     26  O2A      -32.0460    2.3700   17.1920 O.2   500  COA500     -0.5170
     27  O3A      -31.8160    4.9010   17.2690 O.3   500  COA500     -0.2703
     28  P2A      -33.2940    5.5920   17.1220 P.3   500  COA500      0.2188
     29  O4A      -34.0710    5.5600   18.4330 O.3   500  COA500     -0.4371
     30  O5A      -33.9430    5.2060   15.8070 O.2   500  COA500     -0.5170
     31  O6A      -32.7410    7.0880   16.9580 O.3   500  COA500     -0.3138
     32  CBP      -31.0760    8.7790   17.5580 C.3   500  COA500      0.0645
     33  CCP      -31.7080    7.4460   17.8810 C.3   500  COA500      0.1519
     34  CDP      -30.5300    9.3530   18.8620 C.3   500  COA500      0.0056
     35  CEP      -29.9550    8.5390   16.5550 C.3   500  COA500      0.0056
     36  CAP      -32.1270    9.7000   16.9290 C.3   500  COA500      0.2312
     37  OAP      -33.1990    9.9230   17.8560 O.3   500  COA500     -0.2131
     38  C9P      -31.4660   10.9670   16.4410 C.2   500  COA500      0.2719
     39  O9P      -31.0540   10.9970   15.2890 O.2   500  COA500     -0.2706
     40  N8P      -31.3490   11.9880   17.2920 N.am  500  COA500     -0.2028
     41  C7P      -30.7220   13.2860   17.0560 C.3   500  COA500      0.1248
     42  C6P      -31.7200   14.2320   16.3930 C.3   500  COA500      0.1102
     43  C5P      -32.7850   14.7430   17.3500 C.2   500  COA500      0.2432
     44  O5P      -32.7340   14.5220   18.5600 O.2   500  COA500     -0.2733
     45  N4P      -33.7420   15.4370   16.7170 N.am  500  COA500     -0.2044
     46  C3P      -34.9750   16.1060   17.1400 C.3   500  COA500      0.1276
     47  C2P      -35.7510   16.2150   15.8210 C.3   500  COA500      0.0920
     48  S1P      -37.5290   15.7950   15.9560 S.3   500  COA500     -0.0802
@<TRIPOS>BOND
     1    19    16    2
     2    18    16    1
     3    39    38    2
     4    16    17    1
     5    16    15    1
     6    30    28    2
     7    47    48    1
     8    47    46    1
     9    22    20    1
    10    22    23    1
    11    42    41    1
    12    42    43    1
    13    38    36    1
    14    38    40   am
    15    20    21    1
    16    20    14    1
    17    35    32    1
    18    45    46    1
    19    45    43   am
    20    15    14    1
    21    21    11    1
    22    36    32    1
    23    36    37    1
    24    31    28    1
    25    31    33    1
    26    41    40    1
    27    28    27    1
    28    28    29    1
    29    26    24    2
    30    27    24    1
    31    43    44    2
    32    14    12    1
    33    32    33    1
    34    32    34    1
    35    23    24    1
    36    24    25    1
    37    11    12    1
    38    11    10    1
    39    12    13    1
    40     3     4    2
    41     3     2    1
    42    10     4    1
    43    10     9    1
    44     4     5    1
    45     2     1    1
    46     9     8    1
    47     1     6    2
    48     5     8    2
    49     5     6    1
    50     6     7    1
