@<TRIPOS>MOLECULE
3qdt_GAL_A_1.pdb
 11 11 0 0 0
SMALL
GASTEIGER

@<TRIPOS>ATOM
      1  C1        -3.8380   -4.6270  -16.1940 C.3   145  GAL145      0.1777
      2  C2        -4.9650   -3.6950  -16.6020 C.3   145  GAL145      0.2141
      3  C3        -4.3720   -2.3740  -17.0750 C.3   145  GAL145      0.2173
      4  C4        -3.4280   -1.8050  -16.0260 C.3   145  GAL145      0.2142
      5  C5        -2.4260   -2.8770  -15.5720 C.3   145  GAL145      0.1810
      6  C6        -1.5390   -2.3890  -14.4330 C.3   145  GAL145      0.2141
      7  O2        -5.6960   -4.2680  -17.6650 O.3   145  GAL145     -0.2176
      8  O3        -5.3900   -1.4300  -17.4000 O.3   145  GAL145     -0.2175
      9  O4        -4.1910   -1.3580  -14.9090 O.3   145  GAL145     -0.2176
     10  O5        -3.1070   -4.0520  -15.1330 O.3   145  GAL145     -0.3481
     11  O6        -0.4010   -3.2350  -14.3280 O.3   145  GAL145     -0.2176
@<TRIPOS>BOND
     1     7     2    1
     2     8     3    1
     3     3     2    1
     4     3     4    1
     5     2     1    1
     6     1    10    1
     7     4     5    1
     8     4     9    1
     9     5    10    1
    10     5     6    1
    11     6    11    1
