@<TRIPOS>MOLECULE
3qdu_CBS_A_1.pdb
 15 15 0 0 0
SMALL
GASTEIGER

@<TRIPOS>ATOM
      1  C1A      -15.3570  -84.8380   58.6590 C.3   144  CBS144      0.2917
      2  C2A      -15.9430  -85.0260   57.2560 C.3   144  CBS144      0.1871
      3  C3A      -16.3420  -86.4900   57.0170 C.3   144  CBS144      0.2095
      4  C4A      -15.2380  -87.4480   57.4790 C.3   144  CBS144      0.2136
      5  C5A      -14.7810  -87.0810   58.8940 C.3   144  CBS144      0.1835
      6  C6A      -13.6790  -88.0050   59.4020 C.3   144  CBS144      0.2142
      7  C7A      -17.2510  -83.2820   56.1290 C.2   144  CBS144      0.2421
      8  C8A      -18.5500  -82.4670   56.1390 C.3   144  CBS144      0.0964
      9  N2A      -17.1290  -84.1640   57.1210 N.am  144  CBS144     -0.1991
     10  O1A      -14.8810  -83.4930   58.8070 O.3   144  CBS144     -0.1879
     11  O3A      -16.6250  -86.7030   55.6300 O.3   144  CBS144     -0.2183
     12  O4A      -15.7230  -88.7980   57.4490 O.3   144  CBS144     -0.2176
     13  O5A      -14.2690  -85.7390   58.8540 O.3   144  CBS144     -0.3242
     14  O6A      -12.5250  -87.8620   58.5780 O.3   144  CBS144     -0.2176
     15  O7A      -16.4020  -83.1050   55.2560 O.2   144  CBS144     -0.2733
@<TRIPOS>BOND
     1    15     7    2
     2    11     3    1
     3     7     8    1
     4     7     9   am
     5     3     2    1
     6     3     4    1
     7     9     2    1
     8     2     1    1
     9    12     4    1
    10     4     5    1
    11    14     6    1
    12     1    10    1
    13     1    13    1
    14    13     5    1
    15     5     6    1
