@<TRIPOS>MOLECULE
3qdv_A2G_A_1.pdb
 15 15 0 0 0
SMALL
GASTEIGER

@<TRIPOS>ATOM
      1  O         -2.8860   -9.3370  -14.2900 O.3   144  A2G144     -0.3242
      2  C1        -3.1780   -9.1860  -15.6880 C.3   144  A2G144      0.2917
      3  O1        -1.9630   -8.9840  -16.4400 O.3   144  A2G144     -0.1879
      4  C2        -4.0850   -7.9830  -15.9150 C.3   144  A2G144      0.1871
      5  N2        -4.3620   -7.8070  -17.3520 N.am  144  A2G144     -0.1991
      6  C3        -3.4830   -6.7150  -15.2790 C.3   144  A2G144      0.2095
      7  O3        -4.4160   -5.6460  -15.4140 O.3   144  A2G144     -0.2183
      8  C4        -3.1660   -6.9590  -13.8040 C.3   144  A2G144      0.2136
      9  O4        -4.3760   -7.1990  -13.0690 O.3   144  A2G144     -0.2176
     10  C5        -2.2670   -8.1870  -13.6940 C.3   144  A2G144      0.1835
     11  C6        -2.0380   -8.5010  -12.2110 C.3   144  A2G144      0.2142
     12  O6        -1.0720   -9.5460  -12.0660 O.3   144  A2G144     -0.2176
     13  C7        -5.5170   -8.1750  -17.9180 C.2   144  A2G144      0.2421
     14  O7        -6.4580   -8.6960  -17.3100 O.2   144  A2G144     -0.2733
     15  C8        -5.6310   -7.8930  -19.4130 C.3   144  A2G144      0.0964
@<TRIPOS>BOND
     1    15    13    1
     2    13     5   am
     3    13    14    2
     4     5     4    1
     5     3     2    1
     6     4     2    1
     7     4     6    1
     8     2     1    1
     9     7     6    1
    10     6     8    1
    11     1    10    1
    12     8    10    1
    13     8     9    1
    14    10    11    1
    15    11    12    1
