@<TRIPOS>MOLECULE
3qdv_NDG_A_1.pdb
 15 15 0 0 0
SMALL
GASTEIGER

@<TRIPOS>ATOM
      1  C1        -7.6310  -17.9500    3.1880 C.3   145  NDG145      0.2917
      2  C2        -9.0900  -18.3850    3.0620 C.3   145  NDG145      0.1871
      3  C3        -9.3760  -18.9520    1.6680 C.3   145  NDG145      0.2095
      4  C4        -8.8830  -17.9820    0.5980 C.3   145  NDG145      0.2136
      5  C5        -7.4020  -17.6950    0.8400 C.3   145  NDG145      0.1835
      6  C6        -6.8130  -16.7500   -0.2140 C.3   145  NDG145      0.2142
      7  C7       -10.4750  -19.3530    4.8460 C.2   145  NDG145      0.2421
      8  C8       -10.6340  -20.4570    5.8560 C.3   145  NDG145      0.0964
      9  O         -7.2630  -17.1010    2.1170 O.3   145  NDG145     -0.3242
     10  O3       -10.7570  -19.2210    1.5280 O.3   145  NDG145     -0.2183
     11  O4        -9.0680  -18.5820   -0.6680 O.3   145  NDG145     -0.2176
     12  O6        -7.4160  -15.4600   -0.1940 O.3   145  NDG145     -0.2176
     13  O7       -11.3330  -18.4650    4.7640 O.2   145  NDG145     -0.2733
     14  N2        -9.3830  -19.3810    4.0830 N.am  145  NDG145     -0.1991
     15  O1L       -6.7960  -19.0990    3.1600 O.3   145  NDG145     -0.1879
@<TRIPOS>BOND
     1    11     4    1
     2     6    12    1
     3     6     5    1
     4     4     5    1
     5     4     3    1
     6     5     9    1
     7    10     3    1
     8     3     2    1
     9     9     1    1
    10     2     1    1
    11     2    14    1
    12    15     1    1
    13    14     7   am
    14    13     7    2
    15     7     8    1
