@<TRIPOS>MOLECULE
3qdw_A2G_A_1.pdb
 15 15 0 0 0
SMALL
GASTEIGER

@<TRIPOS>ATOM
      1  O         46.6740   33.0420    5.3230 O.3   144  A2G144     -0.3242
      2  C1        45.7550   31.9920    5.7030 C.3   144  A2G144      0.2917
      3  O1        46.4740   30.7550    5.7580 O.3   144  A2G144     -0.1879
      4  C2        44.6170   31.8900    4.6770 C.3   144  A2G144      0.1871
      5  N2        43.6990   30.7940    5.0260 N.am  144  A2G144     -0.1991
      6  C3        45.1650   31.6680    3.2660 C.3   144  A2G144      0.2095
      7  O3        44.1060   31.7560    2.3050 O.3   144  A2G144     -0.2183
      8  C4        46.2380   32.7070    2.9500 C.3   144  A2G144      0.2136
      9  O4        45.6340   34.0000    2.8440 O.3   144  A2G144     -0.2176
     10  C5        47.2890   32.7290    4.0570 C.3   144  A2G144      0.1835
     11  C6        48.3690   33.7600    3.7190 C.3   144  A2G144      0.2142
     12  O6        49.3610   33.7620    4.7520 O.3   144  A2G144     -0.2176
     13  C7        42.5180   31.0210    5.5910 C.2   144  A2G144      0.2421
     14  O7        42.1100   32.1410    5.8880 O.2   144  A2G144     -0.2733
     15  C8        41.6690   29.7720    5.8600 C.3   144  A2G144      0.0964
@<TRIPOS>BOND
     1     7     6    1
     2     9     8    1
     3     8     6    1
     4     8    10    1
     5     6     4    1
     6    11    10    1
     7    11    12    1
     8    10     1    1
     9     4     5    1
    10     4     2    1
    11     5    13   am
    12     1     2    1
    13    13    15    1
    14    13    14    2
    15     2     3    1
