@<TRIPOS>MOLECULE
3qdw_NDG_A_1.pdb
 15 15 0 0 0
SMALL
GASTEIGER

@<TRIPOS>ATOM
      1  C1        52.4930   52.4630    6.8830 C.3   145  NDG145      0.2917
      2  C2        51.2200   53.1430    7.3810 C.3   145  NDG145      0.1871
      3  C3        50.4940   52.2730    8.4040 C.3   145  NDG145      0.2095
      4  C4        50.3050   50.8630    7.8580 C.3   145  NDG145      0.2136
      5  C5        51.6570   50.3140    7.3880 C.3   145  NDG145      0.1835
      6  C6        51.5410   48.8960    6.8280 C.3   145  NDG145      0.2142
      7  C7        51.0090   55.5490    7.5670 C.2   145  NDG145      0.2421
      8  C8        51.3850   56.8070    8.2940 C.3   145  NDG145      0.0964
      9  O         52.1990   51.1700    6.3980 O.3   145  NDG145     -0.3242
     10  O3        49.2470   52.8550    8.7350 O.3   145  NDG145     -0.2183
     11  O4        49.7510   50.0470    8.8710 O.3   145  NDG145     -0.2176
     12  O6        50.7550   48.8800    5.6500 O.3   145  NDG145     -0.2176
     13  O7        50.2220   55.5910    6.6260 O.2   145  NDG145     -0.2733
     14  N2        51.5480   54.4140    8.0000 N.am  145  NDG145     -0.1991
     15  O1L       53.3840   52.3580    7.9700 O.3   145  NDG145     -0.1879
@<TRIPOS>BOND
     1    12     6    1
     2     9     1    1
     3     9     5    1
     4    13     7    2
     5     6     5    1
     6     1     2    1
     7     1    15    1
     8     2    14    1
     9     2     3    1
    10     5     4    1
    11     7    14   am
    12     7     8    1
    13     4     3    1
    14     4    11    1
    15     3    10    1
