@<TRIPOS>MOLECULE
3qdx_CBS_A_1.pdb
 15 15 0 0 0
SMALL
GASTEIGER

@<TRIPOS>ATOM
      1  C1A       -7.5950  -18.2150    3.1520 C.3   144  CBS144      0.2917
      2  C2A       -9.0740  -18.5610    3.0200 C.3   144  CBS144      0.1871
      3  C3A       -9.3050  -19.0760    1.6020 C.3   144  CBS144      0.2095
      4  C4A       -8.7930  -18.0730    0.5730 C.3   144  CBS144      0.2136
      5  C5A       -7.3080  -17.7760    0.8570 C.3   144  CBS144      0.1835
      6  C6A       -6.6600  -16.8360   -0.1720 C.3   144  CBS144      0.2142
      7  C7A      -10.5330  -19.4760    4.7980 C.2   144  CBS144      0.2421
      8  C8A      -10.7400  -20.6250    5.8060 C.3   144  CBS144      0.0964
      9  N2A       -9.4470  -19.5920    4.0260 N.am  144  CBS144     -0.1991
     10  O1A       -7.3870  -17.6390    4.4060 O.3   144  CBS144     -0.1879
     11  O3A      -10.6840  -19.3060    1.4140 O.3   144  CBS144     -0.2183
     12  O4A       -8.9180  -18.6620   -0.7200 O.3   144  CBS144     -0.2176
     13  O5A       -7.2180  -17.2500    2.1770 O.3   144  CBS144     -0.3242
     14  O6A       -7.3310  -15.5740   -0.1950 O.3   144  CBS144     -0.2176
     15  O7A      -11.3320  -18.5280    4.7450 O.2   144  CBS144     -0.2733
@<TRIPOS>BOND
     1    12     4    1
     2    14     6    1
     3     6     5    1
     4     4     5    1
     5     4     3    1
     6     5    13    1
     7    11     3    1
     8     3     2    1
     9    13     1    1
    10     2     1    1
    11     2     9    1
    12     1    10    1
    13     9     7   am
    14    15     7    2
    15     7     8    1
