@<TRIPOS>MOLECULE
3qdx_GAL_A_1.pdb
 11 11 0 0 0
SMALL
GASTEIGER

@<TRIPOS>ATOM
      1  C1        -3.9520   -4.5030  -16.2770 C.3   147  GAL147      0.1777
      2  C2        -5.0760   -3.5520  -16.6820 C.3   147  GAL147      0.2141
      3  C3        -4.4620   -2.2190  -17.1350 C.3   147  GAL147      0.2173
      4  C4        -3.5480   -1.6750  -16.0460 C.3   147  GAL147      0.2142
      5  C5        -2.5450   -2.7440  -15.6200 C.3   147  GAL147      0.1810
      6  C6        -1.7590   -2.2210  -14.4240 C.3   147  GAL147      0.2141
      7  O2        -5.8160   -4.1400  -17.7330 O.3   147  GAL147     -0.2176
      8  O3        -5.4370   -1.2450  -17.4820 O.3   147  GAL147     -0.2175
      9  O4        -4.2470   -1.2180  -14.8900 O.3   147  GAL147     -0.2176
     10  O5        -3.1710   -3.9580  -15.2360 O.3   147  GAL147     -0.3481
     11  O6        -0.5510   -2.9400  -14.3620 O.3   147  GAL147     -0.2176
@<TRIPOS>BOND
     1     7     2    1
     2     8     3    1
     3     3     2    1
     4     3     4    1
     5     2     1    1
     6     1    10    1
     7     4     5    1
     8     4     9    1
     9     5    10    1
    10     5     6    1
    11     6    11    1
