@<TRIPOS>MOLECULE
3qdy_CBS_A_1.pdb
 15 15 0 0 0
SMALL
GASTEIGER

@<TRIPOS>ATOM
      1  C1A       52.5440   52.1960    7.0620 C.3   144  CBS144      0.2917
      2  C2A       51.2670   52.8990    7.5400 C.3   144  CBS144      0.1871
      3  C3A       50.5100   52.0300    8.5440 C.3   144  CBS144      0.2095
      4  C4A       50.3170   50.6270    7.9720 C.3   144  CBS144      0.2136
      5  C5A       51.6780   50.0300    7.5820 C.3   144  CBS144      0.1835
      6  C6A       51.5480   48.5950    7.0410 C.3   144  CBS144      0.2142
      7  C7A       51.0950   55.3440    7.7320 C.2   144  CBS144      0.2421
      8  C8A       51.5720   56.5930    8.4780 C.3   144  CBS144      0.0964
      9  N2A       51.6200   54.1920    8.1510 N.am  144  CBS144     -0.1991
     10  O1A       53.0690   52.9700    5.9840 O.3   144  CBS144     -0.1879
     11  O3A       49.2440   52.6240    8.8420 O.3   144  CBS144     -0.2183
     12  O4A       49.6660   49.7940    8.9400 O.3   144  CBS144     -0.2176
     13  O5A       52.2890   50.8630    6.5760 O.3   144  CBS144     -0.3242
     14  O6A       50.7690   48.5900    5.8360 O.3   144  CBS144     -0.2176
     15  O7A       50.2740   55.4350    6.8220 O.2   144  CBS144     -0.2733
@<TRIPOS>BOND
     1    14     6    1
     2    10     1    1
     3    13     1    1
     4    13     5    1
     5    15     7    2
     6     6     5    1
     7     1     2    1
     8     2     9    1
     9     2     3    1
    10     5     4    1
    11     7     9   am
    12     7     8    1
    13     4     3    1
    14     4    12    1
    15     3    11    1
