@<TRIPOS>MOLECULE
3qdy_GAL_A_1.pdb
 11 11 0 0 0
SMALL
GASTEIGER

@<TRIPOS>ATOM
      1  C1        44.3060   30.3670    1.2960 C.3   147  GAL147      0.1777
      2  C2        42.9590   30.2360    0.5910 C.3   147  GAL147      0.2141
      3  C3        43.0190   29.1260   -0.4510 C.3   147  GAL147      0.2173
      4  C4        44.1980   29.3730   -1.3810 C.3   147  GAL147      0.2142
      5  C5        45.4820   29.5340   -0.5760 C.3   147  GAL147      0.1810
      6  C6        46.6600   29.8110   -1.5080 C.3   147  GAL147      0.2141
      7  O2        41.9380   29.9830    1.5350 O.3   147  GAL147     -0.2176
      8  O3        41.8300   29.0930   -1.2050 O.3   147  GAL147     -0.2175
      9  O4        43.9720   30.5460   -2.1310 O.3   147  GAL147     -0.2176
     10  O5        45.3330   30.5930    0.3480 O.3   147  GAL147     -0.3481
     11  O6        47.8730   29.7040   -0.7960 O.3   147  GAL147     -0.2176
@<TRIPOS>BOND
     1     9     4    1
     2     6    11    1
     3     6     5    1
     4     4     5    1
     5     4     3    1
     6     8     3    1
     7     5    10    1
     8     3     2    1
     9    10     1    1
    10     2     1    1
    11     2     7    1
