@<TRIPOS>MOLECULE
3qdz_III_F_1.pdb
 31 32 0 0 0
SMALL
GASTEIGER

@<TRIPOS>ATOM
      1  N         -0.6420   -9.4600   38.3810 N.3    44  PRO44      -0.2102
      2  CA        -2.0400   -9.9270   38.5870 C.3    44  PRO44       0.1504
      3  C         -2.5720  -10.5940   37.3170 C.2    44  PRO44       0.2576
      4  O         -2.2350  -10.1830   36.1990 O.2    44  PRO44      -0.2718
      5  CB        -2.8700   -8.7050   38.9720 C.3    44  PRO44       0.0282
      6  CG        -1.7990   -7.8240   39.6270 C.3    44  PRO44       0.0208
      7  CD        -0.5130   -8.0510   38.7900 C.3    44  PRO44       0.0893
      8  N         -3.3940  -11.6280   37.4970 N.am   45  ALA45      -0.1967
      9  CA        -3.9510  -12.3720   36.3680 C.3    45  ALA45       0.1713
     10  C         -5.4770  -12.3450   36.2810 C.2    45  ALA45       0.2458
     11  O         -6.1660  -13.0600   37.0150 O.2    45  ALA45      -0.2730
     12  CB        -3.4630  -13.8290   36.4110 C.3    45  ALA45       0.0333
     13  N         -6.0250  -11.5070   35.3830 N.am   46  PRO46      -0.2716
     14  CA        -7.4790  -11.4130   35.2100 C.3    46  PRO46       0.1536
     15  C         -7.9760  -12.6620   34.4670 C.2    46  PRO46       0.2599
     16  O         -7.1910  -13.3520   33.8090 O.2    46  PRO46      -0.2715
     17  CB        -7.6410  -10.1230   34.4060 C.3    46  PRO46       0.0310
     18  CG        -6.3970  -10.0760   33.5880 C.3    46  PRO46       0.0237
     19  CD        -5.3330  -10.4810   34.5810 C.3    46  PRO46       0.0939
     20  N         -9.2690  -12.9560   34.5670 N.am   47  ARG47      -0.1942
     21  CA        -9.8150  -14.1460   33.9220 C.3    47  ARG47       0.1979
     22  C        -10.6190  -13.8710   32.6450 C.2    47  ARG47       0.3842
     23  O        -11.1100  -14.8410   32.0240 O.co2  47  ARG47      -0.2437
     24  CB       -10.6400  -14.9380   34.9580 C.3    47  ARG47       0.0370
     25  CG        -9.7600  -15.5400   36.0770 C.3    47  ARG47       0.0493
     26  CD       -10.5280  -16.1500   37.2570 C.3    47  ARG47       0.2205
     27  NE        -9.6210  -16.8860   38.1460 N.pl3  47  ARG47      -0.0865
     28  CZ        -9.9300  -17.3440   39.3600 C.cat  47  ARG47       0.5346
     29  NH1      -11.1400  -17.1530   39.8740 N.pl3  47  ARG47       0.1354
     30  NH2       -9.0170  -17.9960   40.0650 N.pl3  47  ARG47       0.1354
     31  OXT      -10.7490  -12.6860   32.2730 O.co2  47  ARG47      -0.2437
@<TRIPOS>BOND
     1    23    22   ar
     2    31    22   ar
     3    22    21    1
     4    18    17    1
     5    18    19    1
     6    16    15    2
     7    21    20    1
     8    21    24    1
     9    17    14    1
    10    15    20   am
    11    15    14    1
    12    19    13    1
    13    24    25    1
    14    14    13    1
    15    13    10   am
    16    25    26    1
    17     4     3    2
    18    10     9    1
    19    10    11    2
    20     9    12    1
    21     9     8    1
    22    26    27    1
    23     3     8   am
    24     3     2    1
    25    27    28    2
    26     1     2    1
    27     1     7    1
    28     2     5    1
    29     7     6    1
    30     5     6    1
    31    28    29    1
    32    28    30    1
