@<TRIPOS>MOLECULE
3qe0_GDP_A_1.pdb
 28 30 0 0 0
SMALL
GASTEIGER

@<TRIPOS>ATOM
      1  PB        46.3550  -15.4810  -16.9290 P.3   555  GDP555      0.5373
      2  O1B       46.6830  -16.8020  -16.2850 O.3   555  GDP555     -0.1143
      3  O2B       45.7050  -15.7160  -18.2720 O.2   555  GDP555     -0.2221
      4  O3B       45.4100  -14.7170  -16.0380 O.3   555  GDP555     -0.1143
      5  O3A       47.7120  -14.6520  -17.1550 O.3   555  GDP555     -0.2261
      6  PA        48.7800  -14.3890  -15.9820 P.3   555  GDP555      0.2231
      7  O1A       49.8320  -15.4670  -15.9650 O.2   555  GDP555     -0.5169
      8  O2A       48.1420  -14.2460  -14.6290 O.3   555  GDP555     -0.4370
      9  O5'       49.4410  -13.0130  -16.4630 O.3   555  GDP555     -0.3111
     10  C5'       49.0790  -11.8050  -15.8160 C.3   555  GDP555      0.1813
     11  C4'       50.2270  -10.8250  -15.9360 C.3   555  GDP555      0.1799
     12  O4'       49.9030   -9.7320  -15.0900 O.3   555  GDP555     -0.3326
     13  C3'       51.5070  -11.4390  -15.4120 C.3   555  GDP555      0.2158
     14  O3'       52.6070  -11.0100  -16.2130 O.3   555  GDP555     -0.2175
     15  C2'       51.6650  -10.9050  -14.0070 C.3   555  GDP555      0.2310
     16  O2'       53.0190  -10.5140  -13.7840 O.3   555  GDP555     -0.2158
     17  C1'       50.7560   -9.6930  -13.9500 C.3   555  GDP555      0.2293
     18  N9        49.9040   -9.7130  -12.7410 N.pl3 555  GDP555     -0.2354
     19  C8        49.0400  -10.6750  -12.3720 C.3   555  GDP555      0.2246
     20  N7        48.4150  -10.3450  -11.2130 N.2   555  GDP555     -0.2322
     21  C5        48.8750   -9.1400  -10.8350 C.2   555  GDP555      0.2182
     22  C6        48.6430   -8.2000   -9.7140 C.1   555  GDP555      0.2372
     23  O6        47.8310   -8.4680   -8.8050 O.2   555  GDP555     -0.2069
     24  N1        49.3330   -7.0520   -9.7080 N.2   555  GDP555     -0.2485
     25  C2        50.2160   -6.7350  -10.6750 C.1   555  GDP555      0.2531
     26  N2        50.8820   -5.5600  -10.6090 N.pl3 555  GDP555     -0.0226
     27  N3        50.4780   -7.5440  -11.7250 N.2   555  GDP555     -0.3074
     28  C4        49.8500   -8.7300  -11.8520 C.2   555  GDP555      0.2300
@<TRIPOS>BOND
     1     3     1    2
     2     5     1    1
     3     5     6    1
     4     1     2    1
     5     1     4    1
     6     9     6    1
     7     9    10    1
     8    14    13    1
     9     6     7    2
    10     6     8    1
    11    11    10    1
    12    11    13    1
    13    11    12    1
    14    13    15    1
    15    12    17    1
    16    15    17    1
    17    15    16    1
    18    17    18    1
    19    18    19    1
    20    18    28    1
    21    19    20    1
    22    28    27    2
    23    28    21    1
    24    27    25    2
    25    20    21    2
    26    21    22    1
    27    25    26    1
    28    25    24    2
    29    22    24    2
    30    22    23    2
