@<TRIPOS>MOLECULE
3qe2_FMN_A_1.pdb
 31 33 0 0 0
SMALL
GASTEIGER

@<TRIPOS>ATOM
      1  N1         9.9660   48.7300    5.9510 N.2   751  FMN751     -0.2890
      2  C2         9.1520   47.7670    6.4540 C.1   751  FMN751      0.3669
      3  O2         9.0580   47.6190    7.6590 O.2   751  FMN751     -0.1744
      4  N3         8.4510   46.9830    5.5820 N.2   751  FMN751     -0.2300
      5  C4         8.4940   47.0920    4.1840 C.1   751  FMN751      0.2513
      6  O4         7.7790   46.2840    3.5870 O.2   751  FMN751     -0.2057
      7  C4A        9.3500   48.1190    3.6210 C.2   751  FMN751      0.2700
      8  N5         9.4050   48.2610    2.2200 N.2   751  FMN751     -0.3878
      9  C5A       10.2330   49.2640    1.7600 C.2   751  FMN751      0.1320
     10  C6        10.2760   49.4140    0.3200 C.2   751  FMN751      0.0250
     11  C7        11.0680   50.3940   -0.3000 C.2   751  FMN751     -0.0238
     12  C7M       11.0140   50.4380   -1.8410 C.3   751  FMN751      0.0308
     13  C8        11.8960   51.3150    0.5200 C.2   751  FMN751     -0.0280
     14  C8M       12.8070   52.4280   -0.0620 C.3   751  FMN751      0.0304
     15  C9        11.8720   51.1880    1.9040 C.2   751  FMN751     -0.0041
     16  C9A       11.0490   50.1710    2.5760 C.3   751  FMN751      0.1497
     17  N10       10.9540   49.9680    4.0460 N.pl3 751  FMN751     -0.2691
     18  C10       10.0680   48.9080    4.5930 C.2   751  FMN751      0.2416
     19  C1'       11.7180   50.8130    4.9230 C.3   751  FMN751      0.1294
     20  C2'       13.2110   50.3840    5.0990 C.3   751  FMN751      0.2044
     21  O2'       13.2770   49.0070    5.5540 O.3   751  FMN751     -0.2185
     22  C3'       13.9240   51.3640    6.0210 C.3   751  FMN751      0.2164
     23  O3'       13.8980   52.6450    5.3280 O.3   751  FMN751     -0.2175
     24  C4'       15.4000   50.9040    6.2490 C.3   751  FMN751      0.2147
     25  O4'       15.9520   51.9150    7.1650 O.3   751  FMN751     -0.2176
     26  C5'       16.2500   50.9040    5.0090 C.3   751  FMN751      0.1892
     27  O5'       17.5960   50.3930    5.2930 O.3   751  FMN751     -0.2674
     28  P         18.7920   50.4730    4.2960 P.3   751  FMN751      0.5327
     29  O1P       19.2390   51.9040    4.1440 O.3   751  FMN751     -0.1145
     30  O2P       18.4870   49.7570    3.0350 O.2   751  FMN751     -0.2224
     31  O3P       19.8580   49.7630    5.0520 O.3   751  FMN751     -0.1145
@<TRIPOS>BOND
     1    12    11    1
     2    11    10    2
     3    11    13    1
     4    14    13    1
     5    10     9    1
     6    13    15    2
     7     9     8    2
     8     9    16    1
     9    15    16    1
    10     8     7    2
    11    16    17    1
    12    30    28    2
    13     6     5    2
    14     7     5    1
    15     7    18    1
    16    17    18    1
    17    17    19    1
    18    29    28    1
    19     5     4    2
    20    28    31    1
    21    28    27    1
    22    18     1    2
    23    19    20    1
    24    26    27    1
    25    26    24    1
    26    20    21    1
    27    20    22    1
    28    23    22    1
    29     4     2    2
    30     1     2    2
    31    22    24    1
    32    24    25    1
    33     2     3    2
