@<TRIPOS>MOLECULE
3qe2_NAP_A_1.pdb
 31 33 0 0 0
SMALL
GASTEIGER

@<TRIPOS>ATOM
      1  PA         0.5380   66.5290   -2.3660 P.3   753  NAP753      0.2231
      2  O1A        0.2270   67.7970   -3.0830 O.2   753  NAP753     -0.5169
      3  O2A        1.1490   66.7070   -1.0240 O.3   753  NAP753     -0.4370
      4  O5B       -0.7390   65.7990   -2.2000 O.3   753  NAP753     -0.3111
      5  C5B       -1.5360   65.2370   -3.2620 C.3   753  NAP753      0.1813
      6  C4B       -3.0170   65.3060   -2.9090 C.3   753  NAP753      0.1820
      7  O4B       -3.2250   64.4000   -1.7930 O.3   753  NAP753     -0.3136
      8  C3B       -3.4640   66.7010   -2.4200 C.3   753  NAP753      0.2157
      9  O3B       -4.6910   67.1410   -3.0350 O.3   753  NAP753     -0.2175
     10  C2B       -3.5840   66.5150   -0.9260 C.3   753  NAP753      0.2314
     11  O2B       -4.4660   67.4300   -0.2600 O.3   753  NAP753     -0.2630
     12  C1B       -4.0400   65.0650   -0.8610 C.3   753  NAP753      0.3158
     13  N9A       -3.9420   64.4860    0.3970 N.pl3 753  NAP753     -0.1439
     14  C8A       -3.2980   64.8160    1.6130 C.3   753  NAP753      0.3377
     15  N7A       -3.4040   64.0270    2.7330 N.2   753  NAP753     -0.2095
     16  C5A       -4.2230   63.0570    2.1730 C.2   753  NAP753      0.2526
     17  C6A       -4.8030   61.8500    2.7440 C.2   753  NAP753      0.4393
     18  N6A       -4.6000   61.4990    4.0000 N.pl3 753  NAP753      0.2180
     19  N1A       -5.5810   61.0420    1.9980 N.2   753  NAP753      0.0021
     20  C2A       -5.8690   61.3010    0.6790 C.3   753  NAP753      0.5254
     21  N3A       -5.4170   62.3750    0.0070 N.2   753  NAP753     -0.0055
     22  C4A       -4.5470   63.3210    0.7660 C.2   753  NAP753      0.3518
     23  O3         1.2730   65.5620   -3.2530 O.3   753  NAP753     -0.2261
     24  PN         2.7550   65.7350   -3.6970 P.3   753  NAP753      0.5373
     25  O1N        3.4490   65.6460   -2.3710 O.3   753  NAP753     -0.1143
     26  O2N        3.0590   67.0900   -4.2330 O.3   753  NAP753     -0.1143
     27  O5D        3.1160   64.6360   -4.6490 O.2   753  NAP753     -0.2221
     28  P2B       -4.0110   68.5090    0.8670 P.3   753  NAP753      0.5328
     29  O1X       -2.4610   68.8860    0.6510 O.3   753  NAP753     -0.1145
     30  O2X       -4.2360   67.8810    2.3050 O.3   753  NAP753     -0.1145
     31  O3X       -4.9070   69.7920    0.6260 O.2   753  NAP753     -0.2224
@<TRIPOS>BOND
     1    27    24    2
     2    26    24    1
     3    24    23    1
     4    24    25    1
     5     5     6    1
     6     5     4    1
     7    23     1    1
     8     2     1    2
     9     9     8    1
    10     6     8    1
    11     6     7    1
    12     8    10    1
    13     1     4    1
    14     1     3    1
    15     7    12    1
    16    10    12    1
    17    10    11    1
    18    12    13    1
    19    11    28    1
    20    21    20    1
    21    21    22    2
    22    13    22    1
    23    13    14    1
    24    31    28    2
    25    29    28    1
    26    20    19    1
    27    22    16    1
    28    28    30    1
    29    14    15    1
    30    19    17    2
    31    16    15    2
    32    16    17    1
    33    17    18    1
