@<TRIPOS>MOLECULE
3qe4_4CF_A_1.pdb
 14 14 0 0 0
SMALL
GASTEIGER

@<TRIPOS>ATOM
      1  C         11.5440    0.5410   28.7470 C.2   313  4CF313      0.3822
      2  N         13.7900    1.1930   29.6290 N.3   313  4CF313     -0.1205
      3  O         11.1870    1.7210   29.1470 O.co2 313  4CF313     -0.2440
      4  C1        17.1940   -5.1730   28.4780 C.1   313  4CF313      0.1004
      5  N1        17.9910   -5.9810   28.2260 N.1   313  4CF313     -0.1908
      6  CA        12.9600    0.0830   29.0790 C.3   313  4CF313      0.1986
      7  CB        13.0030   -1.2070   29.8830 C.3   313  4CF313      0.0569
      8  CG        14.0780   -2.1880   29.5040 C.ar  313  4CF313     -0.0201
      9  CZ        16.1140   -4.1430   28.7550 C.ar  313  4CF313      0.0684
     10  CD1       14.4550   -2.4240   28.0460 C.ar  313  4CF313     -0.0035
     11  CD2       14.6730   -2.9210   30.5070 C.ar  313  4CF313     -0.0035
     12  CE1       15.5100   -3.4100   27.7360 C.ar  313  4CF313      0.0100
     13  CE2       15.6630   -3.9420   30.1840 C.ar  313  4CF313      0.0100
     14  OXT       10.7630   -0.2080   28.0780 O.co2 313  4CF313     -0.2440
@<TRIPOS>BOND
     1    12    10   ar
     2    12     9   ar
     3    10     8   ar
     4    14     1   ar
     5     5     4    3
     6     4     9    1
     7     1     6    1
     8     1     3   ar
     9     9    13   ar
    10     6     2    1
    11     6     7    1
    12     8     7    1
    13     8    11   ar
    14    13    11   ar
