@<TRIPOS>MOLECULE
3qe5_GLC_A_1.pdb
 12 12 0 0 0
SMALL
GASTEIGER

@<TRIPOS>ATOM
      1  C1        70.9250   53.1830  127.0460 C.3   1495  GLC1495     0.3024
      2  C2        70.6680   52.5270  125.6790 C.3   1495  GLC1495     0.2434
      3  C3        71.7010   51.4090  125.4330 C.3   1495  GLC1495     0.2199
      4  C4        73.1250   51.9650  125.6050 C.3   1495  GLC1495     0.2144
      5  C5        73.2750   52.6740  126.9630 C.3   1495  GLC1495     0.1836
      6  C6        74.6330   53.3500  127.0900 C.3   1495  GLC1495     0.2142
      7  O1        70.8010   52.2320  128.0470 O.3   1495  GLC1495    -0.1869
      8  O2        69.3570   51.9890  125.6580 O.3   1495  GLC1495    -0.2148
      9  O3        71.5540   50.8810  124.1200 O.3   1495  GLC1495    -0.2174
     10  O4        74.0780   50.9160  125.5110 O.3   1495  GLC1495    -0.2176
     11  O5        72.2640   53.7070  127.1030 O.3   1495  GLC1495    -0.3236
     12  O6        74.9100   54.1670  125.9590 O.3   1495  GLC1495    -0.2176
@<TRIPOS>BOND
     1     9     3    1
     2     3     4    1
     3     3     2    1
     4    10     4    1
     5     4     5    1
     6     8     2    1
     7     2     1    1
     8    12     6    1
     9     5     6    1
    10     5    11    1
    11     1    11    1
    12     1     7    1
