@<TRIPOS>MOLECULE
3qe8_REI_A_1.pdb
 13 13 0 0 0
SMALL
GASTEIGER

@<TRIPOS>ATOM
      1 RE         -8.4380    9.8100  -29.4250 Re    150  REI150      0.0000
      2  C1        -6.9850   10.0930  -30.6830 C.2   150  REI150      0.0000
      3  N1       -10.1770    9.6410  -28.0590 N.ar  150  REI150      0.0000
      4  O1        -6.4950   10.5880  -31.6010 O.2   150  REI150      0.0000
      5  C2        -9.6190    9.5850  -30.9290 C.3   150  REI150      0.0000
      6  N2       -11.7610    8.3680  -27.2370 N.ar  150  REI150      0.0000
      7  O2       -10.5810    9.6000  -31.5710 O.3   150  REI150      0.0000
      8  C3        -8.7530   11.7320  -29.5050 C.3   150  REI150      0.0000
      9  O3        -9.1840   12.7760  -29.2080 O.3   150  REI150      0.0000
     10  C5       -10.4570    8.5220  -27.4530 C.ar  150  REI150      0.0000
     11  C6       -11.3930   10.2720  -28.2390 C.ar  150  REI150      0.0000
     12  C7       -12.3740    9.4790  -27.7600 C.ar  150  REI150      0.0000
     13  OW        -7.9420    7.7360  -29.0640 O.3   150  REI150      0.0000
@<TRIPOS>BOND
     1     4     2    2
     2     7     5    1
     3     5     1    1
     4     2     1    1
     5     8     1    1
     6     8     9    1
     7     1    13    1
     8     1     3    1
     9    11     3   ar
    10    11    12   ar
    11     3    10   ar
    12    12     6   ar
    13    10     6   ar
