@<TRIPOS>MOLECULE
3qef_AHR_B_3.pdb
 10 10 0 0 0
SMALL
GASTEIGER

@<TRIPOS>ATOM
      1  O5'      -26.1030   -0.4810  -26.0450 O.2   339  AHR339     -0.2855
      2  C5'      -27.1920   -0.7650  -25.4770 C.2   339  AHR339      0.2394
      3  C4'      -27.9380    0.3920  -24.9030 C.3   339  AHR339      0.2149
      4  O4'      -29.0980    0.3150  -25.6400 O.3   339  AHR339     -0.3183
      5  C3'      -27.4280    1.8200  -25.0140 C.3   339  AHR339      0.2219
      6  O3'      -27.1240    2.3100  -23.7230 O.3   339  AHR339     -0.2171
      7  C2'      -28.6720    2.5070  -25.3870 C.3   339  AHR339      0.2437
      8  O2'      -28.3150    3.6180  -26.1470 O.3   339  AHR339     -0.2147
      9  C1'      -29.2760    1.4850  -26.2890 C.3   339  AHR339      0.3027
     10  O1'      -30.6480    1.6920  -26.3070 O.3   339  AHR339     -0.1869
@<TRIPOS>BOND
     1    10     9    1
     2     9     4    1
     3     9     7    1
     4     8     7    1
     5     1     2    2
     6     4     3    1
     7     2     3    1
     8     7     5    1
     9     5     3    1
    10     5     6    1
