@<TRIPOS>MOLECULE
3qei_DCP_A_1.pdb
 28 29 0 0 0
SMALL
GASTEIGER

@<TRIPOS>ATOM
      1  N1        -0.9420   -8.3270   45.8530 N.am  904  DCP904     -0.1802
      2  C2        -1.4610   -7.7630   44.6960 C.1   904  DCP904      0.2756
      3  N3        -1.5840   -8.5250   43.5470 N.2   904  DCP904     -0.3024
      4  C4        -1.1070   -9.8250   43.5150 C.2   904  DCP904      0.2346
      5  C5        -0.6560  -10.4160   44.6890 C.2   904  DCP904      0.0687
      6  C6        -0.5940   -9.6530   45.8500 C.2   904  DCP904      0.0835
      7  O2        -1.8130   -6.5820   44.6900 O.2   904  DCP904     -0.1925
      8  N4        -1.0760  -10.5210   42.3780 N.pl3 904  DCP904     -0.0921
      9  C1'       -1.1870   -7.6490   47.1460 C.3   904  DCP904      0.2090
     10  C2'       -2.6670   -7.7750   47.5410 C.3   904  DCP904      0.0874
     11  C3'       -2.6630   -8.8780   48.5740 C.3   904  DCP904      0.1857
     12  C4'       -1.2920   -8.7420   49.2030 C.3   904  DCP904      0.1773
     13  O4'       -0.4320   -8.2650   48.1710 O.3   904  DCP904     -0.3339
     14  O3'       -3.7420   -8.7650   49.4850 O.3   904  DCP904     -0.2203
     15  C5'       -0.7720  -10.0590   49.7790 C.3   904  DCP904      0.1812
     16  O5'       -0.5710  -11.0110   48.7510 O.3   904  DCP904     -0.3112
     17  PA        -0.9660  -12.5590   48.9580 P.3   904  DCP904      0.2189
     18  O1A       -0.3580  -13.3780   47.8600 O.2   904  DCP904     -0.5170
     19  O2A       -0.5870  -13.0100   50.3440 O.3   904  DCP904     -0.4371
     20  O3A       -2.5540  -12.7130   48.7330 O.3   904  DCP904     -0.2700
     21  PB        -3.7420  -12.3760   49.7570 P.3   904  DCP904      0.2277
     22  O1B       -4.6040  -11.3320   49.0940 O.2   904  DCP904     -0.5168
     23  O2B       -3.3060  -11.9250   51.1290 O.3   904  DCP904     -0.4368
     24  O3B       -4.6240  -13.7110   49.7770 O.3   904  DCP904     -0.2258
     25  PG        -4.3930  -15.0310   50.6680 P.3   904  DCP904      0.5373
     26  O1G       -3.1750  -14.8930   51.5430 O.3   904  DCP904     -0.1143
     27  O2G       -5.6560  -15.1890   51.4850 O.3   904  DCP904     -0.1143
     28  O3G       -4.2200  -16.1690   49.7000 O.2   904  DCP904     -0.2221
@<TRIPOS>BOND
     1     8     4    1
     2     4     3    2
     3     4     5    1
     4     3     2    2
     5     5     6    2
     6     7     2    2
     7     2     1   am
     8     6     1    1
     9     1     9    1
    10     9    10    1
    11     9    13    1
    12    10    11    1
    13    18    17    2
    14    13    12    1
    15    11    12    1
    16    11    14    1
    17    20    17    1
    18    20    21    1
    19    16    17    1
    20    16    15    1
    21    17    19    1
    22    22    21    2
    23    12    15    1
    24    28    25    2
    25    21    24    1
    26    21    23    1
    27    24    25    1
    28    25    27    1
    29    25    26    1
