@<TRIPOS>MOLECULE
3qej_UDP_A_1.pdb
 25 26 0 0 0
SMALL
GASTEIGER

@<TRIPOS>ATOM
      1  N1       -28.2970   25.2760  -31.4560 N.am  401  UDP401     -0.1996
      2  C2       -29.4270   25.3030  -32.2650 C.1   401  UDP401      0.2802
      3  N3       -29.6620   24.2530  -33.1310 N.2   401  UDP401     -0.2497
      4  C4       -28.7750   23.1950  -33.1790 C.1   401  UDP401      0.1941
      5  C5       -27.6530   23.1870  -32.3490 C.3   401  UDP401      0.1579
      6  C6       -27.3070   24.3500  -31.6800 C.3   401  UDP401      0.1249
      7  O2       -30.2240   26.2430  -32.2370 O.2   401  UDP401     -0.1922
      8  O4       -28.9830   22.2670  -33.9530 O.2   401  UDP401     -0.2133
      9  C1'      -28.0570   26.3910  -30.5250 C.3   401  UDP401      0.2361
     10  C2'      -28.2720   25.9240  -29.1010 C.3   401  UDP401      0.2316
     11  O2'      -29.6260   25.6990  -28.8340 O.3   401  UDP401     -0.2157
     12  C3'      -27.7090   27.1240  -28.3780 C.3   401  UDP401      0.2158
     13  C4'      -26.4940   27.4740  -29.2260 C.3   401  UDP401      0.1799
     14  O4'      -26.7400   26.9330  -30.5260 O.3   401  UDP401     -0.3322
     15  O3'      -28.6340   28.1850  -28.4340 O.3   401  UDP401     -0.2175
     16  C5'      -25.2100   26.9240  -28.6000 C.3   401  UDP401      0.1813
     17  O5'      -25.0600   25.5410  -28.8570 O.3   401  UDP401     -0.3111
     18  PA       -24.0860   24.5910  -28.0070 P.3   401  UDP401      0.2231
     19  O1A      -24.1950   24.8910  -26.5610 O.3   401  UDP401     -0.4370
     20  O2A      -24.4230   23.1750  -28.2750 O.2   401  UDP401     -0.5169
     21  O3A      -22.6600   25.0110  -28.6320 O.3   401  UDP401     -0.2261
     22  PB       -21.2400   24.4250  -28.1620 P.3   401  UDP401      0.5373
     23  O1B      -21.4750   23.5950  -26.9710 O.3   401  UDP401     -0.1143
     24  O2B      -20.3140   25.5320  -27.8140 O.3   401  UDP401     -0.1143
     25  O3B      -20.5860   23.7120  -29.2880 O.2   401  UDP401     -0.2221
@<TRIPOS>BOND
     1     8     4    2
     2     4     3    2
     3     4     5    1
     4     3     2    2
     5     5     6    1
     6     2     7    2
     7     2     1   am
     8     6     1    1
     9     1     9    1
    10    14     9    1
    11    14    13    1
    12     9    10    1
    13    25    22    2
    14    13    16    1
    15    13    12    1
    16    10    11    1
    17    10    12    1
    18    17    16    1
    19    17    18    1
    20    21    22    1
    21    21    18    1
    22    15    12    1
    23    20    18    2
    24    22    24    1
    25    22    23    1
    26    18    19    1
