@<TRIPOS>MOLECULE
3qel_QEL_B_1.pdb
 24 26 0 0 0
SMALL
GASTEIGER

@<TRIPOS>ATOM
      1  C1        80.4990    1.0220  -32.1880 C.ar    1  QEL1       -0.0000
      2  N1        86.1030    6.6010  -31.8820 N.3     1  QEL1       -0.2677
      3  O1        85.8250    9.4300  -32.0130 O.2     1  QEL1       -0.2899
      4  C2        90.3220   10.1020  -30.7460 C.ar    1  QEL1        0.0421
      5  O2        91.8370   11.8350  -31.6200 O.3     1  QEL1       -0.2866
      6  C3        89.8100   11.3520  -32.6850 C.ar    1  QEL1        0.0421
      7  C4        82.3370    2.8190  -31.0800 C.ar    1  QEL1       -0.0222
      8  C5        81.0490    3.2530  -31.3780 C.ar    1  QEL1       -0.0043
      9  C6        80.1200    2.3640  -31.9320 C.ar    1  QEL1       -0.0003
     10  C7        83.2980    3.7680  -30.4370 C.3     1  QEL1        0.0264
     11  C8        84.5530    4.2650  -31.2710 C.3     1  QEL1        0.0071
     12  C9        84.1340    5.1320  -32.3440 C.3     1  QEL1        0.0177
     13  C01       81.7840    0.5860  -31.8850 C.ar    1  QEL1       -0.0003
     14  C02       82.7080    1.4760  -31.3200 C.ar    1  QEL1       -0.0043
     15  C10       85.2520    5.9610  -32.9120 C.3     1  QEL1        0.0724
     16  C11       86.4740    5.7800  -30.7630 C.3     1  QEL1        0.0724
     17  C12       85.3560    4.9570  -30.2410 C.3     1  QEL1        0.0177
     18  C13       87.0920    7.4840  -32.5220 C.3     1  QEL1        0.1201
     19  C14       86.9410    8.9080  -32.0930 C.2     1  QEL1        0.1874
     20  C15       88.2560    9.6610  -31.8720 C.ar    1  QEL1        0.0362
     21  C16       89.1030    9.3780  -30.8670 C.ar    1  QEL1        0.0062
     22  C18       90.6370   11.0920  -31.6860 C.ar    1  QEL1        0.1957
     23  C19       88.5940   10.6190  -32.7980 C.ar    1  QEL1        0.0062
     24  C24       86.9830    7.5240  -33.9870 C.3     1  QEL1        0.0257
@<TRIPOS>BOND
     1    24    18    1
     2    15    12    1
     3    15     2    1
     4    23     6   ar
     5    23    20   ar
     6     6    22   ar
     7    18    19    1
     8    18     2    1
     9    12    11    1
    10     1     9   ar
    11     1    13   ar
    12    19     3    2
    13    19    20    1
    14     9     8   ar
    15    13    14   ar
    16     2    16    1
    17    20    21   ar
    18    22     5    1
    19    22     4   ar
    20     8     7   ar
    21    14     7   ar
    22    11    10    1
    23    11    17    1
    24     7    10    1
    25    21     4   ar
    26    16    17    1
