@<TRIPOS>MOLECULE
3qem_QEM_B_1.pdb
 25 27 0 0 0
SMALL
GASTEIGER

@<TRIPOS>ATOM
      1  C         90.3090    9.4610  -32.0140 C.ar  396  QEM396      0.0014
      2  N         85.7180    6.4090  -32.3030 N.3   396  QEM396     -0.2726
      3  O         92.0740   12.7470  -31.8080 O.3   396  QEM396     -0.2866
      4  C01       80.5040    3.1050  -31.3310 C.ar  396  QEM396     -0.0043
      5  O01       87.9650    9.0930  -34.7650 O.3   396  QEM396     -0.2183
      6  C02       81.8930    2.9090  -31.1000 C.ar  396  QEM396     -0.0222
      7  C03       82.4780    1.6770  -31.3330 C.ar  396  QEM396     -0.0043
      8  C04       81.6890    0.6110  -31.8060 C.ar  396  QEM396     -0.0003
      9  C05       80.3040    0.8100  -32.0490 C.ar  396  QEM396     -0.0000
     10  C06       79.7150    2.0390  -31.8150 C.ar  396  QEM396     -0.0003
     11  C07       82.7440    4.0560  -30.5850 C.3   396  QEM396      0.0264
     12  C08       84.0680    4.2060  -31.4010 C.3   396  QEM396      0.0071
     13  C09       84.9880    4.8830  -30.5240 C.3   396  QEM396      0.0177
     14  C10       86.1390    5.5770  -31.1970 C.3   396  QEM396      0.0721
     15  C11       84.9960    5.6140  -33.2550 C.3   396  QEM396      0.0721
     16  C12       83.8010    4.9540  -32.6460 C.3   396  QEM396      0.0177
     17  C13       86.3600    7.3130  -33.2510 C.3   396  QEM396      0.0749
     18  C14       87.2370    8.3710  -32.6290 C.3   396  QEM396      0.0507
     19  C15       88.4050    8.6430  -33.5170 C.3   396  QEM396      0.1755
     20  C16       89.3760    9.7090  -33.0300 C.ar  396  QEM396      0.0079
     21  C17       86.3920    9.6320  -32.3450 C.3   396  QEM396      0.0044
     22  C18       89.3610   10.9500  -33.6230 C.ar  396  QEM396      0.0014
     23  C19       90.2480   11.9630  -33.2210 C.ar  396  QEM396      0.0418
     24  C20       91.1630   11.7190  -32.2190 C.ar  396  QEM396      0.1957
     25  C21       91.1760   10.4590  -31.6210 C.ar  396  QEM396      0.0418
@<TRIPOS>BOND
     1     5    19    1
     2    22    23   ar
     3    22    20   ar
     4    19    20    1
     5    19    18    1
     6    15    16    1
     7    15     2    1
     8    17    18    1
     9    17     2    1
    10    23    24   ar
    11    20     1   ar
    12    16    12    1
    13    18    21    1
    14     2    14    1
    15    24     3    1
    16    24    25   ar
    17     9    10   ar
    18     9     8   ar
    19     1    25   ar
    20    10     4   ar
    21     8     7   ar
    22    12    11    1
    23    12    13    1
    24     7     6   ar
    25     4     6   ar
    26    14    13    1
    27     6    11    1
