@<TRIPOS>MOLECULE
3qen_5BT_A_1.pdb
 17 18 0 0 0
SMALL
GASTEIGER

@<TRIPOS>ATOM
      1  N1       -12.5290   27.9380  -22.5590 N.am  402  5BT402     -0.1797
      2  C2       -11.1290   28.1150  -22.5030 C.1   402  5BT402      0.2756
      3  O2       -10.6560   29.2710  -22.5530 O.2   402  5BT402     -0.1925
      4  N3       -10.2850   27.0830  -22.4300 N.2   402  5BT402     -0.3019
      5  C4       -10.7170   25.8210  -22.3890 C.2   402  5BT402      0.2406
      6  N4        -9.7850   24.8290  -22.3200 N.pl3 402  5BT402     -0.0915
      7  C5       -12.1910   25.5990  -22.4250 C.2   402  5BT402      0.0980
      8 BR5       -13.0400   23.8900  -22.3920 Br    402  5BT402     -0.0435
      9  C6       -13.0300   26.7070  -22.5030 C.2   402  5BT402      0.0901
     10  C1'      -13.4080   29.1270  -22.5800 C.3   402  5BT402      0.2090
     11  C2'      -14.1850   29.4600  -23.8530 C.3   402  5BT402      0.0874
     12  C3'      -15.5550   29.8620  -23.3260 C.3   402  5BT402      0.1858
     13  O3'      -15.5750   31.2620  -22.9870 O.3   402  5BT402     -0.2203
     14  C4'      -15.7120   29.0940  -22.0320 C.3   402  5BT402      0.1802
     15  O4'      -14.3790   28.9870  -21.5190 O.3   402  5BT402     -0.3338
     16  C5'      -16.3370   27.7140  -22.2700 C.3   402  5BT402      0.2141
     17  O5'      -17.5510   27.6620  -21.5150 O.3   402  5BT402     -0.2176
@<TRIPOS>BOND
     1    11    12    1
     2    11    10    1
     3    12    13    1
     4    12    14    1
     5    10     1    1
     6    10    15    1
     7     1     2   am
     8     1     9    1
     9     3     2    2
    10     2     4    2
    11     9     7    2
    12     4     5    2
    13     7     8    1
    14     7     5    1
    15     5     6    1
    16    16    14    1
    17    16    17    1
    18    14    15    1
