@<TRIPOS>MOLECULE
3qen_UDP_A_1.pdb
 25 26 0 0 0
SMALL
GASTEIGER

@<TRIPOS>ATOM
      1  N1       -29.3180   24.6740  -29.3960 N.am  401  UDP401     -0.1996
      2  C2       -30.4810   24.6550  -30.1620 C.1   401  UDP401      0.2802
      3  N3       -30.5680   23.7920  -31.2480 N.2   401  UDP401     -0.2497
      4  C4       -29.5050   22.9640  -31.5690 C.1   401  UDP401      0.1941
      5  C5       -28.3370   23.0100  -30.8060 C.3   401  UDP401      0.1579
      6  C6       -28.3190   23.7580  -29.6280 C.3   401  UDP401      0.1249
      7  O2       -31.4350   25.4000  -29.8790 O.2   401  UDP401     -0.1922
      8  O4       -29.5880   22.2050  -32.5440 O.2   401  UDP401     -0.2133
      9  C1'      -29.2370   25.6310  -28.2750 C.3   401  UDP401      0.2361
     10  C2'      -29.1670   25.0530  -26.8690 C.3   401  UDP401      0.2316
     11  O2'      -30.4440   24.8490  -26.3080 O.3   401  UDP401     -0.2157
     12  C3'      -28.3600   26.1330  -26.1330 C.3   401  UDP401      0.2158
     13  C4'      -27.4910   26.7550  -27.2130 C.3   401  UDP401      0.1799
     14  O4'      -28.0700   26.4170  -28.4640 O.3   401  UDP401     -0.3322
     15  O3'      -29.1550   27.1610  -25.5700 O.3   401  UDP401     -0.2175
     16  C5'      -26.0620   26.2320  -27.1300 C.3   401  UDP401      0.1813
     17  O5'      -26.0720   24.8060  -27.1280 O.3   401  UDP401     -0.3111
     18  PA       -25.1790   23.9670  -26.0780 P.3   401  UDP401      0.2231
     19  O1A      -25.5830   24.2960  -24.6780 O.3   401  UDP401     -0.4370
     20  O2A      -25.3640   22.5470  -26.3780 O.2   401  UDP401     -0.5169
     21  O3A      -23.6930   24.5400  -26.3670 O.3   401  UDP401     -0.2261
     22  PB       -22.2560   23.7660  -26.3970 P.3   401  UDP401      0.5373
     23  O1B      -22.3330   22.6830  -25.3820 O.3   401  UDP401     -0.1143
     24  O2B      -21.3080   24.7730  -25.8760 O.3   401  UDP401     -0.1143
     25  O3B      -21.7650   23.3020  -27.6970 O.2   401  UDP401     -0.2221
@<TRIPOS>BOND
     1     8     4    2
     2     4     3    2
     3     4     5    1
     4     3     2    2
     5     5     6    1
     6     2     7    2
     7     2     1   am
     8     6     1    1
     9     1     9    1
    10    14     9    1
    11    14    13    1
    12     9    10    1
    13    25    22    2
    14    13    16    1
    15    13    12    1
    16    16    17    1
    17    17    18    1
    18    10    11    1
    19    10    12    1
    20    22    21    1
    21    22    24    1
    22    22    23    1
    23    20    18    2
    24    21    18    1
    25    12    15    1
    26    18    19    1
