@<TRIPOS>MOLECULE
3qeo_UDP_A_1.pdb
 25 26 0 0 0
SMALL
GASTEIGER

@<TRIPOS>ATOM
      1  N1       -27.8630   25.6410  -31.6520 N.am  401  UDP401     -0.1996
      2  C2       -28.9500   25.6290  -32.5130 C.1   401  UDP401      0.2802
      3  N3       -29.0150   24.6630  -33.5140 N.2   401  UDP401     -0.2497
      4  C4       -27.9780   23.7510  -33.6480 C.1   401  UDP401      0.1941
      5  C5       -26.8810   23.8020  -32.7750 C.3   401  UDP401      0.1579
      6  C6       -27.0160   24.5610  -31.6170 C.3   401  UDP401      0.1249
      7  O2       -29.8580   26.4530  -32.3660 O.2   401  UDP401     -0.1922
      8  O4       -28.0200   22.8980  -34.5340 O.2   401  UDP401     -0.2133
      9  C1'      -27.7880   26.6820  -30.6090 C.3   401  UDP401      0.2361
     10  C2'      -27.5580   26.1610  -29.1920 C.3   401  UDP401      0.2316
     11  O2'      -28.7310   25.8970  -28.4450 O.3   401  UDP401     -0.2157
     12  C3'      -26.6560   27.2270  -28.5910 C.3   401  UDP401      0.2158
     13  C4'      -25.8570   27.7210  -29.7860 C.3   401  UDP401      0.1799
     14  O4'      -26.6240   27.4220  -30.9440 O.3   401  UDP401     -0.3322
     15  O3'      -27.3960   28.3090  -28.0850 O.3   401  UDP401     -0.2175
     16  C5'      -24.4630   27.0840  -29.8570 C.3   401  UDP401      0.1813
     17  O5'      -24.5820   25.7170  -29.5260 O.3   401  UDP401     -0.3111
     18  PA       -23.6170   24.9310  -28.5010 P.3   401  UDP401      0.2231
     19  O1A      -23.8280   25.4450  -27.1300 O.3   401  UDP401     -0.4370
     20  O2A      -23.8600   23.4830  -28.5450 O.2   401  UDP401     -0.5169
     21  O3A      -22.1530   25.2220  -29.1030 O.3   401  UDP401     -0.2261
     22  PB       -20.7000   24.7580  -28.5640 P.3   401  UDP401      0.5373
     23  O1B      -20.8020   23.9820  -27.3050 O.3   401  UDP401     -0.1143
     24  O2B      -19.9880   26.0440  -28.2690 O.3   401  UDP401     -0.1143
     25  O3B      -20.0460   24.1750  -29.7360 O.2   401  UDP401     -0.2221
@<TRIPOS>BOND
     1     8     4    2
     2     4     3    2
     3     4     5    1
     4     3     2    2
     5     5     6    1
     6     2     7    2
     7     2     1   am
     8     1     6    1
     9     1     9    1
    10    14     9    1
    11    14    13    1
    12     9    10    1
    13    16    13    1
    14    16    17    1
    15    13    12    1
    16    25    22    2
    17    17    18    1
    18    10    12    1
    19    10    11    1
    20    21    22    1
    21    21    18    1
    22    12    15    1
    23    22    24    1
    24    22    23    1
    25    20    18    2
    26    18    19    1
