@<TRIPOS>MOLECULE
3qeo_LLT_A_1.pdb
 17 18 0 0 0
SMALL
GASTEIGER

@<TRIPOS>ATOM
      1  O4       -10.0130   26.0660  -23.5740 O.2   261  LLT261     -0.2088
      2  C4       -10.4770   27.3440  -23.6980 C.1   261  LLT261      0.2134
      3  C5       -11.8350   27.6460  -23.7360 C.2   261  LLT261      0.0891
      4  C7       -12.8890   26.5780  -23.6370 C.3   261  LLT261      0.0462
      5  C6       -12.2310   28.9770  -23.8620 C.2   261  LLT261      0.0877
      6  N3        -9.5830   28.3500  -23.7920 N.2   261  LLT261     -0.2455
      7  C2        -9.9920   29.6370  -23.9220 C.1   261  LLT261      0.2844
      8  O2        -9.0390   30.5950  -24.0180 O.2   261  LLT261     -0.1918
      9  N1       -11.3070   29.9520  -23.9560 N.am  261  LLT261     -0.1794
     10  C1'      -11.7320   31.3540  -24.0970 C.3   261  LLT261      0.2090
     11  O4'      -12.9180   31.4710  -24.8990 O.3   261  LLT261     -0.3338
     12  C4'      -13.8840   32.3310  -24.2810 C.3   261  LLT261      0.1802
     13  C5'      -15.2010   31.5800  -24.0810 C.3   261  LLT261      0.2141
     14  O5'      -16.3250   32.4620  -24.2080 O.3   261  LLT261     -0.2176
     15  C3'      -13.2730   32.8040  -22.9640 C.3   261  LLT261      0.1858
     16  O3'      -12.8380   34.1580  -23.0790 O.3   261  LLT261     -0.2203
     17  C2'      -12.0510   31.9470  -22.7330 C.3   261  LLT261      0.0874
@<TRIPOS>BOND
     1    11    12    1
     2    11    10    1
     3    12    13    1
     4    12    15    1
     5    14    13    1
     6    10     9    1
     7    10    17    1
     8     8     7    2
     9     9     7   am
    10     9     5    1
    11     7     6    2
    12     5     3    2
    13     6     2    2
    14     3     2    1
    15     3     4    1
    16     2     1    2
    17    16    15    1
    18    15    17    1
