@<TRIPOS>MOLECULE
3qep_TTP_A_1.pdb
 29 30 0 0 0
SMALL
GASTEIGER

@<TRIPOS>ATOM
      1  PA         0.1180  -10.1890  -49.0500 P.3   904  TTP904      0.2189
      2  O1A       -0.4250  -11.1280  -48.0170 O.3   904  TTP904     -0.4371
      3  O2A       -0.3470  -10.5790  -50.4310 O.2   904  TTP904     -0.5170
      4  O3A        1.7130  -10.2860  -48.8960 O.3   904  TTP904     -0.2700
      5  PB         2.8600   -9.8740  -49.9300 P.3   904  TTP904      0.2277
      6  O1B        3.7170   -8.8330  -49.2630 O.3   904  TTP904     -0.4368
      7  O2B        2.3390   -9.4220  -51.2680 O.2   904  TTP904     -0.5168
      8  O3B        3.7380  -11.2220  -50.0560 O.3   904  TTP904     -0.2258
      9  PG         3.4290  -12.5480  -50.9240 P.3   904  TTP904      0.5373
     10  O1G        2.0910  -12.4000  -51.6240 O.3   904  TTP904     -0.1143
     11  O2G        4.5510  -12.6650  -51.9110 O.2   904  TTP904     -0.2221
     12  O3G        3.4130  -13.7010  -49.9620 O.3   904  TTP904     -0.1143
     13  O5'       -0.2420   -8.6860  -48.6340 O.3   904  TTP904     -0.3112
     14  C5'       -0.2050   -7.5820  -49.5400 C.3   904  TTP904      0.1812
     15  C4'        0.3470   -6.3850  -48.7830 C.3   904  TTP904      0.1773
     16  O4'       -0.4260   -6.1490  -47.5890 O.3   904  TTP904     -0.3339
     17  C3'        1.7740   -6.5750  -48.2850 C.3   904  TTP904      0.1857
     18  O3'        2.7680   -6.3580  -49.3100 O.3   904  TTP904     -0.2203
     19  C2'        1.8180   -5.5440  -47.1700 C.3   904  TTP904      0.0874
     20  C1'        0.4130   -5.6330  -46.5620 C.3   904  TTP904      0.2090
     21  N1         0.4490   -6.5690  -45.4290 N.am  904  TTP904     -0.1794
     22  C2         0.8330   -6.0790  -44.1620 C.1   904  TTP904      0.2844
     23  O2         1.1330   -4.8720  -44.0330 O.2   904  TTP904     -0.1918
     24  N3         0.9030   -6.8950  -43.0970 N.2   904  TTP904     -0.2455
     25  C4         0.6060   -8.1990  -43.2020 C.1   904  TTP904      0.2134
     26  O4         0.6810   -8.9340  -42.1890 O.2   904  TTP904     -0.2088
     27  C5         0.2040   -8.7470  -44.5290 C.2   904  TTP904      0.0891
     28  C5M       -0.1440  -10.2030  -44.7300 C.3   904  TTP904      0.0462
     29  C6         0.1400   -7.8700  -45.6020 C.2   904  TTP904      0.0877
@<TRIPOS>BOND
     1    11     9    2
     2    10     9    1
     3     7     5    2
     4     9     8    1
     5     9    12    1
     6     3     1    2
     7     8     5    1
     8     5     6    1
     9     5     4    1
    10    14    15    1
    11    14    13    1
    12    18    17    1
    13     1     4    1
    14     1    13    1
    15     1     2    1
    16    15    17    1
    17    15    16    1
    18    17    19    1
    19    16    20    1
    20    19    20    1
    21    20    21    1
    22    29    21    1
    23    29    27    2
    24    21    22   am
    25    28    27    1
    26    27    25    1
    27    22    23    2
    28    22    24    2
    29    25    24    2
    30    25    26    2
