@<TRIPOS>MOLECULE
3qer_DTP_A_1.pdb
 30 32 0 0 0
SMALL
GASTEIGER

@<TRIPOS>ATOM
      1  PG        -4.2100   14.8540  -50.4790 P.3   904  DTP904      0.5373
      2  O1G       -2.9330   14.6540  -51.2610 O.3   904  DTP904     -0.1143
      3  O2G       -5.4480   14.9470  -51.3290 O.2   904  DTP904     -0.2221
      4  O3G       -4.1360   15.9480  -49.4430 O.3   904  DTP904     -0.1143
      5  PB        -3.6520   12.1480  -49.5520 P.3   904  DTP904      0.2277
      6  O1B       -4.4830   11.1760  -48.7470 O.3   904  DTP904     -0.4368
      7  O2B       -3.2320   11.7620  -50.9460 O.2   904  DTP904     -0.5168
      8  O3B       -4.4770   13.5350  -49.5780 O.3   904  DTP904     -0.2258
      9  PA        -0.8150   12.3870  -48.8890 P.3   904  DTP904      0.2189
     10  O1A       -0.2230   13.1050  -47.7060 O.3   904  DTP904     -0.4371
     11  O2A       -0.4550   12.7980  -50.2930 O.2   904  DTP904     -0.5170
     12  O3A       -2.3960   12.5720  -48.6370 O.3   904  DTP904     -0.2700
     13  O5'       -0.5000   10.8280  -48.6840 O.3   904  DTP904     -0.3112
     14  C5'       -0.7680    9.8610  -49.7010 C.3   904  DTP904      0.1813
     15  C4'       -1.2220    8.5690  -49.0290 C.3   904  DTP904      0.1795
     16  O4'       -0.3290    8.1780  -47.9750 O.3   904  DTP904     -0.3155
     17  C3'       -2.5640    8.7080  -48.3470 C.3   904  DTP904      0.1883
     18  O3'       -3.6770    8.6390  -49.2520 O.3   904  DTP904     -0.2202
     19  C2'       -2.5170    7.5650  -47.3600 C.3   904  DTP904      0.1151
     20  C1'       -1.0510    7.5710  -46.9070 C.3   904  DTP904      0.2873
     21  N9        -0.9810    8.4470  -45.7060 N.pl3 904  DTP904     -0.1460
     22  C8        -0.4930    9.7050  -45.6600 C.3   904  DTP904      0.3377
     23  N7        -0.6110   10.2310  -44.4160 N.2   904  DTP904     -0.2095
     24  C5        -1.2080    9.3070  -43.6470 C.2   904  DTP904      0.2526
     25  C6        -1.6280    9.2190  -42.2350 C.2   904  DTP904      0.4393
     26  N6        -1.4170   10.2680  -41.4060 N.pl3 904  DTP904      0.2180
     27  N1        -2.2200    8.0670  -41.8210 N.2   904  DTP904      0.0021
     28  C2        -2.4290    7.0250  -42.6580 C.3   904  DTP904      0.5254
     29  N3        -2.0630    7.0390  -43.9570 N.2   904  DTP904     -0.0055
     30  C4        -1.4620    8.1330  -44.5000 C.2   904  DTP904      0.3518
@<TRIPOS>BOND
     1     3     1    2
     2     2     1    1
     3     7     5    2
     4     1     8    1
     5     1     4    1
     6    11     9    2
     7    14    15    1
     8    14    13    1
     9     8     5    1
    10     5     6    1
    11     5    12    1
    12    18    17    1
    13    15    17    1
    14    15    16    1
    15     9    13    1
    16     9    12    1
    17     9    10    1
    18    17    19    1
    19    16    20    1
    20    19    20    1
    21    20    21    1
    22    21    22    1
    23    21    30    1
    24    22    23    1
    25    30    29    2
    26    30    24    1
    27    23    24    2
    28    29    28    1
    29    24    25    1
    30    28    27    1
    31    25    27    2
    32    25    26    1
