@<TRIPOS>MOLECULE
3qes_DGT_A_1.pdb
 31 33 0 0 0
SMALL
GASTEIGER

@<TRIPOS>ATOM
      1  PG        -3.2890   12.5650  -50.7600 P.3   904  DGT904      0.5373
      2  O1G       -1.9660   12.4500  -51.4810 O.3   904  DGT904     -0.1143
      3  O2G       -4.4320   12.6480  -51.7250 O.2   904  DGT904     -0.2221
      4  O3G       -3.2850   13.7590  -49.8440 O.3   904  DGT904     -0.1143
      5  O3B       -3.5840   11.2550  -49.8620 O.3   904  DGT904     -0.2258
      6  PB        -2.6620    9.9460  -49.7720 P.3   904  DGT904      0.2277
      7  O1B       -3.5140    8.8750  -49.1220 O.3   904  DGT904     -0.4368
      8  O2B       -2.1660    9.5170  -51.1310 O.2   904  DGT904     -0.5168
      9  O3A       -1.5190   10.3350  -48.7070 O.3   904  DGT904     -0.2700
     10  PA         0.0760   10.2280  -48.8380 P.3   904  DGT904      0.2189
     11  O1A        0.6530   11.0610  -47.7310 O.3   904  DGT904     -0.4371
     12  O2A        0.5680   10.6650  -50.1980 O.2   904  DGT904     -0.5170
     13  O5'        0.4240    8.6840  -48.5420 O.3   904  DGT904     -0.3112
     14  C5'        0.3770    7.7020  -49.5520 C.3   904  DGT904      0.1812
     15  C4'       -0.1430    6.4150  -48.9450 C.3   904  DGT904      0.1772
     16  O4'        0.6500    6.0500  -47.8230 O.3   904  DGT904     -0.3347
     17  C3'       -1.5570    6.5520  -48.4030 C.3   904  DGT904      0.1857
     18  O3'       -2.5710    6.4400  -49.3870 O.3   904  DGT904     -0.2203
     19  C2'       -1.5770    5.4390  -47.3710 C.3   904  DGT904      0.0865
     20  C1'       -0.1590    5.5030  -46.8020 C.3   904  DGT904      0.1981
     21  N9        -0.2000    6.4230  -45.6480 N.pl3 904  DGT904     -0.2374
     22  C8         0.2300    7.7310  -45.5790 C.3   904  DGT904      0.2245
     23  N7        -0.0230    8.2020  -44.3320 N.2   904  DGT904     -0.2322
     24  C5        -0.6070    7.2180  -43.6090 C.2   904  DGT904      0.2182
     25  C6        -1.0680    7.1530  -42.2960 C.1   904  DGT904      0.2372
     26  O6        -0.9760    8.1260  -41.5490 O.2   904  DGT904     -0.2069
     27  N1        -1.6310    5.9800  -41.8390 N.2   904  DGT904     -0.2485
     28  C2        -1.7320    4.8830  -42.6740 C.1   904  DGT904      0.2531
     29  N2        -2.2690    3.7520  -42.2430 N.pl3 904  DGT904     -0.0226
     30  N3        -1.2710    4.9480  -43.9760 N.2   904  DGT904     -0.3074
     31  C4        -0.7230    6.0980  -44.4310 C.2   904  DGT904      0.2299
@<TRIPOS>BOND
     1     3     1    2
     2     2     1    1
     3     8     6    2
     4     1     5    1
     5     1     4    1
     6    12    10    2
     7     5     6    1
     8     6     7    1
     9     6     9    1
    10    14    15    1
    11    14    13    1
    12    18    17    1
    13    15    17    1
    14    15    16    1
    15    10     9    1
    16    10    13    1
    17    10    11    1
    18    17    19    1
    19    16    20    1
    20    19    20    1
    21    20    21    1
    22    21    22    1
    23    21    31    1
    24    22    23    1
    25    31    30    2
    26    31    24    1
    27    23    24    2
    28    30    28    2
    29    24    25    1
    30    28    29    1
    31    28    27    2
    32    25    27    2
    33    25    26    2
