@<TRIPOS>MOLECULE
3qet_TTP_A_1.pdb
 29 30 0 0 0
SMALL
GASTEIGER

@<TRIPOS>ATOM
      1  PA        -0.8280  -12.3650   48.7650 P.3   904  TTP904      0.2189
      2  O1A       -0.2310  -13.3230   47.7890 O.2   904  TTP904     -0.5170
      3  O2A       -0.4700  -12.6490   50.1980 O.3   904  TTP904     -0.4371
      4  O3A       -2.4100  -12.5590   48.5070 O.3   904  TTP904     -0.2700
      5  PB        -3.6520  -12.1680   49.4410 P.3   904  TTP904      0.2277
      6  O1B       -4.4720  -11.1350   48.6960 O.2   904  TTP904     -0.5168
      7  O2B       -3.2710  -11.6570   50.7990 O.3   904  TTP904     -0.4368
      8  O3B       -4.4830  -13.5290   49.4960 O.3   904  TTP904     -0.2258
      9  PG        -4.1220  -14.8340   50.3790 P.3   904  TTP904      0.5373
     10  O1G       -2.8580  -14.6430   51.1690 O.3   904  TTP904     -0.1143
     11  O2G       -5.3050  -15.0570   51.2760 O.3   904  TTP904     -0.1143
     12  O3G       -3.9930  -15.9380   49.3670 O.2   904  TTP904     -0.2221
     13  O5'       -0.5290  -10.8350   48.3570 O.3   904  TTP904     -0.3112
     14  C5'       -0.7260   -9.7860   49.3000 C.3   904  TTP904      0.1812
     15  C4'       -1.2580   -8.5460   48.5910 C.3   904  TTP904      0.1773
     16  O4'       -0.4530   -8.1740   47.4600 O.3   904  TTP904     -0.3339
     17  C3'       -2.6430   -8.7740   48.0320 C.3   904  TTP904      0.1857
     18  O3'       -3.6720   -8.6020   49.0140 O.3   904  TTP904     -0.2203
     19  C2'       -2.7170   -7.7750   46.8960 C.3   904  TTP904      0.0874
     20  C1'       -1.2790   -7.7400   46.3710 C.3   904  TTP904      0.2090
     21  N1        -1.1520   -8.6330   45.2000 N.am  904  TTP904     -0.1794
     22  C2        -1.4130   -8.1140   43.9100 C.1   904  TTP904      0.2844
     23  O2        -1.7410   -6.9100   43.7860 O.2   904  TTP904     -0.1918
     24  N3        -1.3150   -8.8920   42.8140 N.2   904  TTP904     -0.2455
     25  C4        -0.9700  -10.1850   42.9040 C.1   904  TTP904      0.2134
     26  O4        -0.8830  -10.8720   41.8700 O.2   904  TTP904     -0.2088
     27  C5        -0.6980  -10.7630   44.2390 C.2   904  TTP904      0.0891
     28  C5M       -0.3120  -12.2170   44.4210 C.3   904  TTP904      0.0462
     29  C6        -0.8060   -9.9250   45.3480 C.2   904  TTP904      0.0877
@<TRIPOS>BOND
     1    26    25    2
     2    24    25    2
     3    24    22    2
     4    25    27    1
     5    23    22    2
     6    22    21   am
     7    27    28    1
     8    27    29    2
     9    21    29    1
    10    21    20    1
    11    20    19    1
    12    20    16    1
    13    19    17    1
    14    16    15    1
    15     2     1    2
    16    17    15    1
    17    17    18    1
    18    13     1    1
    19    13    14    1
    20     4     1    1
    21     4     5    1
    22    15    14    1
    23     6     5    2
    24     1     3    1
    25    12     9    2
    26     5     8    1
    27     5     7    1
    28     8     9    1
    29     9    10    1
    30     9    11    1
