@<TRIPOS>MOLECULE
3qev_DCP_A_1.pdb
 28 29 0 0 0
SMALL
GASTEIGER

@<TRIPOS>ATOM
      1  N1        -0.1990   -6.1700   45.7550 N.am  904  DCP904     -0.1802
      2  C2        -0.6970   -5.5680   44.6060 C.1   904  DCP904      0.2756
      3  N3        -0.8200   -6.2970   43.4480 N.2   904  DCP904     -0.3024
      4  C4        -0.4460   -7.6190   43.4050 C.2   904  DCP904      0.2346
      5  C5        -0.0100   -8.2490   44.5640 C.2   904  DCP904      0.0687
      6  C6         0.1400   -7.4980   45.7250 C.2   904  DCP904      0.0835
      7  O2        -1.0490   -4.3900   44.6150 O.2   904  DCP904     -0.1925
      8  N4        -0.4970   -8.2900   42.2590 N.pl3 904  DCP904     -0.0921
      9  C1'       -0.3020   -5.4570   47.0480 C.3   904  DCP904      0.2090
     10  C2'       -1.7470   -5.5160   47.5420 C.3   904  DCP904      0.0874
     11  C3'       -1.7110   -6.6110   48.5800 C.3   904  DCP904      0.1857
     12  C4'       -0.3000   -6.4720   49.1400 C.3   904  DCP904      0.1773
     13  O4'        0.4990   -6.0850   48.0290 O.3   904  DCP904     -0.3339
     14  O3'       -2.7450   -6.4510   49.5320 O.3   904  DCP904     -0.2203
     15  C5'        0.2450   -7.7540   49.7340 C.3   904  DCP904      0.1812
     16  O5'        0.2810   -8.7490   48.7270 O.3   904  DCP904     -0.3112
     17  PA        -0.0610  -10.2830   49.0360 P.3   904  DCP904      0.2189
     18  O1A        0.4540  -11.1300   47.9000 O.2   904  DCP904     -0.5170
     19  O2A        0.4460  -10.7470   50.3820 O.3   904  DCP904     -0.4371
     20  O3A       -1.6560  -10.3970   48.8980 O.3   904  DCP904     -0.2700
     21  PB        -2.8090   -9.9960   49.9380 P.3   904  DCP904      0.2277
     22  O1B       -3.6510   -8.9550   49.2470 O.2   904  DCP904     -0.5168
     23  O2B       -2.3060   -9.5640   51.2890 O.3   904  DCP904     -0.4368
     24  O3B       -3.7060  -11.3240   49.9830 O.3   904  DCP904     -0.2258
     25  PG        -3.4570  -12.6110   50.9140 P.3   904  DCP904      0.5373
     26  O1G       -2.1310  -12.4980   51.6280 O.3   904  DCP904     -0.1143
     27  O2G       -4.6460  -12.6290   51.8280 O.3   904  DCP904     -0.1143
     28  O3G       -3.4520  -13.8020   49.9900 O.2   904  DCP904     -0.2221
@<TRIPOS>BOND
     1     8     4    1
     2     4     3    2
     3     4     5    1
     4     3     2    2
     5     5     6    2
     6     2     7    2
     7     2     1   am
     8     6     1    1
     9     1     9    1
    10     9    10    1
    11     9    13    1
    12    10    11    1
    13    18    17    2
    14    13    12    1
    15    11    12    1
    16    11    14    1
    17    16    17    1
    18    16    15    1
    19    20    17    1
    20    20    21    1
    21    17    19    1
    22    12    15    1
    23    22    21    2
    24    21    24    1
    25    21    23    1
    26    24    25    1
    27    28    25    2
    28    25    26    1
    29    25    27    1
