@<TRIPOS>MOLECULE
3qew_DTP_A_1.pdb
 30 32 0 0 0
SMALL
GASTEIGER

@<TRIPOS>ATOM
      1  PG         3.4060  -12.6820  -50.9160 P.3   904  DTP904      0.5373
      2  O1G        2.1170  -12.5570  -51.6860 O.3   904  DTP904     -0.1143
      3  O2G        4.6580  -12.6520  -51.7490 O.2   904  DTP904     -0.2221
      4  O3G        3.3820  -13.7740  -49.8900 O.3   904  DTP904     -0.1143
      5  PB         2.6200  -10.0130  -50.0440 P.3   904  DTP904      0.2277
      6  O1B        3.3770   -8.9600  -49.2640 O.3   904  DTP904     -0.4368
      7  O2B        2.1020   -9.6880  -51.4210 O.2   904  DTP904     -0.5168
      8  O3B        3.5800  -11.3110  -50.0650 O.3   904  DTP904     -0.2258
      9  PA        -0.0740  -10.3350  -48.8990 P.3   904  DTP904      0.2189
     10  O1A       -0.3900  -11.0820  -47.6440 O.3   904  DTP904     -0.4371
     11  O2A       -0.7710  -10.6640  -50.1950 O.2   904  DTP904     -0.5170
     12  O3A        1.4950  -10.6330  -49.0790 O.3   904  DTP904     -0.2700
     13  O5'       -0.1940   -8.7740  -48.5820 O.3   904  DTP904     -0.3112
     14  C5'       -0.3520   -7.8110  -49.6210 C.3   904  DTP904      0.1813
     15  C4'        0.1680   -6.4850  -49.0930 C.3   904  DTP904      0.1795
     16  O4'       -0.6050   -6.1080  -47.9460 O.3   904  DTP904     -0.3155
     17  C3'        1.6010   -6.5220  -48.5820 C.3   904  DTP904      0.1883
     18  O3'        2.6070   -6.3650  -49.6000 O.3   904  DTP904     -0.2202
     19  C2'        1.5980   -5.3410  -47.6240 C.3   904  DTP904      0.1151
     20  C1'        0.1950   -5.3850  -47.0150 C.3   904  DTP904      0.2873
     21  N9         0.3110   -6.1740  -45.7680 N.pl3 904  DTP904     -0.1460
     22  C8        -0.0460   -7.4660  -45.5950 C.3   904  DTP904      0.3377
     23  N7         0.2180   -7.8720  -44.3270 N.2   904  DTP904     -0.2095
     24  C5         0.7550   -6.8280  -43.6790 C.2   904  DTP904      0.2526
     25  C6         1.2630   -6.5640  -42.3130 C.2   904  DTP904      0.4393
     26  N6         1.2500   -7.5370  -41.3730 N.pl3 904  DTP904      0.2180
     27  N1         1.7570   -5.3330  -42.0530 N.2   904  DTP904      0.0021
     28  C2         1.7770   -4.3510  -42.9760 C.3   904  DTP904      0.5254
     29  N3         1.3250   -4.5140  -44.2370 N.2   904  DTP904     -0.0055
     30  C4         0.8140   -5.7100  -44.6320 C.2   904  DTP904      0.3518
@<TRIPOS>BOND
     1     3     1    2
     2     2     1    1
     3     7     5    2
     4     1     8    1
     5     1     4    1
     6    11     9    2
     7     8     5    1
     8     5     6    1
     9     5    12    1
    10    14    15    1
    11    14    13    1
    12    18    17    1
    13    15    17    1
    14    15    16    1
    15    12     9    1
    16     9    13    1
    17     9    10    1
    18    17    19    1
    19    16    20    1
    20    19    20    1
    21    20    21    1
    22    21    22    1
    23    21    30    1
    24    22    23    1
    25    30    29    2
    26    30    24    1
    27    23    24    2
    28    29    28    1
    29    24    25    1
    30    28    27    1
    31    25    27    2
    32    25    26    1
