@<TRIPOS>MOLECULE
3qex_DGT_A_1.pdb
 31 33 0 0 0
SMALL
GASTEIGER

@<TRIPOS>ATOM
      1  PG         3.5130  -12.6780  -50.9110 P.3   904  DGT904      0.5373
      2  O1G        2.2340  -12.6460  -51.7140 O.3   904  DGT904     -0.1143
      3  O2G        4.7360  -12.7330  -51.7750 O.2   904  DGT904     -0.2221
      4  O3G        3.4730  -13.8340  -49.9500 O.3   904  DGT904     -0.1143
      5  O3B        3.6640  -11.3270  -50.0400 O.3   904  DGT904     -0.2258
      6  PB         2.6020  -10.1270  -50.0290 P.3   904  DGT904      0.2277
      7  O1B        3.2490   -9.0240  -49.2330 O.3   904  DGT904     -0.4368
      8  O2B        2.1760   -9.7320  -51.4180 O.2   904  DGT904     -0.5168
      9  O3A        1.4470  -10.8910  -49.2100 O.3   904  DGT904     -0.2700
     10  PA        -0.0330  -10.4430  -48.7730 P.3   904  DGT904      0.2189
     11  O1A       -0.3300  -11.2100  -47.5270 O.3   904  DGT904     -0.4371
     12  O2A       -1.0240  -10.7930  -49.8550 O.2   904  DGT904     -0.5170
     13  O5'       -0.0340   -8.8730  -48.4680 O.3   904  DGT904     -0.3112
     14  C5'       -0.2990   -7.9630  -49.5050 C.3   904  DGT904      0.1812
     15  C4'        0.1400   -6.6000  -49.0340 C.3   904  DGT904      0.1772
     16  O4'       -0.6310   -6.2370  -47.8970 O.3   904  DGT904     -0.3347
     17  C3'        1.5820   -6.5590  -48.5500 C.3   904  DGT904      0.1857
     18  O3'        2.5590   -6.4970  -49.5820 O.3   904  DGT904     -0.2203
     19  C2'        1.5200   -5.3040  -47.7100 C.3   904  DGT904      0.0865
     20  C1'        0.1190   -5.3570  -47.0960 C.3   904  DGT904      0.1981
     21  N9         0.3410   -5.9030  -45.7540 N.pl3 904  DGT904     -0.2374
     22  C8         0.1070   -7.1630  -45.2650 C.3   904  DGT904      0.2245
     23  N7         0.5290   -7.1840  -43.9730 N.2   904  DGT904     -0.2322
     24  C5         1.0350   -5.9680  -43.6590 C.2   904  DGT904      0.2182
     25  C6         1.5950   -5.4390  -42.5010 C.1   904  DGT904      0.2372
     26  O6         1.6960   -6.1510  -41.5070 O.2   904  DGT904     -0.2069
     27  N1         2.0410   -4.1310  -42.4770 N.2   904  DGT904     -0.2485
     28  C2         1.9280   -3.3510  -43.6110 C.1   904  DGT904      0.2531
     29  N2         2.3460   -2.0930  -43.6140 N.pl3 904  DGT904     -0.0226
     30  N3         1.3690   -3.8820  -44.7570 N.2   904  DGT904     -0.3074
     31  C4         0.9290   -5.1640  -44.7680 C.2   904  DGT904      0.2299
@<TRIPOS>BOND
     1     3     1    2
     2     2     1    1
     3     8     6    2
     4     1     5    1
     5     1     4    1
     6     5     6    1
     7     6     7    1
     8     6     9    1
     9    12    10    2
    10    18    17    1
    11    14    15    1
    12    14    13    1
    13     9    10    1
    14    15    17    1
    15    15    16    1
    16    10    13    1
    17    10    11    1
    18    17    19    1
    19    16    20    1
    20    19    20    1
    21    20    21    1
    22    21    22    1
    23    21    31    1
    24    22    23    1
    25    31    30    2
    26    31    24    1
    27    30    28    2
    28    23    24    2
    29    24    25    1
    30    29    28    1
    31    28    27    2
    32    25    27    2
    33    25    26    2
