@<TRIPOS>MOLECULE
3qez_BMP_A_1.pdb
 22 23 0 0 0
SMALL
GASTEIGER

@<TRIPOS>ATOM
      1  P         24.9530   -2.2570    8.3990 P.3   229  BMP229      0.5327
      2  OP1       24.2100   -3.0140    7.3550 O.2   229  BMP229     -0.2224
      3  OP2       25.7380   -3.2140    9.3920 O.3   229  BMP229     -0.1145
      4  OP3       25.9340   -1.1870    7.7540 O.3   229  BMP229     -0.1145
      5  O5'       23.9540   -1.5050    9.3720 O.3   229  BMP229     -0.2675
      6  C5'       22.8550   -0.7630    8.8720 C.3   229  BMP229      0.1859
      7  C4'       22.1280   -0.0980   10.0000 C.3   229  BMP229      0.1801
      8  O4'       21.0620    0.7090    9.4690 O.3   229  BMP229     -0.3319
      9  C3'       21.5010   -1.0440   11.0060 C.3   229  BMP229      0.2158
     10  O3'       21.5220   -0.4370   12.2970 O.3   229  BMP229     -0.2175
     11  C2'       20.0610   -1.1580   10.5160 C.3   229  BMP229      0.2320
     12  O2'       19.1430   -1.4710   11.5380 O.3   229  BMP229     -0.2157
     13  C1'       19.8130    0.2450    9.9370 C.3   229  BMP229      0.2425
     14  N1        18.8700    0.2950    8.8050 N.am  229  BMP229     -0.1473
     15  C2        18.9950   -0.4720    7.7030 C.1   229  BMP229      0.2863
     16  O2        19.9080   -1.2790    7.5940 O.2   229  BMP229     -0.1918
     17  N3        18.1300   -0.3590    6.6820 N.2   229  BMP229     -0.2489
     18  C4        17.1030    0.5170    6.7100 C.1   229  BMP229      0.2018
     19  O4        16.3410    0.5710    5.7450 O.2   229  BMP229     -0.2129
     20  C5        16.9460    1.3480    7.8360 C.3   229  BMP229      0.2213
     21  C6        17.8530    1.2210    8.8640 C.2   229  BMP229      0.2591
     22  O1        17.7750    1.9910    9.9570 O.2   229  BMP229     -0.2725
@<TRIPOS>BOND
     1    19    18    2
     2    17    18    2
     3    17    15    2
     4    18    20    1
     5     2     1    2
     6    16    15    2
     7    15    14   am
     8     4     1    1
     9    20    21    1
    10     1     5    1
    11     1     3    1
    12    14    21   am
    13    14    13    1
    14    21    22    2
    15     6     5    1
    16     6     7    1
    17     8    13    1
    18     8     7    1
    19    13    11    1
    20     7     9    1
    21    11     9    1
    22    11    12    1
    23     9    10    1
