@<TRIPOS>MOLECULE
3qf0_BMP_A_1.pdb
 22 23 0 0 0
SMALL
GASTEIGER

@<TRIPOS>ATOM
      1  P         25.2510   -2.5730    8.2620 P.3   229  BMP229      0.5327
      2  OP1       24.5560   -3.3490    7.2020 O.2   229  BMP229     -0.2224
      3  OP2       26.0310   -3.5110    9.2850 O.3   229  BMP229     -0.1145
      4  OP3       26.2230   -1.5090    7.6060 O.3   229  BMP229     -0.1145
      5  O5'       24.2250   -1.8160    9.2060 O.3   229  BMP229     -0.2675
      6  C5'       23.0480   -1.1980    8.6950 C.3   229  BMP229      0.1859
      7  C4'       22.3510   -0.4400    9.7910 C.3   229  BMP229      0.1801
      8  O4'       21.3250    0.3970    9.2190 O.3   229  BMP229     -0.3319
      9  C3'       21.6700   -1.3040   10.8420 C.3   229  BMP229      0.2158
     10  O3'       21.6640   -0.6200   12.0950 O.3   229  BMP229     -0.2175
     11  C2'       20.2430   -1.4000   10.3240 C.3   229  BMP229      0.2320
     12  O2'       19.2980   -1.6450   11.3440 O.3   229  BMP229     -0.2157
     13  C1'       20.0500   -0.0160    9.6770 C.3   229  BMP229      0.2425
     14  N1        19.1310    0.0070    8.5200 N.am  229  BMP229     -0.1473
     15  C2        19.2950   -0.7850    7.4340 C.1   229  BMP229      0.2863
     16  O2        20.2090   -1.5900    7.3690 O.2   229  BMP229     -0.1918
     17  N3        18.4350   -0.7090    6.3930 N.2   229  BMP229     -0.2489
     18  C4        17.4030    0.1650    6.3900 C.1   229  BMP229      0.2018
     19  O4        16.6480    0.1910    5.4270 O.2   229  BMP229     -0.2129
     20  C5        17.2070    1.0180    7.4880 C.3   229  BMP229      0.2213
     21  C6        18.1010    0.9270    8.5290 C.2   229  BMP229      0.2591
     22  O1        17.9990    1.7190    9.6020 O.2   229  BMP229     -0.2725
@<TRIPOS>BOND
     1    19    18    2
     2    18    17    2
     3    18    20    1
     4    17    15    2
     5     2     1    2
     6    16    15    2
     7    15    14   am
     8    20    21    1
     9     4     1    1
    10     1     5    1
    11     1     3    1
    12    14    21   am
    13    14    13    1
    14    21    22    2
    15     6     5    1
    16     6     7    1
    17     8    13    1
    18     8     7    1
    19    13    11    1
    20     7     9    1
    21    11     9    1
    22    11    12    1
    23     9    10    1
