@<TRIPOS>MOLECULE
3qf1_HEM_A_1.pdb
 43 50 0 0 0
SMALL
GASTEIGER

@<TRIPOS>ATOM
      1  CHA        8.9390    0.2280   28.8610 C.2   618  HEM618      0.0000
      2  CHB        9.4220    4.9840   28.6530 C.2   618  HEM618      0.0000
      3  CHC       11.0830    4.5420   24.2060 C.2   618  HEM618      0.0000
      4  CHD       10.9150   -0.2050   24.4520 C.2   618  HEM618      0.0000
      5  C1A        8.8910    1.5330   29.1680 C.2   618  HEM618      0.0000
      6  C2A        8.3050    2.0760   30.4010 C.2   618  HEM618      0.0000
      7  C3A        8.4250    3.3690   30.3270 C.2   618  HEM618      0.0000
      8  C4A        9.1030    3.6960   29.0940 C.2   618  HEM618      0.0000
      9  CMA        7.9330    4.3490   31.3980 C.3   618  HEM618      0.0000
     10  CAA        7.6490    1.2630   31.5110 C.3   618  HEM618      0.0000
     11  CBA        8.8360    0.6910   32.2660 C.3   618  HEM618      0.0000
     12  CGA        8.3730   -0.1210   33.3980 C.2   618  HEM618      0.0000
     13  O1A        7.5420    0.4110   34.1610 O.co2 618  HEM618      0.0000
     14  O2A        8.8320   -1.2890   33.5390 O.co2 618  HEM618      0.0000
     15  C1B        9.8280    5.3190   27.3800 C.ar  618  HEM618      0.0000
     16  C2B        9.8680    6.6260   26.7870 C.ar  618  HEM618      0.0000
     17  C3B       10.3320    6.4730   25.5350 C.ar  618  HEM618      0.0000
     18  C4B       10.5450    5.0850   25.3320 C.ar  618  HEM618      0.0000
     19  CMB        9.5070    7.9540   27.4450 C.3   618  HEM618      0.0000
     20  CAB       10.5710    7.5690   24.4480 C.2   618  HEM618      0.0000
     21  CBB       11.0450    8.8070   24.7340 C.2   618  HEM618      0.0000
     22  C1C       11.2260    3.2270   23.8870 C.2   618  HEM618      0.0000
     23  C2C       11.8670    2.7350   22.6920 C.2   618  HEM618      0.0000
     24  C3C       11.8450    1.3970   22.7720 C.2   618  HEM618      0.0000
     25  C4C       11.1670    1.0710   24.0140 C.2   618  HEM618      0.0000
     26  CMC       12.5330    3.5770   21.5370 C.3   618  HEM618      0.0000
     27  CAC       12.3960    0.3880   21.7400 C.2   618  HEM618      0.0000
     28  CBC       12.8930    0.7130   20.5450 C.2   618  HEM618      0.0000
     29  C1D       10.2530   -0.5030   25.6480 C.ar  618  HEM618      0.0000
     30  C2D        9.7500   -1.8120   25.9620 C.ar  618  HEM618      0.0000
     31  C3D        9.0870   -1.6720   27.3160 C.ar  618  HEM618      0.0000
     32  C4D        9.3530   -0.3050   27.6670 C.ar  618  HEM618      0.0000
     33  CMD        9.7630   -3.0960   25.1840 C.3   618  HEM618      0.0000
     34  CAD        8.3890   -2.7990   28.1220 C.3   618  HEM618      0.0000
     35  CBD        6.8980   -2.8360   27.6650 C.3   618  HEM618      0.0000
     36  CGD        6.2430   -4.0810   28.1790 C.2   618  HEM618      0.0000
     37  O1D        6.0890   -5.0540   27.3930 O.co2 618  HEM618      0.0000
     38  O2D        5.9140   -4.1240   29.3910 O.co2 618  HEM618      0.0000
     39  NA         9.3950    2.5440   28.3930 N.2   618  HEM618      0.0000
     40  NB        10.2490    4.3960   26.4690 N.ar  618  HEM618      0.0000
     41  NC        10.8050    2.1990   24.6950 N.2   618  HEM618      0.0000
     42  ND        10.0040    0.3630   26.6860 N.ar  618  HEM618      0.0000
     43 FE         10.1630    2.3640   26.5690 Fe    618  HEM618      0.0000
@<TRIPOS>BOND
     1    28    27    2
     2    26    23    1
     3    27    24    1
     4    23    24    2
     5    23    22    1
     6    24    25    1
     7    22     3    2
     8    22    41    1
     9    25     4    1
    10    25    41    2
    11     3    18    1
    12    20    21    2
    13    20    17    1
    14     4    29    2
    15    41    43    1
    16    33    30    1
    17    18    17   ar
    18    18    40   ar
    19    17    16   ar
    20    29    30   ar
    21    29    42   ar
    22    30    31   ar
    23    40    43    1
    24    40    15   ar
    25    43    42    1
    26    43    39    1
    27    42    32   ar
    28    16    15   ar
    29    16    19    1
    30    31    32   ar
    31    31    34    1
    32    15     2    1
    33    37    36   ar
    34    35    34    1
    35    35    36    1
    36    32     1    2
    37    36    38   ar
    38    39     8    1
    39    39     5    2
    40     2     8    2
    41     1     5    1
    42     8     7    1
    43     5     6    1
    44     7     6    2
    45     7     9    1
    46     6    10    1
    47    10    11    1
    48    11    12    1
    49    12    14   ar
    50    12    13   ar
