@<TRIPOS>MOLECULE
3qf4_ANP_A_1.pdb
 31 33 0 0 0
SMALL
GASTEIGER

@<TRIPOS>ATOM
      1  PG       -81.3310   16.6880   48.6500 P.3   578  ANP578      0.4884
      2  O1G      -79.8510   16.5250   48.8810 O.3   578  ANP578     -0.1240
      3  O2G      -82.1790   16.5160   49.8870 O.3   578  ANP578     -0.1240
      4  O3G      -81.8440   15.9310   47.4470 O.2   578  ANP578     -0.2331
      5  PB       -80.9580   19.6780   49.1850 P.3   578  ANP578      0.4669
      6  O1B      -82.1620   20.4910   49.5870 O.2   578  ANP578     -0.2351
      7  O2B      -80.0610   19.1470   50.2780 O.3   578  ANP578     -0.1253
      8  N3B      -81.5130   18.3610   48.1770 N.3   578  ANP578     -0.0163
      9  PA       -78.7160   21.3210   48.5190 P.3   578  ANP578      0.2220
     10  O1A      -78.8530   22.0920   49.8110 O.3   578  ANP578     -0.4370
     11  O2A      -77.6110   20.3020   48.3650 O.2   578  ANP578     -0.5170
     12  O3A      -80.1000   20.5800   48.1570 O.3   578  ANP578     -0.2360
     13  O5'      -78.5390   22.3550   47.2950 O.3   578  ANP578     -0.3111
     14  C5'      -79.5300   23.3150   46.9360 C.3   578  ANP578      0.1813
     15  C4'      -79.2320   23.8100   45.5220 C.3   578  ANP578      0.1821
     16  O4'      -77.8580   24.1810   45.4080 O.3   578  ANP578     -0.3135
     17  C3'      -79.4870   22.7540   44.4610 C.3   578  ANP578      0.2184
     18  O3'      -80.1320   23.3610   43.3380 O.3   578  ANP578     -0.2174
     19  C2'      -78.1210   22.2710   44.0360 C.3   578  ANP578      0.2570
     20  O2'      -78.1160   22.0640   42.6240 O.3   578  ANP578     -0.2130
     21  C1'      -77.1900   23.4090   44.4030 C.3   578  ANP578      0.3186
     22  N9       -75.9140   22.9150   44.9700 N.pl3 578  ANP578     -0.1439
     23  C8       -75.7870   22.0470   45.9890 C.3   578  ANP578      0.3377
     24  N7       -74.4820   21.8230   46.2820 N.2   578  ANP578     -0.2095
     25  C5       -73.7480   22.5690   45.4380 C.2   578  ANP578      0.2526
     26  C6       -72.3050   22.8030   45.2050 C.2   578  ANP578      0.4393
     27  N6       -71.3710   22.1740   45.9550 N.pl3 578  ANP578      0.2180
     28  N1       -71.9570   23.6620   44.2230 N.2   578  ANP578      0.0021
     29  C2       -72.8820   24.2910   43.4750 C.3   578  ANP578      0.5254
     30  N3       -74.2090   24.1280   43.6310 N.2   578  ANP578     -0.0055
     31  C4       -74.6960   23.2940   44.5810 C.2   578  ANP578      0.3518
@<TRIPOS>BOND
     1    20    19    1
     2    18    17    1
     3    29    30    1
     4    29    28    1
     5    30    31    2
     6    19    21    1
     7    19    17    1
     8    28    26    2
     9    21    22    1
    10    21    16    1
    11    17    15    1
    12    31    22    1
    13    31    25    1
    14    22    23    1
    15    26    25    1
    16    26    27    1
    17    16    15    1
    18    25    24    2
    19    15    14    1
    20    23    24    1
    21    14    13    1
    22    13     9    1
    23     4     1    2
    24    12     9    1
    25    12     5    1
    26     8     1    1
    27     8     5    1
    28    11     9    2
    29     9    10    1
    30     1     2    1
    31     1     3    1
    32     5     6    2
    33     5     7    1
