@<TRIPOS>MOLECULE
3qf7_ANP_A_1.pdb
 31 33 0 0 0
SMALL
GASTEIGER

@<TRIPOS>ATOM
      1  PG       -16.7310  -44.3210   17.1760 P.3   853  ANP853      0.4884
      2  O1G      -15.5410  -43.4200   17.4930 O.2   853  ANP853     -0.2331
      3  O2G      -16.5930  -45.6980   17.9040 O.3   853  ANP853     -0.1240
      4  O3G      -17.9690  -43.6430   17.5650 O.3   853  ANP853     -0.1240
      5  PB       -16.1150  -44.1050   14.2860 P.3   853  ANP853      0.4669
      6  O1B      -17.1420  -43.8140   13.1390 O.2   853  ANP853     -0.2351
      7  O2B      -15.2080  -42.8960   14.4960 O.3   853  ANP853     -0.1253
      8  N3B      -16.8840  -44.7740   15.5700 N.3   853  ANP853     -0.0163
      9  PA       -13.7600  -45.2270   12.9330 P.3   853  ANP853      0.2220
     10  O1A      -13.8650  -44.3440   11.7450 O.2   853  ANP853     -0.5170
     11  O2A      -12.7170  -44.8740   13.8790 O.3   853  ANP853     -0.4370
     12  O3A      -15.2440  -45.3060   13.6880 O.3   853  ANP853     -0.2360
     13  O5'      -13.5050  -46.7050   12.4900 O.3   853  ANP853     -0.3111
     14  C5'      -14.2980  -47.3070   11.5300 C.3   853  ANP853      0.1813
     15  C4'      -14.0630  -48.7340   11.3170 C.3   853  ANP853      0.1821
     16  O4'      -12.8000  -48.9350   10.6050 O.3   853  ANP853     -0.3135
     17  C3'      -13.9350  -49.4720   12.6030 C.3   853  ANP853      0.2184
     18  O3'      -14.6960  -50.6800   12.5420 O.3   853  ANP853     -0.2174
     19  C2'      -12.4930  -49.7620   12.7040 C.3   853  ANP853      0.2570
     20  O2'      -12.2120  -50.9020   13.5050 O.3   853  ANP853     -0.2130
     21  C1'      -12.1340  -49.9840   11.2750 C.3   853  ANP853      0.3186
     22  N9       -10.7190  -50.0180   10.8640 N.pl3 853  ANP853     -0.1439
     23  C8        -9.6500  -49.4790   11.4990 C.3   853  ANP853      0.3377
     24  N7        -8.5700  -49.6780   10.7540 N.2   853  ANP853     -0.2095
     25  C5        -8.9320  -50.3340    9.6260 C.2   853  ANP853      0.2526
     26  C6        -8.2680  -50.8210    8.5050 C.2   853  ANP853      0.4393
     27  N6        -6.9280  -50.5740    8.3110 N.pl3 853  ANP853      0.2180
     28  N1        -8.9710  -51.4720    7.5540 N.2   853  ANP853      0.0021
     29  C2       -10.2790  -51.6610    7.6560 C.3   853  ANP853      0.5254
     30  N3       -10.9650  -51.2220    8.7180 N.2   853  ANP853     -0.0055
     31  C4       -10.2910  -50.5580    9.7060 C.2   853  ANP853      0.3518
@<TRIPOS>BOND
     1    28    29    1
     2    28    26    2
     3    29    30    1
     4    27    26    1
     5    26    25    1
     6    30    31    2
     7    25    31    1
     8    25    24    2
     9    31    22    1
    10    16    21    1
    11    16    15    1
    12    24    23    1
    13    22    21    1
    14    22    23    1
    15    21    19    1
    16    15    14    1
    17    15    17    1
    18    14    13    1
    19    10     9    2
    20    13     9    1
    21    18    17    1
    22    17    19    1
    23    19    20    1
    24     9    12    1
    25     9    11    1
    26     6     5    2
    27    12     5    1
    28     5     7    1
    29     5     8    1
    30     8     1    1
    31     1     2    2
    32     1     4    1
    33     1     3    1
