@<TRIPOS>MOLECULE
3qf9_NM8_A_1.pdb
 26 29 0 0 0
SMALL
GASTEIGER

@<TRIPOS>ATOM
      1  CAA      -22.2090   39.9910   -1.9580 C.ar  313  NM8313      0.0002
      2  CAB      -21.5870   39.3950   -3.0730 C.ar  313  NM8313      0.0045
      3  CAC      -20.5820   38.4140   -2.8110 C.ar  313  NM8313      0.0002
      4  CAD      -20.2240   38.0450   -1.4880 C.ar  313  NM8313      0.0030
      5  CAE      -20.8850   38.6240   -0.3980 C.ar  313  NM8313      0.0346
      6  CAF      -21.8350   39.6370   -0.6400 C.ar  313  NM8313      0.0030
      7  CAG      -20.5080   38.3710    0.9170 C.ar  313  NM8313      0.1453
      8  CAH      -20.8710   39.0720    2.0150 C.ar  313  NM8313      0.0406
      9  CAI      -20.2030   38.6090    3.0610 C.ar  313  NM8313      0.0407
     10  CAJ      -19.4040   37.6440    2.5800 C.ar  313  NM8313      0.1467
     11  OAK      -19.5370   37.4670    1.2440 O.2   313  NM8313     -0.4535
     12  CAL      -18.5140   36.9360    3.3510 C.2   313  NM8313      0.0575
     13  CAM      -17.8090   35.9130    2.7870 C.2   313  NM8313      0.1395
     14  CAN      -16.7410   35.2650    3.4340 C.1   313  NM8313      0.2224
     15  NAO      -16.2140   34.2690    2.6970 N.2   313  NM8313     -0.2516
     16  CAP      -16.8150   34.1380    1.5020 C.1   313  NM8313      0.2492
     17  SAQ      -18.0610   35.2890    1.1930 S.3   313  NM8313      0.0318
     18  OAR      -16.3360   35.5620    4.5690 O.2   313  NM8313     -0.2080
     19  OAS      -16.4790   33.3210    0.6710 O.2   313  NM8313     -0.2014
     20  CAT      -21.9240   39.7480   -4.4240 C.ar  313  NM8313      0.0567
     21  CAU      -21.2510   39.0860   -5.4670 C.ar  313  NM8313      0.0046
     22  CAV      -20.2690   38.1190   -5.2100 C.ar  313  NM8313      0.0001
     23  CAW      -19.9360   37.7810   -3.8850 C.ar  313  NM8313      0.0000
     24  CAX      -22.9880   40.8370   -4.8310 C.2   313  NM8313      0.2842
     25  OAY      -23.9810   41.0920   -4.1270 O.2   313  NM8313     -0.2667
     26  NAZ      -22.6760   41.5670   -5.9460 N.am  313  NM8313     -0.0837
@<TRIPOS>BOND
     1    26    24   am
     2    21    22   ar
     3    21    20   ar
     4    22    23   ar
     5    24    20    1
     6    24    25    2
     7    20     2   ar
     8    23     3   ar
     9     2     3   ar
    10     2     1   ar
    11     3     4   ar
    12     1     6   ar
    13     4     5   ar
    14     6     5   ar
    15     5     7    1
    16    19    16    2
    17     7    11   ar
    18     7     8   ar
    19    17    16    1
    20    17    13    1
    21    11    10   ar
    22    16    15    2
    23     8     9   ar
    24    10     9   ar
    25    10    12    1
    26    15    14    2
    27    13    12    2
    28    13    14    1
    29    14    18    2
