@<TRIPOS>MOLECULE
3qfc_NAP_A_1.pdb
 31 33 0 0 0
SMALL
GASTEIGER

@<TRIPOS>ATOM
      1  PA        -0.4410    7.5820    2.3190 P.3   753  NAP753      0.2231
      2  O1A       -0.1030    8.8400    3.0460 O.3   753  NAP753     -0.4370
      3  O2A       -1.0490    7.7740    0.9830 O.2   753  NAP753     -0.5169
      4  O5B        0.8260    6.8300    2.1470 O.3   753  NAP753     -0.3111
      5  C5B        1.6060    6.2350    3.2010 C.3   753  NAP753      0.1813
      6  C4B        3.0830    6.2720    2.8450 C.3   753  NAP753      0.1820
      7  O4B        3.2660    5.3660    1.7250 O.3   753  NAP753     -0.3136
      8  C3B        3.5590    7.6630    2.3540 C.3   753  NAP753      0.2157
      9  O3B        4.7900    8.0820    2.9650 O.3   753  NAP753     -0.2175
     10  C2B        3.6820    7.4800    0.8620 C.3   753  NAP753      0.2314
     11  O2B        4.5870    8.3890    0.2050 O.3   753  NAP753     -0.2630
     12  C1B        4.1140    6.0240    0.8040 C.3   753  NAP753      0.3158
     13  N9A        4.0200    5.4490   -0.4470 N.pl3 753  NAP753     -0.1439
     14  C8A        3.3850    5.7810   -1.6650 C.3   753  NAP753      0.3377
     15  N7A        3.4890    4.9900   -2.7770 N.2   753  NAP753     -0.2095
     16  C5A        4.3010    4.0090   -2.2090 C.2   753  NAP753      0.2526
     17  C6A        4.8750    2.7900   -2.7710 C.2   753  NAP753      0.4393
     18  N6A        4.6790    2.4310   -4.0220 N.pl3 753  NAP753      0.2180
     19  N1A        5.6400    1.9810   -2.0170 N.2   753  NAP753      0.0021
     20  C2A        5.9250    2.2420   -0.7000 C.3   753  NAP753      0.5254
     21  N3A        5.4770    3.3270   -0.0340 N.2   753  NAP753     -0.0055
     22  C4A        4.6200    4.2750   -0.8050 C.2   753  NAP753      0.3518
     23  O3        -1.1910    6.6280    3.2050 O.3   753  NAP753     -0.2261
     24  PN        -2.6650    6.8130    3.6610 P.3   753  NAP753      0.5373
     25  O1N       -3.3910    6.7200    2.3630 O.2   753  NAP753     -0.2221
     26  O2N       -2.9580    8.1710    4.1970 O.3   753  NAP753     -0.1143
     27  O5D       -3.0330    5.7220    4.6210 O.3   753  NAP753     -0.1143
     28  P2B        4.1660    9.4910   -0.9070 P.3   753  NAP753      0.5328
     29  O1X        2.6300    9.9330   -0.6770 O.3   753  NAP753     -0.1145
     30  O2X        4.3500    8.8590   -2.3490 O.2   753  NAP753     -0.2224
     31  O3X        5.1180   10.7320   -0.6700 O.3   753  NAP753     -0.1145
@<TRIPOS>BOND
     1    18    17    1
     2    15    16    2
     3    15    14    1
     4    17    16    1
     5    17    19    2
     6    30    28    2
     7    16    22    1
     8    19    20    1
     9    14    13    1
    10    28    29    1
    11    28    31    1
    12    28    11    1
    13    22    13    1
    14    22    21    2
    15    20    21    1
    16    13    12    1
    17    11    10    1
    18    12    10    1
    19    12     7    1
    20    10     8    1
    21     3     1    2
    22     7     6    1
    23     4     1    1
    24     4     5    1
    25     1     2    1
    26     1    23    1
    27     8     6    1
    28     8     9    1
    29    25    24    2
    30     6     5    1
    31    23    24    1
    32    24    26    1
    33    24    27    1
