@<TRIPOS>MOLECULE
3qfc_FMN_A_1.pdb
 31 33 0 0 0
SMALL
GASTEIGER

@<TRIPOS>ATOM
      1  N1       -10.3240  -10.2350   -5.7330 N.2   751  FMN751     -0.2890
      2  C2        -9.4970  -11.1950   -6.2330 C.1   751  FMN751      0.3669
      3  O2        -9.3990  -11.3410   -7.4360 O.2   751  FMN751     -0.1744
      4  N3        -8.7860  -11.9750   -5.3600 N.2   751  FMN751     -0.2300
      5  C4        -8.8380  -11.8640   -3.9650 C.1   751  FMN751      0.2513
      6  O4        -8.1140  -12.6640   -3.3580 O.2   751  FMN751     -0.2057
      7  C4A       -9.7100  -10.8440   -3.4060 C.2   751  FMN751      0.2700
      8  N5        -9.7680  -10.7080   -2.0050 N.2   751  FMN751     -0.3878
      9  C5A      -10.6090   -9.7150   -1.5410 C.2   751  FMN751      0.1320
     10  C6       -10.6600   -9.5740   -0.0930 C.2   751  FMN751      0.0250
     11  C7       -11.4680   -8.6060    0.5260 C.2   751  FMN751     -0.0238
     12  C7M      -11.4330   -8.5660    2.0640 C.3   751  FMN751      0.0308
     13  C8       -12.3050   -7.6900   -0.2950 C.2   751  FMN751     -0.0280
     14  C8M      -13.2300   -6.5970    0.2920 C.3   751  FMN751      0.0304
     15  C9       -12.2720   -7.8080   -1.6800 C.2   751  FMN751     -0.0041
     16  C9A      -11.4360   -8.8100   -2.3570 C.3   751  FMN751      0.1497
     17  N10      -11.3360   -9.0020   -3.8330 N.pl3 751  FMN751     -0.2691
     18  C10      -10.4350  -10.0570   -4.3790 C.2   751  FMN751      0.2416
     19  C1'      -12.1150   -8.1460   -4.7090 C.3   751  FMN751      0.1294
     20  C2'      -13.6090   -8.5750   -4.9220 C.3   751  FMN751      0.2044
     21  O2'      -13.6460   -9.9370   -5.4070 O.3   751  FMN751     -0.2185
     22  C3'      -14.3380   -7.5740   -5.8270 C.3   751  FMN751      0.2164
     23  O3'      -14.3480   -6.3200   -5.1000 O.3   751  FMN751     -0.2175
     24  C4'      -15.8120   -8.0430   -6.0790 C.3   751  FMN751      0.2147
     25  O4'      -16.3810   -7.0070   -6.9520 O.3   751  FMN751     -0.2176
     26  C5'      -16.6630   -8.0730   -4.8430 C.3   751  FMN751      0.1892
     27  O5'      -18.0100   -8.5890   -5.1210 O.3   751  FMN751     -0.2674
     28  P        -19.1630   -8.5290   -4.0680 P.3   751  FMN751      0.5327
     29  O1P      -19.6180   -7.1070   -3.8690 O.3   751  FMN751     -0.1145
     30  O2P      -18.7670   -9.2510   -2.8370 O.3   751  FMN751     -0.1145
     31  O3P      -20.2640   -9.2300   -4.7800 O.2   751  FMN751     -0.2224
@<TRIPOS>BOND
     1     3     2    2
     2    25    24    1
     3     2     1    2
     4     2     4    2
     5    24    22    1
     6    24    26    1
     7    22    23    1
     8    22    20    1
     9     1    18    2
    10    21    20    1
    11     4     5    2
    12    27    26    1
    13    27    28    1
    14    20    19    1
    15    31    28    2
    16    19    17    1
    17    18    17    1
    18    18     7    1
    19    28    29    1
    20    28    30    1
    21     5     7    1
    22     5     6    2
    23    17    16    1
    24     7     8    2
    25    16    15    1
    26    16     9    1
    27     8     9    2
    28    15    13    2
    29     9    10    1
    30    13    14    1
    31    13    11    1
    32    10    11    2
    33    11    12    1
