@<TRIPOS>MOLECULE
3qff_ADP_A_1.pdb
 27 29 0 0 0
SMALL
GASTEIGER

@<TRIPOS>ATOM
      1  PB        -9.5290    6.2200   -9.2710 P.3   400  ADP400      0.5373
      2  O1B      -10.6590    5.3620   -9.7910 O.2   400  ADP400     -0.2221
      3  O2B       -9.9940    7.2820   -8.2980 O.3   400  ADP400     -0.1143
      4  O3B       -8.3360    5.4190   -8.8060 O.3   400  ADP400     -0.1143
      5  PA        -7.6060    7.7540  -10.8380 P.3   400  ADP400      0.2231
      6  O1A       -6.5880    7.2780   -9.8220 O.3   400  ADP400     -0.4370
      7  O2A       -7.8220    9.2330  -11.0620 O.2   400  ADP400     -0.5169
      8  O3A       -9.0470    7.0540  -10.5790 O.3   400  ADP400     -0.2261
      9  O5'       -7.1870    7.1490  -12.2670 O.3   400  ADP400     -0.3111
     10  C5'       -7.2120    5.7390  -12.4790 C.3   400  ADP400      0.1813
     11  C4'       -6.0650    5.3480  -13.3980 C.3   400  ADP400      0.1821
     12  O4'       -6.1930    6.0490  -14.6370 O.3   400  ADP400     -0.3135
     13  C3'       -4.7130    5.7320  -12.8170 C.3   400  ADP400      0.2184
     14  O3'       -4.1100    4.6260  -12.1390 O.3   400  ADP400     -0.2174
     15  C2'       -3.9020    6.1740  -14.0190 C.3   400  ADP400      0.2570
     16  O2'       -3.1230    5.0790  -14.5090 O.3   400  ADP400     -0.2130
     17  C1'       -4.9280    6.5570  -15.0740 C.3   400  ADP400      0.3186
     18  N9        -4.9910    8.0390  -15.2130 N.pl3 400  ADP400     -0.1439
     19  C8        -5.8180    8.8640  -14.5360 C.3   400  ADP400      0.3377
     20  N7        -5.6260   10.1580  -14.8950 N.2   400  ADP400     -0.2095
     21  C5        -4.6580   10.1800  -15.8260 C.2   400  ADP400      0.2526
     22  C6        -3.9690   11.2240  -16.6270 C.2   400  ADP400      0.4393
     23  N6        -4.2900   12.5360  -16.4990 N.pl3 400  ADP400      0.2180
     24  N1        -3.0060   10.8150  -17.4910 N.2   400  ADP400      0.0021
     25  C2        -2.6720    9.5180  -17.6310 C.3   400  ADP400      0.5254
     26  N3        -3.2560    8.5250  -16.9370 N.2   400  ADP400     -0.0055
     27  C4        -4.2410    8.7830  -16.0370 C.2   400  ADP400      0.3518
@<TRIPOS>BOND
     1    25    24    1
     2    25    26    1
     3    24    22    2
     4    26    27    2
     5    22    23    1
     6    22    21    1
     7    27    21    1
     8    27    18    1
     9    21    20    2
    10    18    17    1
    11    18    19    1
    12    17    12    1
    13    17    15    1
    14    20    19    1
    15    12    11    1
    16    16    15    1
    17    15    13    1
    18    11    13    1
    19    11    10    1
    20    13    14    1
    21    10     9    1
    22     9     5    1
    23     7     5    2
    24     5     8    1
    25     5     6    1
    26     8     1    1
    27     2     1    2
    28     1     4    1
    29     1     3    1
