@<TRIPOS>MOLECULE
3qfk_AKG_A_1.pdb
 10 9 0 0 0
SMALL
GASTEIGER

@<TRIPOS>ATOM
      1  C1        -2.6590   42.8170   23.4190 C.2   514  AKG514      0.4219
      2  O1        -2.8330   42.7770   22.1840 O.co2 514  AKG514     -0.2373
      3  O2        -1.5160   42.9520   23.9020 O.co2 514  AKG514     -0.2373
      4  C2        -3.8010   42.6980   24.3370 C.2   514  AKG514      0.2526
      5  O5        -3.5730   42.4150   25.4990 O.2   514  AKG514     -0.2843
      6  C3        -5.2330   42.9000   23.8650 C.3   514  AKG514      0.0881
      7  C4        -6.1420   43.5000   24.9450 C.3   514  AKG514      0.1224
      8  C5        -7.3480   42.6260   25.2080 C.2   514  AKG514      0.3653
      9  O3        -8.4950   43.0820   25.0130 O.co2 514  AKG514     -0.2456
     10  O4        -7.1610   41.4700   25.6270 O.co2 514  AKG514     -0.2456
@<TRIPOS>BOND
     1     2     1   ar
     2     1     3   ar
     3     1     4    1
     4     6     4    1
     5     6     7    1
     6     4     5    2
     7     7     8    1
     8     9     8   ar
     9     8    10   ar
