@<TRIPOS>MOLECULE
3qfo_AMP_A_1.pdb
 23 25 0 0 0
SMALL
GASTEIGER

@<TRIPOS>ATOM
      1  P         -9.3290    1.0570   -0.6270 P.3   263  AMP263      0.5327
      2  O1P       -9.0950   -0.4290   -0.6650 O.3   263  AMP263     -0.1145
      3  O2P       -8.3290    1.8410    0.1830 O.3   263  AMP263     -0.1145
      4  O3P       -9.5100    1.6010   -2.0230 O.2   263  AMP263     -0.2224
      5  O5'      -10.7700    1.2370    0.0820 O.3   263  AMP263     -0.2675
      6  C5'      -11.0240    2.1850    1.1150 C.3   263  AMP263      0.1860
      7  C4'      -12.0230    3.2410    0.6720 C.3   263  AMP263      0.1823
      8  O4'      -13.3160    2.6980    0.4210 O.3   263  AMP263     -0.3135
      9  C3'      -12.2760    4.2790    1.7560 C.3   263  AMP263      0.2184
     10  O3'      -11.2550    5.2760    1.8120 O.3   263  AMP263     -0.2174
     11  C2'      -13.5920    4.8840    1.3330 C.3   263  AMP263      0.2570
     12  O2'      -13.3490    5.9580    0.4120 O.3   263  AMP263     -0.2130
     13  C1'      -14.3010    3.7180    0.6490 C.3   263  AMP263      0.3186
     14  N9       -15.3860    3.2660    1.5570 N.pl3 263  AMP263     -0.1439
     15  C8       -15.2460    2.5260    2.6870 C.3   263  AMP263      0.3377
     16  N7       -16.4570    2.3180    3.2770 N.2   263  AMP263     -0.2095
     17  C5       -17.3890    2.9320    2.5230 C.2   263  AMP263      0.2526
     18  C6       -18.8630    3.1140    2.5780 C.2   263  AMP263      0.4393
     19  N6       -19.5850    2.5660    3.5860 N.pl3 263  AMP263      0.2180
     20  N1       -19.4530    3.8400    1.5930 N.2   263  AMP263      0.0021
     21  C2       -18.7460    4.3980    0.5820 C.3   263  AMP263      0.5254
     22  N3       -17.4010    4.2740    0.4740 N.2   263  AMP263     -0.0055
     23  C4       -16.6810    3.5620    1.3940 C.2   263  AMP263      0.3518
@<TRIPOS>BOND
     1     4     1    2
     2     2     1    1
     3     1     5    1
     4     1     3    1
     5     5     6    1
     6    12    11    1
     7     8    13    1
     8     8     7    1
     9    22    21    1
    10    22    23    2
    11    21    20    1
    12    13    11    1
    13    13    14    1
    14     7     6    1
    15     7     9    1
    16    11     9    1
    17    23    14    1
    18    23    17    1
    19    14    15    1
    20    20    18    2
    21     9    10    1
    22    17    18    1
    23    17    16    2
    24    18    19    1
    25    15    16    1
