@<TRIPOS>MOLECULE
3qfr_FMN_A_1.pdb
 31 33 0 0 0
SMALL
GASTEIGER

@<TRIPOS>ATOM
      1  N1         9.9430  -10.5690    6.0620 N.2   751  FMN751     -0.2890
      2  C2         9.1920  -11.5750    6.5830 C.1   751  FMN751      0.3669
      3  O2         9.0980  -11.7060    7.7850 O.2   751  FMN751     -0.1744
      4  N3         8.5550  -12.4210    5.7350 N.2   751  FMN751     -0.2300
      5  C4         8.5950  -12.3510    4.3470 C.1   751  FMN751      0.2513
      6  O4         7.9440  -13.2290    3.7850 O.2   751  FMN751     -0.2057
      7  C4A        9.3740  -11.2880    3.7540 C.2   751  FMN751      0.2700
      8  N5         9.4230  -11.1890    2.3460 N.2   751  FMN751     -0.3878
      9  C5A       10.1860  -10.1490    1.8550 C.2   751  FMN751      0.1320
     10  C6        10.2340  -10.0390    0.4120 C.2   751  FMN751      0.0250
     11  C7        10.9810   -9.0240   -0.2270 C.2   751  FMN751     -0.0238
     12  C7M       10.9510   -9.0260   -1.7680 C.3   751  FMN751      0.0308
     13  C8        11.7460   -8.0280    0.5930 C.2   751  FMN751     -0.0280
     14  C8M       12.6030   -6.8740    0.0290 C.3   751  FMN751      0.0304
     15  C9        11.7060   -8.1240    1.9670 C.2   751  FMN751     -0.0041
     16  C9A       10.9400   -9.1670    2.6500 C.3   751  FMN751      0.1497
     17  N10       10.8550   -9.3280    4.1230 N.pl3 751  FMN751     -0.2691
     18  C10       10.0330  -10.4260    4.7010 C.2   751  FMN751      0.2416
     19  C1'       11.5820   -8.4060    4.9640 C.3   751  FMN751      0.1294
     20  C2'       13.0730   -8.8680    5.1980 C.3   751  FMN751      0.2044
     21  O2'       13.0510  -10.2280    5.7450 O.3   751  FMN751     -0.2185
     22  C3'       13.8500   -7.8600    6.0600 C.3   751  FMN751      0.2164
     23  O3'       13.8600   -6.6020    5.3360 O.3   751  FMN751     -0.2175
     24  C4'       15.3210   -8.3660    6.3060 C.3   751  FMN751      0.2147
     25  O4'       15.9230   -7.3000    7.1380 O.3   751  FMN751     -0.2176
     26  C5'       16.1650   -8.5280    5.0500 C.3   751  FMN751      0.1892
     27  O5'       17.5120   -9.0450    5.3540 O.3   751  FMN751     -0.2674
     28  P         18.7750   -8.9910    4.3760 P.3   751  FMN751      0.5327
     29  O1P       19.2260   -7.5830    4.1970 O.3   751  FMN751     -0.1145
     30  O2P       18.4880   -9.7660    3.1500 O.2   751  FMN751     -0.2224
     31  O3P       19.8300   -9.6640    5.1770 O.3   751  FMN751     -0.1145
@<TRIPOS>BOND
     1    12    11    1
     2    11    10    2
     3    11    13    1
     4    14    13    1
     5    10     9    1
     6    13    15    2
     7     9     8    2
     8     9    16    1
     9    15    16    1
    10     8     7    2
    11    16    17    1
    12    30    28    2
    13     7     5    1
    14     7    18    1
    15     6     5    2
    16    17    18    1
    17    17    19    1
    18    29    28    1
    19     5     4    2
    20    28    31    1
    21    28    27    1
    22    18     1    2
    23    19    20    1
    24    26    27    1
    25    26    24    1
    26    20    21    1
    27    20    22    1
    28    23    22    1
    29     4     2    2
    30    22    24    1
    31     1     2    2
    32    24    25    1
    33     2     3    2
