@<TRIPOS>MOLECULE
3qfr_NAP_A_1.pdb
 31 33 0 0 0
SMALL
GASTEIGER

@<TRIPOS>ATOM
      1  PA         0.7150    6.8780   -2.8120 P.3   753  NAP753      0.2231
      2  O1A        0.5370    8.0450   -3.7400 O.2   753  NAP753     -0.5169
      3  O2A        1.3720    7.2240   -1.5220 O.3   753  NAP753     -0.4370
      4  O5B       -0.6390    6.3350   -2.5320 O.3   753  NAP753     -0.3111
      5  C5B       -1.5280    5.7260   -3.4960 C.3   753  NAP753      0.1813
      6  C4B       -2.9770    5.7480   -3.0200 C.3   753  NAP753      0.1820
      7  O4B       -3.0940    4.8630   -1.8700 O.3   753  NAP753     -0.3136
      8  C3B       -3.4530    7.1360   -2.5440 C.3   753  NAP753      0.2157
      9  O3B       -4.6950    7.5280   -3.1580 O.3   753  NAP753     -0.2175
     10  C2B       -3.5610    6.9720   -1.0440 C.3   753  NAP753      0.2314
     11  O2B       -4.4380    7.9090   -0.3610 O.3   753  NAP753     -0.2630
     12  C1B       -3.9820    5.4940   -0.9660 C.3   753  NAP753      0.3158
     13  N9A       -3.8760    4.9120    0.2960 N.pl3 753  NAP753     -0.1439
     14  C8A       -3.2070    5.2440    1.5000 C.3   753  NAP753      0.3377
     15  N7A       -3.2910    4.4660    2.6300 N.2   753  NAP753     -0.2095
     16  C5A       -4.1280    3.4890    2.0980 C.2   753  NAP753      0.2526
     17  C6A       -4.6990    2.2780    2.7010 C.2   753  NAP753      0.4393
     18  N6A       -4.4630    1.9370    3.9590 N.pl3 753  NAP753      0.2180
     19  N1A       -5.4980    1.4590    1.9770 N.2   753  NAP753      0.0021
     20  C2A       -5.8240    1.7030    0.6510 C.3   753  NAP753      0.5254
     21  N3A       -5.3830    2.7810   -0.0510 N.2   753  NAP753     -0.0055
     22  C4A       -4.4870    3.7420    0.6840 C.2   753  NAP753      0.3518
     23  O3         1.3600    5.7240   -3.5280 O.3   753  NAP753     -0.2261
     24  PN         2.8490    5.7460   -3.9930 P.3   753  NAP753      0.5373
     25  O1N        3.5500    5.4230   -2.7140 O.3   753  NAP753     -0.1143
     26  O2N        3.3290    7.1020   -4.3990 O.3   753  NAP753     -0.1143
     27  O5D        3.0580    4.7180   -5.0570 O.2   753  NAP753     -0.2221
     28  P2B       -3.9440    9.0700    0.6800 P.3   753  NAP753      0.5328
     29  O1X       -2.4210    9.5010    0.3460 O.2   753  NAP753     -0.2224
     30  O2X       -4.0330    8.5180    2.1760 O.3   753  NAP753     -0.1145
     31  O3X       -4.9230   10.3250    0.4840 O.3   753  NAP753     -0.1145
@<TRIPOS>BOND
     1    27    24    2
     2    26    24    1
     3    24    23    1
     4    24    25    1
     5     2     1    2
     6    23     1    1
     7     5     6    1
     8     5     4    1
     9     9     8    1
    10     6     8    1
    11     6     7    1
    12     1     4    1
    13     1     3    1
    14     8    10    1
    15     7    12    1
    16    10    12    1
    17    10    11    1
    18    12    13    1
    19    11    28    1
    20    21    20    1
    21    21    22    2
    22    13    22    1
    23    13    14    1
    24    29    28    2
    25    31    28    1
    26    20    19    1
    27    28    30    1
    28    22    16    1
    29    14    15    1
    30    19    17    2
    31    16    15    2
    32    16    17    1
    33    17    18    1
