@<TRIPOS>MOLECULE
3qfs_NAP_A_1.pdb
 31 33 0 0 0
SMALL
GASTEIGER

@<TRIPOS>ATOM
      1  PA        52.5510   26.0970   20.1020 P.3   753  NAP753      0.2231
      2  O1A       53.4330   25.1850   19.3180 O.2   753  NAP753     -0.5169
      3  O2A       52.2580   25.6290   21.4800 O.3   753  NAP753     -0.4370
      4  O5B       53.2410   27.4010   20.1790 O.3   753  NAP753     -0.3111
      5  C5B       53.5790   28.2380   19.0570 C.3   753  NAP753      0.1813
      6  C4B       54.8210   29.0610   19.3540 C.3   753  NAP753      0.1820
      7  O4B       54.4740   30.0040   20.3970 O.3   753  NAP753     -0.3136
      8  C3B       55.9910   28.2340   19.9000 C.3   753  NAP753      0.2157
      9  O3B       57.2290   28.6020   19.2820 O.3   753  NAP753     -0.2175
     10  C2B       55.9690   28.5310   21.3760 C.3   753  NAP753      0.2314
     11  O2B       57.2150   28.3140   22.0530 O.3   753  NAP753     -0.2630
     12  C1B       55.5250   29.9770   21.3470 C.3   753  NAP753      0.3158
     13  N9A       55.0850   30.4660   22.5570 N.pl3 753  NAP753     -0.1439
     14  C8A       54.7060   29.8970   23.7910 C.3   753  NAP753      0.3377
     15  N7A       54.3110   30.6670   24.8510 N.2   753  NAP753     -0.2095
     16  C5A       54.4490   31.9000   24.2290 C.2   753  NAP753      0.2526
     17  C6A       54.2180   33.2580   24.7180 C.2   753  NAP753      0.4393
     18  N6A       53.8090   33.5060   25.9490 N.pl3 753  NAP753      0.2180
     19  N1A       54.4230   34.3170   23.9150 N.2   753  NAP753      0.0021
     20  C2A       54.8540   34.1990   22.6130 C.3   753  NAP753      0.5254
     21  N3A       55.1170   33.0160   22.0120 N.2   753  NAP753     -0.0055
     22  C4A       54.9120   31.7880   22.8420 C.2   753  NAP753      0.3518
     23  O3        51.3300   26.4960   19.3170 O.3   753  NAP753     -0.2261
     24  PN        50.1420   25.5370   18.9780 P.3   753  NAP753      0.5373
     25  O1N       49.0500   26.0820   19.8450 O.3   753  NAP753     -0.1143
     26  O2N       50.3480   24.1300   19.4170 O.3   753  NAP753     -0.1143
     27  O5D       49.8170   25.6460   17.5240 O.2   753  NAP753     -0.2221
     28  P2B       57.4920   27.1890   23.1970 P.3   753  NAP753      0.5328
     29  O1X       56.4510   25.9700   23.0470 O.3   753  NAP753     -0.1145
     30  O2X       57.3550   27.8700   24.6130 O.3   753  NAP753     -0.1145
     31  O3X       58.9740   26.6760   22.9480 O.2   753  NAP753     -0.2224
@<TRIPOS>BOND
     1    27    24    2
     2    24    23    1
     3    24    26    1
     4    24    25    1
     5     5     6    1
     6     5     4    1
     7     9     8    1
     8    23     1    1
     9     2     1    2
    10     6     8    1
    11     6     7    1
    12     8    10    1
    13     1     4    1
    14     1     3    1
    15     7    12    1
    16    12    10    1
    17    12    13    1
    18    10    11    1
    19    21    20    1
    20    21    22    2
    21    11    28    1
    22    13    22    1
    23    13    14    1
    24    20    19    1
    25    22    16    1
    26    31    28    2
    27    29    28    1
    28    28    30    1
    29    14    15    1
    30    19    17    2
    31    16    17    1
    32    16    15    2
    33    17    18    1
