@<TRIPOS>MOLECULE
3qft_NAP_A_1.pdb
 31 33 0 0 0
SMALL
GASTEIGER

@<TRIPOS>ATOM
      1  PA        52.7150   26.0720   20.1100 P.3   753  NAP753      0.2231
      2  O1A       53.5480   25.1410   19.3000 O.2   753  NAP753     -0.5169
      3  O2A       52.4370   25.6170   21.4940 O.3   753  NAP753     -0.4370
      4  O5B       53.4430   27.3570   20.1810 O.3   753  NAP753     -0.3111
      5  C5B       53.7790   28.1990   19.0600 C.3   753  NAP753      0.1813
      6  C4B       55.0240   29.0190   19.3630 C.3   753  NAP753      0.1820
      7  O4B       54.6790   29.9780   20.3980 O.3   753  NAP753     -0.3136
      8  C3B       56.1860   28.1840   19.9280 C.3   753  NAP753      0.2157
      9  O3B       57.4340   28.5180   19.3080 O.3   753  NAP753     -0.2175
     10  C2B       56.1690   28.5120   21.3940 C.3   753  NAP753      0.2314
     11  O2B       57.4090   28.3070   22.0760 O.3   753  NAP753     -0.2630
     12  C1B       55.7330   29.9580   21.3460 C.3   753  NAP753      0.3158
     13  N9A       55.3150   30.4500   22.5600 N.pl3 753  NAP753     -0.1439
     14  C8A       54.9660   29.8810   23.8020 C.3   753  NAP753      0.3377
     15  N7A       54.5870   30.6460   24.8700 N.2   753  NAP753     -0.2095
     16  C5A       54.7020   31.8780   24.2460 C.2   753  NAP753      0.2526
     17  C6A       54.4670   33.2280   24.7440 C.2   753  NAP753      0.4393
     18  N6A       54.0770   33.4650   25.9840 N.pl3 753  NAP753      0.2180
     19  N1A       54.6450   34.2910   23.9450 N.2   753  NAP753      0.0021
     20  C2A       55.0520   34.1810   22.6340 C.3   753  NAP753      0.5254
     21  N3A       55.3130   33.0040   22.0200 N.2   753  NAP753     -0.0055
     22  C4A       55.1370   31.7730   22.8490 C.2   753  NAP753      0.3518
     23  O3        51.4880   26.5240   19.3600 O.3   753  NAP753     -0.2261
     24  PN        50.2320   25.6350   19.0520 P.3   753  NAP753      0.5373
     25  O1N       49.3230   26.0210   20.1860 O.3   753  NAP753     -0.1143
     26  O2N       50.4720   24.1680   19.1760 O.3   753  NAP753     -0.1143
     27  O5D       49.6740   26.0150   17.7170 O.2   753  NAP753     -0.2221
     28  P2B       57.6940   27.1800   23.2060 P.3   753  NAP753      0.5328
     29  O1X       56.6320   25.9760   23.0640 O.3   753  NAP753     -0.1145
     30  O2X       57.5900   27.8540   24.6260 O.3   753  NAP753     -0.1145
     31  O3X       59.1670   26.6550   22.9270 O.2   753  NAP753     -0.2224
@<TRIPOS>BOND
     1    27    24    2
     2    24    26    1
     3    24    23    1
     4    24    25    1
     5     5     6    1
     6     5     4    1
     7     2     1    2
     8     9     8    1
     9    23     1    1
    10     6     8    1
    11     6     7    1
    12     8    10    1
    13     1     4    1
    14     1     3    1
    15     7    12    1
    16    12    10    1
    17    12    13    1
    18    10    11    1
    19    21    20    1
    20    21    22    2
    21    11    28    1
    22    13    22    1
    23    13    14    1
    24    20    19    1
    25    22    16    1
    26    31    28    2
    27    29    28    1
    28    28    30    1
    29    14    15    1
    30    19    17    2
    31    16    17    1
    32    16    15    2
    33    17    18    1
