@<TRIPOS>MOLECULE
3qfu_ADP_A_1.pdb
 27 29 0 0 0
SMALL
GASTEIGER

@<TRIPOS>ATOM
      1  PB        21.6500   27.3980   13.6330 P.3   501  ADP501      0.5373
      2  O1B       22.1540   28.5070   12.7410 O.2   501  ADP501     -0.2221
      3  O2B       20.9280   27.8800   14.8600 O.3   501  ADP501     -0.1143
      4  O3B       20.9470   26.3030   12.8640 O.3   501  ADP501     -0.1143
      5  PA        23.2110   25.5830   15.2860 P.3   501  ADP501      0.2231
      6  O1A       24.5190   24.8950   14.9780 O.2   501  ADP501     -0.5169
      7  O2A       21.9460   24.7680   15.4600 O.3   501  ADP501     -0.4370
      8  O3A       23.0200   26.7220   14.1590 O.3   501  ADP501     -0.2261
      9  O5'       23.3970   26.4110   16.6500 O.3   501  ADP501     -0.3111
     10  C5'       24.5080   27.2880   16.8270 C.3   501  ADP501      0.1813
     11  C4'       24.6390   27.5790   18.3140 C.3   501  ADP501      0.1821
     12  O4'       24.9800   26.3810   19.0160 O.3   501  ADP501     -0.3135
     13  C3'       25.7340   28.5990   18.6100 C.3   501  ADP501      0.2184
     14  O3'       25.1970   29.5980   19.4800 O.3   501  ADP501     -0.2174
     15  C2'       26.7970   27.7940   19.3280 C.3   501  ADP501      0.2570
     16  O2'       27.5480   28.5540   20.2810 O.3   501  ADP501     -0.2130
     17  C1'       25.9610   26.7140   19.9920 C.3   501  ADP501      0.3186
     18  N9        26.8080   25.5670   20.3880 N.pl3 501  ADP501     -0.1439
     19  C8        27.5460   24.7790   19.5830 C.3   501  ADP501      0.3377
     20  N7        28.2100   23.8410   20.3040 N.2   501  ADP501     -0.2095
     21  C5        27.8890   24.0310   21.5970 C.2   501  ADP501      0.2526
     22  C6        28.2330   23.3990   22.8900 C.2   501  ADP501      0.4393
     23  N6        29.0820   22.3440   22.9360 N.pl3 501  ADP501      0.2180
     24  N1        27.6770   23.9120   24.0140 N.2   501  ADP501      0.0021
     25  C2        26.8360   24.9660   23.9880 C.3   501  ADP501      0.5254
     26  N3        26.4820   25.5910   22.8490 N.2   501  ADP501     -0.0055
     27  C4        26.9660   25.1760   21.6480 C.2   501  ADP501      0.3518
@<TRIPOS>BOND
     1     2     1    2
     2     4     1    1
     3     1     8    1
     4     1     3    1
     5     8     5    1
     6     6     5    2
     7     5     7    1
     8     5     9    1
     9     9    10    1
    10    10    11    1
    11    11    13    1
    12    11    12    1
    13    13    15    1
    14    13    14    1
    15    12    17    1
    16    15    17    1
    17    15    16    1
    18    19    20    1
    19    19    18    1
    20    17    18    1
    21    20    21    2
    22    18    27    1
    23    21    27    1
    24    21    22    1
    25    27    26    2
    26    26    25    1
    27    22    23    1
    28    22    24    2
    29    25    24    1
