@<TRIPOS>MOLECULE
3qfx_CP6_A_1.pdb
 17 18 0 0 0
SMALL
GASTEIGER

@<TRIPOS>ATOM
      1  N1       -21.8540   24.6870    7.1500 N.2   602  CP6602     -0.3112
      2  C2       -22.6600   23.7000    7.7340 C.1   602  CP6602      0.2419
      3  C3       -20.4650   24.6640    7.3240 C.2   602  CP6602      0.2201
      4  C4       -19.7890   23.5690    8.1460 C.3   602  CP6602      0.1421
      5  C5       -20.7980   22.5570    8.7340 C.2   602  CP6602      0.1122
      6  N6       -22.1620   22.6550    8.5120 N.2   602  CP6602     -0.3339
      7  C7       -18.3540   23.4550    8.3640 C.ar  602  CP6602     -0.0080
      8  C8       -17.6240   24.1240    9.4060 C.ar  602  CP6602     -0.0026
      9  C9       -16.2020   23.9550    9.5710 C.ar  602  CP6602      0.0111
     10  C10      -15.4560   23.0660    8.6460 C.ar  602  CP6602      0.0577
     11  C11      -16.1250   22.3780    7.5920 C.ar  602  CP6602      0.0111
     12  C12      -17.5570   22.5690    7.4520 C.ar  602  CP6602     -0.0026
     13  N13      -19.6990   25.6200    6.7570 N.pl3 602  CP6602     -0.0962
     14  N14      -24.0360   23.7490    7.5470 N.pl3 602  CP6602     -0.0232
     15  C15      -20.3160   21.4060    9.5830 C.3   602  CP6602      0.0563
     16  C16      -20.4580   20.0020    9.0360 C.3   602  CP6602      0.0075
     17 CL1       -13.8440   22.9460    8.9410 Cl    602  CP6602     -0.0822
@<TRIPOS>BOND
     1    13     3    1
     2     1     3    2
     3     1     2    2
     4     3     4    1
     5    12    11   ar
     6    12     7   ar
     7    14     2    1
     8    11    10   ar
     9     2     6    2
    10     4     7    1
    11     4     5    1
    12     7     8   ar
    13     6     5    2
    14    10    17    1
    15    10     9   ar
    16     5    15    1
    17    16    15    1
    18     8     9   ar
