@<TRIPOS>MOLECULE
3qfx_NDP_A_1.pdb
 48 52 0 0 0
SMALL
GASTEIGER

@<TRIPOS>ATOM
      1  PA       -11.5340   32.1900    9.8520 P.3   601  NDP601      0.2189
      2  O1A      -12.4620   33.1140    9.2130 O.2   601  NDP601     -0.5170
      3  O2A      -11.9240   30.8230    9.5320 O.3   601  NDP601     -0.4371
      4  O5B      -10.0780   32.4570    9.3290 O.3   601  NDP601     -0.3112
      5  C5B       -9.5490   33.7870    9.5840 C.3   601  NDP601      0.1813
      6  C4B       -8.1540   33.7160    8.9510 C.3   601  NDP601      0.1820
      7  O4B       -8.1660   33.4800    7.5370 O.3   601  NDP601     -0.3136
      8  C3B       -7.1270   34.8740    9.0770 C.3   601  NDP601      0.2157
      9  O3B       -6.5510   34.7530   10.4140 O.3   601  NDP601     -0.2175
     10  C2B       -6.2260   34.6330    7.8600 C.3   601  NDP601      0.2314
     11  O2B       -5.5110   33.5080    8.4210 O.3   601  NDP601     -0.2630
     12  C1B       -7.2730   34.2980    6.7940 C.3   601  NDP601      0.3158
     13  N9A       -7.8860   35.5190    6.2700 N.pl3 601  NDP601     -0.1439
     14  C8A       -9.0890   36.1440    6.4740 C.3   601  NDP601      0.3377
     15  N7A       -9.1650   37.2900    5.7160 N.2   601  NDP601     -0.2095
     16  C5A       -8.0030   37.3690    5.0400 C.2   601  NDP601      0.2526
     17  C6A       -7.4940   38.2680    4.1410 C.2   601  NDP601      0.4393
     18  N6A       -8.2050   39.3550    3.7660 N.pl3 601  NDP601      0.2180
     19  N1A       -6.2600   38.0490    3.6320 N.2   601  NDP601      0.0021
     20  C2A       -5.4800   36.9880    3.9500 C.3   601  NDP601      0.5254
     21  N3A       -5.9410   36.0880    4.8250 N.2   601  NDP601     -0.0055
     22  C4A       -7.2060   36.2690    5.3790 C.2   601  NDP601      0.3518
     23  O3       -11.4680   32.3590   11.4380 O.3   601  NDP601     -0.2703
     24  PN       -12.6270   32.8440   12.4240 P.3   601  NDP601      0.2189
     25  O1N      -13.2630   34.0820   11.9500 O.2   601  NDP601     -0.5170
     26  O2N      -12.0130   33.1070   13.7560 O.3   601  NDP601     -0.4371
     27  O5D      -13.7720   31.7150   12.5340 O.3   601  NDP601     -0.3112
     28  C5D      -13.2640   30.4180   13.0350 C.3   601  NDP601      0.1813
     29  C4D      -14.3870   29.8810   13.9940 C.3   601  NDP601      0.1799
     30  O4D      -15.6790   29.7460   13.3540 O.3   601  NDP601     -0.3327
     31  C3D      -14.1090   28.5060   14.6150 C.3   601  NDP601      0.2158
     32  O3D      -14.7680   28.5450   15.9160 O.3   601  NDP601     -0.2175
     33  C2D      -14.8230   27.5070   13.6710 C.3   601  NDP601      0.2309
     34  O2D      -15.2120   26.2890   14.3320 O.3   601  NDP601     -0.2158
     35  C1D      -16.0280   28.3310   13.2440 C.3   601  NDP601      0.2263
     36  N1N      -16.6770   28.0570   11.9150 N.pl3 601  NDP601     -0.2787
     37  C2N      -18.1590   27.7170   12.0150 C.3   601  NDP601      0.1244
     38  C3N      -18.8580   27.4620   10.8390 C.2   601  NDP601      0.0544
     39  C7N      -20.3500   27.1090   10.9030 C.2   601  NDP601      0.2818
     40  O7N      -20.9810   26.8810    9.8420 O.2   601  NDP601     -0.2670
     41  N7N      -20.9680   27.0430   12.0730 N.am  601  NDP601     -0.0839
     42  C4N      -18.1160   27.5370    9.5260 C.2   601  NDP601      0.0033
     43  C5N      -16.6440   27.8690    9.4690 C.2   601  NDP601      0.0157
     44  C6N      -15.9610   28.1160   10.6110 C.2   601  NDP601      0.0633
     45  P2B       -3.9720   33.6730    8.7320 P.3   601  NDP601      0.5328
     46  O1X       -3.3090   34.9130    8.1810 O.2   601  NDP601     -0.2224
     47  O2X       -3.9240   33.7860   10.2350 O.3   601  NDP601     -0.1145
     48  O3X       -3.2380   32.3850    8.4280 O.3   601  NDP601     -0.1145
@<TRIPOS>BOND
     1    19    20    1
     2    19    17    2
     3    18    17    1
     4    20    21    1
     5    17    16    1
     6    21    22    2
     7    16    22    1
     8    16    15    2
     9    22    13    1
    10    15    14    1
    11    13    14    1
    12    13    12    1
    13    12     7    1
    14    12    10    1
    15     7     6    1
    16    10    11    1
    17    10     8    1
    18    46    45    2
    19    11    45    1
    20    48    45    1
    21    45    47    1
    22     6     8    1
    23     6     5    1
    24     8     9    1
    25     2     1    2
    26     4     5    1
    27     4     1    1
    28    43    42    1
    29    43    44    2
    30    42    38    2
    31     3     1    1
    32    40    39    2
    33     1    23    1
    34    44    36    1
    35    38    39    1
    36    38    37    1
    37    39    41   am
    38    23    24    1
    39    36    37    1
    40    36    35    1
    41    25    24    2
    42    24    27    1
    43    24    26    1
    44    27    28    1
    45    28    29    1
    46    35    30    1
    47    35    33    1
    48    30    29    1
    49    33    34    1
    50    33    31    1
    51    29    31    1
    52    31    32    1
