@<TRIPOS>MOLECULE
3qfy_IFM_A_1.pdb
 10 10 0 0 0
SMALL
GASTEIGER

@<TRIPOS>ATOM
      1  O4        12.8150   42.3740   86.0380 O.3   1903  IFM1903    -0.2202
      2  C4        11.6720   42.8820   85.3420 C.3   1903  IFM1903     0.1874
      3  C3        12.1580   44.1980   84.7560 C.3   1903  IFM1903     0.1995
      4  O3        12.5540   45.0020   85.8530 O.3   1903  IFM1903    -0.2189
      5  C2        11.0630   44.8920   83.9300 C.3   1903  IFM1903     0.1241
      6  N         10.5560   43.9510   82.8790 N.3   1903  IFM1903    -0.2151
      7  C1        10.0680   42.6610   83.4050 C.3   1903  IFM1903     0.0940
      8  C5        11.1830   41.9710   84.1970 C.3   1903  IFM1903     0.0834
      9  C6        10.7160   40.5520   84.6230 C.3   1903  IFM1903     0.1861
     10  O6         9.4040   40.5890   85.1810 O.3   1903  IFM1903    -0.2203
@<TRIPOS>BOND
     1     6     7    1
     2     6     5    1
     3     7     8    1
     4     5     3    1
     5     8     9    1
     6     8     2    1
     7     9    10    1
     8     3     2    1
     9     3     4    1
    10     2     1    1
