@<TRIPOS>MOLECULE
3qfy_BGC_A_1.pdb
 12 12 0 0 0
SMALL
GASTEIGER

@<TRIPOS>ATOM
      1  C2         5.0160   43.3030   82.1550 C.3   1901  BGC1901     0.2434
      2  C3         6.4340   43.3680   82.6620 C.3   1901  BGC1901     0.2199
      3  C4         6.8510   44.8480   82.7380 C.3   1901  BGC1901     0.2144
      4  C5         5.9160   45.6860   83.5800 C.3   1901  BGC1901     0.1836
      5  C6         6.3510   47.1830   83.6540 C.3   1901  BGC1901     0.2142
      6  C1         4.1720   44.1880   83.1080 C.3   1901  BGC1901     0.3024
      7  O1         2.8240   44.1280   82.7220 O.3   1901  BGC1901    -0.1869
      8  O2         4.4900   41.9490   82.1440 O.3   1901  BGC1901    -0.2148
      9  O3         7.3600   42.6930   81.7980 O.3   1901  BGC1901    -0.2174
     10  O4         8.0910   44.9040   83.3810 O.3   1901  BGC1901    -0.2176
     11  O5         4.6180   45.5330   83.0150 O.3   1901  BGC1901    -0.3236
     12  O6         5.3780   47.8950   84.4030 O.3   1901  BGC1901    -0.2176
@<TRIPOS>BOND
     1     9     2    1
     2     8     1    1
     3     1     2    1
     4     1     6    1
     5     2     3    1
     6     7     6    1
     7     3    10    1
     8     3     4    1
     9    11     6    1
    10    11     4    1
    11     4     5    1
    12     5    12    1
