@<TRIPOS>MOLECULE
3qfz_NOJ_A_1.pdb
 11 11 0 0 0
SMALL
GASTEIGER

@<TRIPOS>ATOM
      1  C1        10.8350   43.9170   82.5760 C.3   1903  NOJ1903     0.1243
      2  C2        11.3620   44.9720   83.5590 C.3   1903  NOJ1903     0.2020
      3  O2        11.9690   46.0440   82.8080 O.3   1903  NOJ1903    -0.2188
      4  C3        12.2830   44.3900   84.6690 C.3   1903  NOJ1903     0.2151
      5  O3        12.5710   45.3870   85.6880 O.3   1903  NOJ1903    -0.2176
      6  C4        11.6850   43.1410   85.3430 C.3   1903  NOJ1903     0.2031
      7  O4        12.7260   42.6810   86.1960 O.3   1903  NOJ1903    -0.2187
      8  C5        11.2800   42.0950   84.2970 C.3   1903  NOJ1903     0.1386
      9  N5        10.3750   42.7380   83.3330 N.3   1903  NOJ1903    -0.2113
     10  C6        10.7430   40.7680   84.8180 C.3   1903  NOJ1903     0.2020
     11  O6         9.4190   40.9330   85.3150 O.3   1903  NOJ1903    -0.2188
@<TRIPOS>BOND
     1     1     9    1
     2     1     2    1
     3     3     2    1
     4     9     8    1
     5     2     4    1
     6     8    10    1
     7     8     6    1
     8     4     6    1
     9     4     5    1
    10    10    11    1
    11     6     7    1
