@<TRIPOS>MOLECULE
3qfz_BGC_A_1.pdb
 12 12 0 0 0
SMALL
GASTEIGER

@<TRIPOS>ATOM
      1  C2         5.2180   43.2170   82.4920 C.3   1901  BGC1901     0.2434
      2  C3         6.6560   43.1920   82.9980 C.3   1901  BGC1901     0.2199
      3  C4         7.1950   44.5930   83.1920 C.3   1901  BGC1901     0.2144
      4  C5         6.1900   45.4760   83.9450 C.3   1901  BGC1901     0.1836
      5  C6         6.5960   46.9970   83.9320 C.3   1901  BGC1901     0.2142
      6  C1         4.3510   44.0220   83.4590 C.3   1901  BGC1901     0.3024
      7  O1         3.0220   44.2180   83.0000 O.3   1901  BGC1901    -0.1869
      8  O2         4.7550   41.8750   82.3250 O.3   1901  BGC1901    -0.2148
      9  O3         7.4720   42.5590   82.0410 O.3   1901  BGC1901    -0.2174
     10  O4         8.3630   44.4570   84.0010 O.3   1901  BGC1901    -0.2176
     11  O5         4.8930   45.3490   83.4190 O.3   1901  BGC1901    -0.3236
     12  O6         5.6240   47.7360   84.7020 O.3   1901  BGC1901    -0.2176
@<TRIPOS>BOND
     1     9     2    1
     2     8     1    1
     3     1     2    1
     4     1     6    1
     5     2     3    1
     6     7     6    1
     7     3     4    1
     8     3    10    1
     9    11     6    1
    10    11     4    1
    11     5     4    1
    12     5    12    1
