@<TRIPOS>MOLECULE
3qg0_BGC_A_1.pdb
 12 12 0 0 0
SMALL
GASTEIGER

@<TRIPOS>ATOM
      1  C2         5.1790   43.0630   82.6180 C.3   1901  BGC1901     0.2434
      2  C3         6.6290   43.0230   83.0860 C.3   1901  BGC1901     0.2199
      3  C4         7.1880   44.3940   83.4560 C.3   1901  BGC1901     0.2144
      4  C5         6.1650   45.2530   84.1900 C.3   1901  BGC1901     0.1836
      5  C6         6.6210   46.7150   84.2670 C.3   1901  BGC1901     0.2142
      6  C1         4.3320   43.8670   83.5890 C.3   1901  BGC1901     0.3024
      7  O1         2.9590   43.9550   83.2190 O.3   1901  BGC1901    -0.1869
      8  O2         4.6850   41.7430   82.5650 O.3   1901  BGC1901    -0.2148
      9  O3         7.4620   42.4700   82.0710 O.3   1901  BGC1901    -0.2174
     10  O4         8.3010   44.1490   84.3100 O.3   1901  BGC1901    -0.2176
     11  O5         4.9050   45.1760   83.4810 O.3   1901  BGC1901    -0.3236
     12  O6         5.6720   47.5090   85.0030 O.3   1901  BGC1901    -0.2176
@<TRIPOS>BOND
     1     9     2    1
     2     8     1    1
     3     1     2    1
     4     1     6    1
     5     2     3    1
     6     7     6    1
     7     3     4    1
     8     3    10    1
     9    11     6    1
    10    11     4    1
    11     4     5    1
    12     5    12    1
