@<TRIPOS>MOLECULE
3qg0_NOJ_A_1.pdb
 11 11 0 0 0
SMALL
GASTEIGER

@<TRIPOS>ATOM
      1  C1        10.7800   43.5880   82.6710 C.3   1903  NOJ1903     0.1243
      2  C2        11.2070   44.6770   83.6570 C.3   1903  NOJ1903     0.2020
      3  O2        11.8070   45.7730   82.9560 O.3   1903  NOJ1903    -0.2188
      4  C3        12.1780   44.1440   84.7040 C.3   1903  NOJ1903     0.2151
      5  O3        12.4380   45.1580   85.6810 O.3   1903  NOJ1903    -0.2176
      6  C4        11.6070   42.9340   85.4000 C.3   1903  NOJ1903     0.2031
      7  O4        12.6160   42.4660   86.2670 O.3   1903  NOJ1903    -0.2187
      8  C5        11.2350   41.8550   84.3980 C.3   1903  NOJ1903     0.1386
      9  N5        10.3170   42.4550   83.4490 N.3   1903  NOJ1903    -0.2113
     10  C6        10.5900   40.6250   85.0380 C.3   1903  NOJ1903     0.2020
     11  O6         9.2950   40.9810   85.5700 O.3   1903  NOJ1903    -0.2188
@<TRIPOS>BOND
     1     1     9    1
     2     1     2    1
     3     3     2    1
     4     9     8    1
     5     2     4    1
     6     8    10    1
     7     8     6    1
     8     4     6    1
     9     4     5    1
    10    10    11    1
    11     6     7    1
