@<TRIPOS>MOLECULE
3qg2_NDP_A_1.pdb
 48 52 0 0 0
SMALL
GASTEIGER

@<TRIPOS>ATOM
      1  PA        34.3110    4.2230   68.7710 P.3   610  NDP610      0.2189
      2  O1A       35.3330    3.5720   67.9540 O.2   610  NDP610     -0.5170
      3  O2A       32.9870    4.2420   68.1430 O.3   610  NDP610     -0.4371
      4  O5B       34.1130    3.5380   70.1700 O.3   610  NDP610     -0.3112
      5  C5B       35.2870    3.3860   71.0130 C.3   610  NDP610      0.1813
      6  C4B       34.7030    2.7040   72.2570 C.3   610  NDP610      0.1820
      7  O4B       34.0240    1.4620   71.9850 O.3   610  NDP610     -0.3136
      8  C3B       35.6370    2.3410   73.4500 C.3   610  NDP610      0.2157
      9  O3B       35.8340    3.5280   74.2920 O.3   610  NDP610     -0.2175
     10  C2B       34.8780    1.1730   74.0860 C.3   610  NDP610      0.2314
     11  O2B       33.8000    1.9270   74.7010 O.3   610  NDP610     -0.2630
     12  C1B       34.4000    0.3930   72.8610 C.3   610  NDP610      0.3158
     13  N9A       35.4530   -0.4350   72.2470 N.pl3 610  NDP610     -0.1439
     14  C8A       36.2450   -0.3030   71.1270 C.3   610  NDP610      0.3377
     15  N7A       37.0810   -1.3940   71.0030 N.2   610  NDP610     -0.2095
     16  C5A       36.8100   -2.2060   72.0340 C.2   610  NDP610      0.2526
     17  C6A       37.3010   -3.4210   72.4380 C.2   610  NDP610      0.4393
     18  N6A       38.2690   -4.0670   71.7590 N.pl3 610  NDP610      0.2180
     19  N1A       36.7900   -3.9880   73.5580 N.2   610  NDP610      0.0021
     20  C2A       35.8120   -3.4160   74.3090 C.3   610  NDP610      0.5254
     21  N3A       35.3060   -2.2320   73.9520 N.2   610  NDP610     -0.0055
     22  C4A       35.7970   -1.6120   72.8110 C.2   610  NDP610      0.3518
     23  O3        34.7130    5.7240   69.1330 O.3   610  NDP610     -0.2703
     24  PN        35.4980    6.7900   68.2340 P.3   610  NDP610      0.2189
     25  O1N       36.8220    6.2400   67.8900 O.2   610  NDP610     -0.5170
     26  O2N       35.6410    8.0220   69.0770 O.3   610  NDP610     -0.4371
     27  O5D       34.6920    7.1430   66.8760 O.3   610  NDP610     -0.3112
     28  C5D       33.3270    7.7050   67.0940 C.3   610  NDP610      0.1813
     29  C4D       33.1950    9.0470   66.2740 C.3   610  NDP610      0.1799
     30  O4D       33.5870    8.8880   64.8900 O.3   610  NDP610     -0.3327
     31  C3D       31.7800    9.6410   66.2350 C.3   610  NDP610      0.2158
     32  O3D       31.9460   11.0870   66.1520 O.3   610  NDP610     -0.2175
     33  C2D       31.1670    9.0630   64.9370 C.3   610  NDP610      0.2309
     34  O2D       30.0910    9.8700   64.3940 O.3   610  NDP610     -0.2158
     35  C1D       32.4030    8.9520   64.0330 C.3   610  NDP610      0.2263
     36  N1N       32.4400    7.8250   63.0220 N.pl3 610  NDP610     -0.2787
     37  C2N       32.2290    8.1710   61.5530 C.3   610  NDP610      0.1244
     38  C3N       32.2670    7.1540   60.5960 C.2   610  NDP610      0.0544
     39  C7N       32.0650    7.4420   59.1010 C.2   610  NDP610      0.2818
     40  O7N       32.1130    6.4580   58.2950 O.2   610  NDP610     -0.2670
     41  N7N       31.8510    8.6970   58.7170 N.am  610  NDP610     -0.0839
     42  C4N       32.5140    5.7350   61.0460 C.2   610  NDP610      0.0033
     43  C5N       32.7180    5.4160   62.4900 C.2   610  NDP610      0.0157
     44  C6N       32.6810    6.4140   63.3990 C.2   610  NDP610      0.0633
     45  P2B       33.7280    1.9440   76.2650 P.3   610  NDP610      0.5328
     46  O1X       34.7650    1.0750   76.9350 O.3   610  NDP610     -0.1145
     47  O2X       33.9570    3.3740   76.7010 O.3   610  NDP610     -0.1145
     48  O3X       32.3170    1.6010   76.6850 O.2   610  NDP610     -0.2224
@<TRIPOS>BOND
     1    40    39    2
     2    41    39   am
     3    39    38    1
     4    38    42    2
     5    38    37    1
     6    42    43    1
     7    37    36    1
     8    43    44    2
     9    36    44    1
    10    36    35    1
    11    35    30    1
    12    35    33    1
    13    34    33    1
    14    30    29    1
    15    33    31    1
    16    32    31    1
    17    31    29    1
    18    29    28    1
    19    27    28    1
    20    27    24    1
    21    25    24    2
    22     2     1    2
    23     3     1    1
    24    24    26    1
    25    24    23    1
    26     1    23    1
    27     1     4    1
    28     4     5    1
    29    15    14    1
    30    15    16    2
    31     5     6    1
    32    14    13    1
    33    18    17    1
    34     7     6    1
    35     7    12    1
    36    16    17    1
    37    16    22    1
    38    13    22    1
    39    13    12    1
    40     6     8    1
    41    17    19    2
    42    22    21    2
    43    12    10    1
    44     8    10    1
    45     8     9    1
    46    19    20    1
    47    21    20    1
    48    10    11    1
    49    11    45    1
    50    45    48    2
    51    45    47    1
    52    45    46    1
