@<TRIPOS>MOLECULE
3qg2_CP6_A_1.pdb
 17 18 0 0 0
SMALL
GASTEIGER

@<TRIPOS>ATOM
      1  N1        30.0200    4.0570   56.4670 N.2   609  CP6609     -0.3112
      2  C2        29.4440    4.9470   55.5330 C.1   609  CP6609      0.2419
      3  C3        29.6490    4.1110   57.8010 C.2   609  CP6609      0.2201
      4  C4        28.6290    5.1060   58.3080 C.3   609  CP6609      0.1421
      5  C5        28.0710    6.0320   57.2110 C.2   609  CP6609      0.1122
      6  N6        28.4820    5.9310   55.8790 N.2   609  CP6609     -0.3339
      7  C7        28.2420    5.1550   59.6930 C.ar  609  CP6609     -0.0080
      8  C8        28.9060    5.9680   60.6620 C.ar  609  CP6609     -0.0026
      9  C9        28.5250    5.9900   62.0450 C.ar  609  CP6609      0.0111
     10  C10       27.4040    5.1470   62.5010 C.ar  609  CP6609      0.0577
     11  C11       26.6890    4.3140   61.5780 C.ar  609  CP6609      0.0111
     12  C12       27.1030    4.3140   60.1810 C.ar  609  CP6609     -0.0026
     13  N13       30.1990    3.2610   58.6870 N.pl3 609  CP6609     -0.0962
     14  N14       29.8420    4.8480   54.2020 N.pl3 609  CP6609     -0.0232
     15  C15       27.0460    7.0900   57.5750 C.3   609  CP6609      0.0563
     16  C16       25.5960    6.8830   57.2040 C.3   609  CP6609      0.0075
     17 CL1        27.0860    5.2570   64.1190 Cl    609  CP6609     -0.0822
@<TRIPOS>BOND
     1    14     2    1
     2     2     6    2
     3     2     1    2
     4     6     5    2
     5     1     3    2
     6    16    15    1
     7     5    15    1
     8     5     4    1
     9     3     4    1
    10     3    13    1
    11     4     7    1
    12     7    12   ar
    13     7     8   ar
    14    12    11   ar
    15     8     9   ar
    16    11    10   ar
    17     9    10   ar
    18    10    17    1
