@<TRIPOS>MOLECULE
3qg2_UMP_A_1.pdb
 20 21 0 0 0
SMALL
GASTEIGER

@<TRIPOS>ATOM
      1  N1        43.9850   20.1470   19.4750 N.am  611  UMP611     -0.1790
      2  C2        43.1600   19.6110   20.5110 C.1   611  UMP611      0.2844
      3  N3        42.2780   20.5450   21.0690 N.2   611  UMP611     -0.2452
      4  C4        42.1470   21.9130   20.7020 C.1   611  UMP611      0.2182
      5  C5        43.0320   22.3740   19.6290 C.2   611  UMP611      0.1242
      6  C6        43.9220   21.4470   19.0620 C.2   611  UMP611      0.0928
      7  O2        43.1790   18.4510   20.9180 O.2   611  UMP611     -0.1918
      8  O4        41.3490   22.6640   21.2480 O.2   611  UMP611     -0.2085
      9  C1'       45.0080   19.3390   18.7350 C.3   611  UMP611      0.2090
     10  C2'       44.5700   18.2230   17.7660 C.3   611  UMP611      0.0874
     11  C3'       45.7610   18.0520   16.8260 C.3   611  UMP611      0.1857
     12  C4'       46.3970   19.4440   16.6220 C.3   611  UMP611      0.1774
     13  O3'       46.7100   17.2030   17.5180 O.3   611  UMP611     -0.2203
     14  O4'       45.9400   20.1240   17.8580 O.3   611  UMP611     -0.3339
     15  C5'       45.7810   20.1930   15.4370 C.3   611  UMP611      0.1858
     16  O5'       46.2160   19.5640   14.1890 O.3   611  UMP611     -0.2675
     17  P         45.3390   19.5480   12.8980 P.3   611  UMP611      0.5327
     18  OP1       46.1110   19.0750   11.7530 O.2   611  UMP611     -0.2224
     19  OP2       44.2330   18.6220   13.1970 O.3   611  UMP611     -0.1145
     20  OP3       44.8440   20.8880   12.5960 O.3   611  UMP611     -0.1145
@<TRIPOS>BOND
     1    18    17    2
     2    20    17    1
     3    17    19    1
     4    17    16    1
     5    16    15    1
     6    15    12    1
     7    12    11    1
     8    12    14    1
     9    11    13    1
    10    11    10    1
    11    10     9    1
    12    14     9    1
    13     9     1    1
    14     6     1    1
    15     6     5    2
    16     1     2   am
    17     5     4    1
    18     2     7    2
    19     2     3    2
    20     4     3    2
    21     4     8    2
