@<TRIPOS>MOLECULE
3qgd_23E_A_1.pdb
 47 53 0 0 0
SMALL
GASTEIGER

@<TRIPOS>ATOM
      1  N1        20.7000    3.3360  -15.0510 N.am  601  23E601     -0.1962
      2  C2        20.3920    3.4030  -16.4780 C.3   601  23E601      0.1489
      3  C3        21.0160    4.6820  -17.0150 C.2   601  23E601      0.2633
      4  N4        22.3080    4.9840  -16.7040 N.am  601  23E601     -0.1778
      5  C5        23.0210    6.1310  -17.1850 C.ar  601  23E601      0.0734
      6  O6        20.3170    5.4400  -17.6620 O.2   601  23E601     -0.2712
      7  C7        22.3720    7.2260  -17.7890 C.ar  601  23E601      0.0166
      8  C8        23.1300    8.2860  -18.3220 C.ar  601  23E601      0.0013
      9  C9        24.5370    8.3130  -18.2230 C.ar  601  23E601      0.0003
     10  C10       25.1750    7.2190  -17.6220 C.ar  601  23E601      0.0013
     11  C11       24.4200    6.1440  -17.1020 C.ar  601  23E601      0.0166
     12  C12       25.2440    9.4870  -18.8770 C.2   601  23E601      0.0068
     13  C13       25.9330   10.5320  -18.3960 C.2   601  23E601      0.0861
     14  C14       26.4940   11.5230  -19.3460 C.2   601  23E601      0.3880
     15  O15       27.5680   11.1530  -20.0720 O.co2 601  23E601     -0.2405
     16  C16       18.8770    3.1080  -16.7020 C.3   601  23E601      0.0289
     17  C17       20.9620    2.1740  -17.2400 C.3   601  23E601      0.0289
     18  C18       18.7270    2.6230  -18.1630 C.3   601  23E601      0.0023
     19  C19       20.1430    2.1320  -18.5600 C.3   601  23E601      0.0023
     20  O20       25.9840   12.6430  -19.4780 O.co2 601  23E601     -0.2405
     21  C21       20.3760    4.3180  -14.1580 C.2   601  23E601      0.2652
     22  C22       20.7330    4.0670  -12.7130 C.ar  601  23E601      0.0565
     23  C23       19.9500    4.5800  -11.6530 C.ar  601  23E601      0.0047
     24  C24       20.2460    4.2630  -10.3090 C.ar  601  23E601      0.0013
     25  C25       21.8150    3.1890  -12.4610 C.ar  601  23E601      0.0218
     26  N26       23.0240    2.0660  -10.5950 N.ar  601  23E601     -0.3151
     27  C27       22.0760    2.8620  -11.1240 C.ar  601  23E601      0.0604
     28  C28       21.3390    3.4240  -10.0910 C.ar  601  23E601      0.0129
     29  C29       21.9540    2.8430   -8.8530 C.ar  601  23E601     -0.0087
     30  C30       22.9540    2.0500   -9.2840 C.ar  601  23E601      0.0445
     31  C31       21.3680    3.1290   -7.4790 C.3   601  23E601      0.0235
     32  C32       23.8370    1.1600   -8.4450 C.3   601  23E601      0.1130
     33  C33       21.5470    4.5650   -6.9120 C.3   601  23E601      0.0044
     34  C34       20.9810    4.6930   -5.4650 C.3   601  23E601      0.0003
     35  C35       19.5390    4.1570   -5.3920 C.3   601  23E601      0.0000
     36  C36       19.5420    2.6790   -5.8550 C.3   601  23E601      0.0003
     37  C37       19.9000    2.6420   -7.3500 C.3   601  23E601      0.0044
     38  O38       19.7650    5.3510  -14.4290 O.2   601  23E601     -0.2684
     39  C39       24.3100    1.6350   -7.2140 C.2   601  23E601     -0.0135
     40  C40       24.8980    0.7540   -6.2830 C.2   601  23E601     -0.0037
     41  C41       25.0850   -0.5980   -6.6150 C.2   601  23E601      0.0020
     42  C42       24.6360   -1.0680   -7.8590 C.2   601  23E601      0.0292
     43  C43       24.0380   -0.1940   -8.7990 C.2   601  23E601      0.1309
     44  C44       24.0210    1.3180  -11.3670 C.3   601  23E601      0.2423
     45  N45       23.5800   -0.7480  -10.0290 N.2   601  23E601     -0.3386
     46  C46       23.5580   -0.1170  -11.2350 C.1   601  23E601      0.2039
     47  O47       23.1230   -0.6970  -12.2340 O.2   601  23E601     -0.2122
@<TRIPOS>BOND
     1    15    14   ar
     2    20    14   ar
     3    14    13    1
     4    12    13    2
     5    12     9    1
     6    19    18    1
     7    19    17    1
     8     8     9   ar
     9     8     7   ar
    10     9    10   ar
    11    18    16    1
    12     7     5   ar
    13     6     3    2
    14    10    11   ar
    15    17     2    1
    16     5    11   ar
    17     5     4    1
    18     3     4   am
    19     3     2    1
    20    16     2    1
    21     2     1    1
    22     1    21   am
    23    38    21    2
    24    21    22    1
    25    22    25   ar
    26    22    23   ar
    27    25    27   ar
    28    47    46    2
    29    23    24   ar
    30    44    46    1
    31    44    26    1
    32    46    45    2
    33    27    26   ar
    34    27    28   ar
    35    26    30   ar
    36    24    28   ar
    37    28    29   ar
    38    45    43    2
    39    30    29   ar
    40    30    32    1
    41    29    31    1
    42    43    32    1
    43    43    42    1
    44    32    39    1
    45    42    41    2
    46    31    37    1
    47    31    33    1
    48    37    36    1
    49    39    40    2
    50    33    34    1
    51    41    40    1
    52    36    35    1
    53    34    35    1
