@<TRIPOS>MOLECULE
3qgd_26S_B_1.pdb
 39 42 0 0 0
SMALL
GASTEIGER

@<TRIPOS>ATOM
      1  C1        20.1960    6.2080   71.8360 C.ar  602  26S602      0.0006
      2  C2        22.5150    6.8790   72.1160 C.ar  602  26S602      0.0006
      3  C3        26.1760    0.3460   75.2800 C.ar  602  26S602     -0.0029
      4  C4        28.0830   -0.0300   73.8200 C.ar  602  26S602     -0.0029
      5  C5        19.8430    6.9870   72.9460 C.ar  602  26S602      0.0366
      6  C6        22.1610    7.6620   73.2150 C.ar  602  26S602      0.0366
      7  C7        25.8290    1.4590   74.5140 C.ar  602  26S602      0.0196
      8  C8        27.7350    1.0840   73.0480 C.ar  602  26S602      0.0196
      9  C9        21.3290    0.1060   69.2580 C.3   602  26S602      0.1754
     10  C10       27.3040   -0.4000   74.9360 C.ar  602  26S602     -0.0221
     11  C11       21.5320    6.1610   71.4230 C.ar  602  26S602     -0.0004
     12  C12       20.8280    7.7150   73.6410 C.ar  602  26S602      0.1387
     13  C13       26.5930    1.8310   73.3920 C.ar  602  26S602      0.1222
     14  C14       22.6590    0.3480   68.9350 C.2   602  26S602      0.1861
     15  C15       20.5070   -0.2210   68.1910 C.2   602  26S602      0.2751
     16  C16       22.2290   -0.0470   66.6970 C.1   602  26S602      0.3137
     17  C17       22.4810    3.1430   71.3380 C.2   602  26S602      0.2596
     18  C18       24.9810    0.9370   69.5910 C.3   602  26S602      0.1120
     19  C19       25.3630    2.3700   69.9560 C.3   602  26S602      0.1178
     20  C20       23.2490    0.7930   71.3680 C.3   602  26S602      0.1199
     21  C21       23.5660    2.2150   71.8180 C.3   602  26S602      0.1768
     22  C22       29.1260   -1.5390   76.2420 C.3   602  26S602      0.0050
     23  C23       19.1620    8.4530   75.2210 C.3   602  26S602      0.2525
     24  C24       18.3460   -0.8180   67.3220 C.3   602  26S602      0.2550
     25  C25       24.0750    0.1580   65.1820 C.3   602  26S602      0.2708
     26  C26       27.6720   -1.5910   75.7650 C.3   602  26S602      0.0264
     27  C27       21.9320    5.3130   70.2570 C.3   602  26S602      0.1415
     28  N28       23.1290    0.2750   67.6600 N.2   602  26S602     -0.2998
     29  N29       20.9180   -0.3040   66.8950 N.2   602  26S602     -0.2776
     30  N30       23.5810    0.6780   69.9450 N.pl3 602  26S602     -0.2823
     31  N31       24.9110    2.7100   71.3380 N.3   602  26S602     -0.1446
     32  N32       22.8770    4.3280   70.7530 N.am  602  26S602     -0.1993
     33  O33       21.3180    2.7860   71.4820 O.2   602  26S602     -0.2718
     34  O34       25.4450    4.1490   73.3930 O.2   602  26S602     -0.1528
     35  O35       27.2780    3.6860   71.6850 O.2   602  26S602     -0.1528
     36  O36       20.5070    8.4710   74.7360 O.3   602  26S602     -0.4714
     37  O37       19.1850   -0.4770   68.4350 O.2   602  26S602     -0.4498
     38  O38       22.6910   -0.1240   65.4010 O.2   602  26S602     -0.3954
     39  S39       26.1120    3.2660   72.4500 S.O2  602  26S602      0.0638
@<TRIPOS>BOND
     1    25    38    1
     2    38    16    1
     3    16    29    2
     4    16    28    2
     5    29    15    2
     6    24    37    1
     7    28    14    2
     8    15    37    1
     9    15     9    1
    10    14     9    1
    11    14    30    1
    12    18    30    1
    13    18    19    1
    14    30    20    1
    15    19    31    1
    16    27    32    1
    17    27    11    1
    18    32    17   am
    19    31    21    1
    20    31    39    1
    21    17    33    2
    22    17    21    1
    23    20    21    1
    24    11     1   ar
    25    11     2   ar
    26    35    39    2
    27     1     5   ar
    28     2     6   ar
    29    39    13    1
    30    39    34    2
    31     5    12   ar
    32     8    13   ar
    33     8     4   ar
    34     6    12   ar
    35    13     7   ar
    36    12    36    1
    37     4    10   ar
    38     7     3   ar
    39    36    23    1
    40    10     3   ar
    41    10    26    1
    42    26    22    1
