@<TRIPOS>MOLECULE
3qge_23E_A_1.pdb
 47 53 0 0 0
SMALL
GASTEIGER

@<TRIPOS>ATOM
      1  N1        21.0840    3.4630  -15.1420 N.am  601  23E601     -0.1962
      2  C2        20.7860    3.5010  -16.5790 C.3   601  23E601      0.1489
      3  C3        21.3550    4.7500  -17.1890 C.2   601  23E601      0.2633
      4  N4        22.6110    5.1180  -16.8040 N.am  601  23E601     -0.1778
      5  C5        23.2900    6.2750  -17.2790 C.ar  601  23E601      0.0734
      6  O6        20.6470    5.3650  -17.9820 O.2   601  23E601     -0.2712
      7  C7        22.5820    7.3940  -17.7790 C.ar  601  23E601      0.0166
      8  C8        23.2830    8.5150  -18.2350 C.ar  601  23E601      0.0013
      9  C9        24.7010    8.5330  -18.1890 C.ar  601  23E601      0.0003
     10  C10       25.3870    7.4100  -17.6710 C.ar  601  23E601      0.0013
     11  C11       24.6820    6.2940  -17.2190 C.ar  601  23E601      0.0166
     12  C12       25.4090    9.7860  -18.6930 C.2   601  23E601      0.0068
     13  C13       26.7310    9.9790  -18.7400 C.2   601  23E601      0.0861
     14  C14       27.3410   11.2240  -19.2400 C.2   601  23E601      0.3880
     15  O15       26.6400   12.0170  -20.0820 O.co2 601  23E601     -0.2405
     16  C16       19.2740    3.2830  -16.8460 C.3   601  23E601      0.0289
     17  C17       21.3850    2.2270  -17.2450 C.3   601  23E601      0.0289
     18  C18       19.1810    2.6640  -18.2590 C.3   601  23E601      0.0023
     19  C19       20.5300    1.9500  -18.5070 C.3   601  23E601      0.0023
     20  O20       28.4800   11.5160  -18.8690 O.co2 601  23E601     -0.2405
     21  C21       20.7410    4.4220  -14.2380 C.2   601  23E601      0.2652
     22  C22       21.1040    4.1630  -12.7900 C.ar  601  23E601      0.0565
     23  C23       20.3010    4.6500  -11.7530 C.ar  601  23E601      0.0047
     24  C24       20.5600    4.3500  -10.4240 C.ar  601  23E601      0.0013
     25  C25       22.1590    3.2880  -12.5010 C.ar  601  23E601      0.0218
     26  N26       23.3670    2.2020  -10.5880 N.ar  601  23E601     -0.3151
     27  C27       22.4020    2.9700  -11.1640 C.ar  601  23E601      0.0604
     28  C28       21.6230    3.5080  -10.1690 C.ar  601  23E601      0.0129
     29  C29       22.2150    2.9550   -8.9010 C.ar  601  23E601     -0.0087
     30  C30       23.2390    2.1810   -9.2800 C.ar  601  23E601      0.0445
     31  C31       21.6040    3.2690   -7.5550 C.3   601  23E601      0.0235
     32  C32       24.1240    1.3630   -8.3880 C.3   601  23E601      0.1130
     33  C33       21.7980    4.7220   -7.0360 C.3   601  23E601      0.0044
     34  C34       21.2120    4.8030   -5.6060 C.3   601  23E601      0.0003
     35  C35       19.7180    4.3760   -5.6310 C.3   601  23E601      0.0000
     36  C36       19.5090    2.9230   -6.1190 C.3   601  23E601      0.0003
     37  C37       20.0980    2.8030   -7.5360 C.3   601  23E601      0.0044
     38  O38       20.0980    5.4280  -14.5160 O.2   601  23E601     -0.2684
     39  C39       24.5610    1.8930   -7.1630 C.2   601  23E601     -0.0135
     40  C40       25.2740    1.0830   -6.2640 C.2   601  23E601     -0.0037
     41  C41       25.5710   -0.2460   -6.6220 C.2   601  23E601      0.0020
     42  C42       25.1730   -0.7740   -7.8670 C.2   601  23E601      0.0292
     43  C43       24.4330    0.0260   -8.7580 C.2   601  23E601      0.1309
     44  C44       24.4330    1.4940  -11.2900 C.3   601  23E601      0.2423
     45  N45       23.9530   -0.5400   -9.9800 N.2   601  23E601     -0.3386
     46  C46       23.9310    0.0950  -11.1710 C.1   601  23E601      0.2039
     47  O47       23.4850   -0.4480  -12.1760 O.2   601  23E601     -0.2122
@<TRIPOS>BOND
     1    15    14   ar
     2    14    20   ar
     3    14    13    1
     4    13    12    2
     5    12     9    1
     6    19    18    1
     7    19    17    1
     8    18    16    1
     9     8     9   ar
    10     8     7   ar
    11     9    10   ar
    12     6     3    2
    13     7     5   ar
    14    10    11   ar
    15     5    11   ar
    16     5     4    1
    17    17     2    1
    18     3     4   am
    19     3     2    1
    20    16     2    1
    21     2     1    1
    22     1    21   am
    23    38    21    2
    24    21    22    1
    25    22    25   ar
    26    22    23   ar
    27    25    27   ar
    28    47    46    2
    29    23    24   ar
    30    44    46    1
    31    44    26    1
    32    46    45    2
    33    27    26   ar
    34    27    28   ar
    35    26    30   ar
    36    24    28   ar
    37    28    29   ar
    38    45    43    2
    39    30    29   ar
    40    30    32    1
    41    29    31    1
    42    43    32    1
    43    43    42    1
    44    32    39    1
    45    42    41    2
    46    31    37    1
    47    31    33    1
    48    37    36    1
    49    39    40    2
    50    33    34    1
    51    41    40    1
    52    36    35    1
    53    35    34    1
