@<TRIPOS>MOLECULE
3qge_26F_B_1.pdb
 42 45 0 0 0
SMALL
GASTEIGER

@<TRIPOS>ATOM
      1  C1        20.1110    6.3040   71.8560 C.ar  602  26F602      0.0006
      2  C2        22.4560    6.9050   72.2670 C.ar  602  26F602      0.0006
      3  C3        19.7430    7.1120   72.9590 C.ar  602  26F602      0.0366
      4  C4        22.0950    7.7130   73.3680 C.ar  602  26F602      0.0366
      5  C5        28.0470   -0.0490   73.7180 C.ar  602  26F602      0.0386
      6  C6        26.2150    0.5230   75.2260 C.ar  602  26F602      0.0386
      7  C7        27.7500    1.0600   72.9110 C.ar  602  26F602      0.0230
      8  C8        25.9040    1.6380   74.4210 C.ar  602  26F602      0.0230
      9  C9        21.6750    0.0390   69.1390 C.3   602  26F602      0.1754
     10  C10       21.4730    6.2090   71.5110 C.ar  602  26F602     -0.0004
     11  C11       20.7220    7.8190   73.7340 C.ar  602  26F602      0.1387
     12  C12       27.2720   -0.3300   74.8850 C.ar  602  26F602      0.1469
     13  C13       26.6700    1.8850   73.2650 C.ar  602  26F602      0.1224
     14  C14       23.0510    0.3210   68.9010 C.2   602  26F602      0.1861
     15  C15       20.8520   -0.1760   68.0000 C.2   602  26F602      0.2751
     16  C16       22.6650    0.0870   66.6010 C.1   602  26F602      0.3137
     17  C17       22.6190    3.1050   71.2600 C.2   602  26F602      0.2596
     18  C18       25.3990    0.7810   69.6280 C.3   602  26F602      0.1120
     19  C19       25.6730    2.2760   69.8180 C.3   602  26F602      0.1178
     20  C20       23.7170    0.8060   71.2950 C.3   602  26F602      0.1199
     21  C21       23.8720    2.2970   71.6180 C.3   602  26F602      0.1768
     22  C22       18.8920    8.5770   75.1340 C.3   602  26F602      0.2525
     23  C23       18.6800   -0.6860   67.1000 C.3   602  26F602      0.2550
     24  C24       24.5520    0.4130   65.1710 C.3   602  26F602      0.2708
     25  C25       21.8980    5.3530   70.3460 C.3   602  26F602      0.1415
     26  C26       28.7840   -1.6570   76.0940 C.3   602  26F602      0.5753
     27  N27       23.5150    0.3120   67.6210 N.2   602  26F602     -0.2998
     28  N28       21.3490   -0.1580   66.7190 N.2   602  26F602     -0.2776
     29  N29       24.0020    0.4390   69.8880 N.pl3 602  26F602     -0.2823
     30  N30       25.1390    2.8310   71.0870 N.3   602  26F602     -0.1446
     31  N31       22.8420    4.3420   70.7670 N.am  602  26F602     -0.1993
     32  O32       21.5090    2.5860   71.4340 O.2   602  26F602     -0.2718
     33  O33       27.5160    3.7210   71.6020 O.2   602  26F602     -0.1528
     34  O34       25.5640    4.2130   73.2020 O.2   602  26F602     -0.1528
     35  O35       20.2760    8.5760   74.8030 O.3   602  26F602     -0.4714
     36  O36       27.4940   -1.3760   75.7410 O.3   602  26F602     -0.4045
     37  O37       19.5140   -0.4130   68.2120 O.2   602  26F602     -0.4498
     38  O38       23.1580    0.1160   65.3390 O.2   602  26F602     -0.3954
     39  F39       29.4960   -0.5260   76.3550 F     602  26F602     -0.1328
     40  F40       28.8290   -2.4860   77.1580 F     602  26F602     -0.1328
     41  F41       29.4450   -2.2860   75.0830 F     602  26F602     -0.1328
     42  S42       26.2760    3.3030   72.2880 S.O2  602  26F602      0.0638
@<TRIPOS>BOND
     1    24    38    1
     2    38    16    1
     3    16    28    2
     4    16    27    2
     5    28    15    2
     6    23    37    1
     7    27    14    2
     8    15    37    1
     9    15     9    1
    10    14     9    1
    11    14    29    1
    12    18    19    1
    13    18    29    1
    14    19    30    1
    15    29    20    1
    16    25    31    1
    17    25    10    1
    18    31    17   am
    19    30    21    1
    20    30    42    1
    21    17    32    2
    22    17    21    1
    23    20    21    1
    24    10     1   ar
    25    10     2   ar
    26    33    42    2
    27     1     3   ar
    28     2     4   ar
    29    42    34    2
    30    42    13    1
    31     7    13   ar
    32     7     5   ar
    33     3    11   ar
    34    13     8   ar
    35     4    11   ar
    36     5    12   ar
    37    11    35    1
    38     8     6   ar
    39    35    22    1
    40    12     6   ar
    41    12    36    1
    42    41    26    1
    43    36    26    1
    44    26    39    1
    45    26    40    1
