@<TRIPOS>MOLECULE
3qgf_46F_A_1.pdb
 39 42 0 0 0
SMALL
GASTEIGER

@<TRIPOS>ATOM
      1  C1        23.2580   11.7780   14.1640 C.ar  602  46F602      0.0006
      2  C2        23.9810    9.4860   14.2230 C.ar  602  46F602      0.0006
      3  C3        24.2140   12.0570   13.1700 C.ar  602  46F602      0.0366
      4  C4        24.9460    9.7580   13.2290 C.ar  602  46F602      0.0366
      5  C5        15.3100   11.2470   11.2420 C.ar  602  46F602      0.0386
      6  C6        14.1580   12.2390   13.1450 C.ar  602  46F602      0.0386
      7  C7        16.5320   11.4360   11.8570 C.ar  602  46F602      0.0230
      8  C8        15.3760   12.4210   13.7560 C.ar  602  46F602      0.0230
      9  C9        18.5700    6.6090   16.7040 C.ar  602  46F602      0.0386
     10  C10       18.8900    5.7120   17.7270 C.ar  602  46F602      0.0355
     11  C11       23.1270   10.4900   14.7100 C.ar  602  46F602     -0.0004
     12  C12       25.0660   11.0490   12.6930 C.ar  602  46F602      0.1387
     13  C13       14.1300   11.6680   11.8840 C.ar  602  46F602      0.1469
     14  C14       16.5320   12.0260   13.1050 C.ar  602  46F602      0.1224
     15  C15       17.7990    7.7580   16.9730 C.ar  602  46F602      0.1536
     16  C16       18.4490    6.0280   18.9930 C.ar  602  46F602      0.1600
     17  C17       19.9950    9.3270   14.7440 C.2   602  46F602      0.2596
     18  C18       16.6740    9.8680   16.5180 C.3   602  46F602      0.1114
     19  C19       17.5750   11.0770   16.3520 C.3   602  46F602      0.1178
     20  C20       17.5770    8.5760   14.6170 C.3   602  46F602      0.1193
     21  C21       18.5750    9.7150   14.3030 C.3   602  46F602      0.1768
     22  C22       26.8810   10.4640   11.2370 C.3   602  46F602      0.2525
     23  C23       22.0930   10.2300   15.7680 C.3   602  46F602      0.1415
     24  C24       12.6840   11.6110   10.0040 C.3   602  46F602      0.5753
     25  N25       17.4260    7.9960   18.2570 N.ar  602  46F602     -0.1321
     26  N26       17.7350    7.1340   19.2610 N.ar  602  46F602     -0.1352
     27  N27       17.5170    8.7660   16.0510 N.pl3 602  46F602     -0.2884
     28  N28       18.3140   11.0130   15.0360 N.3   602  46F602     -0.1446
     29  N29       20.7280   10.3920   15.2870 N.am  602  46F602     -0.1993
     30  O30       20.4380    8.1850   14.6380 O.2   602  46F602     -0.2718
     31  O31       19.1150   12.2330   13.0020 O.2   602  46F602     -0.1528
     32  O32       17.7540   13.4870   14.7500 O.2   602  46F602     -0.1528
     33  O33       25.9590   11.4440   11.7220 O.3   602  46F602     -0.4714
     34  O34       12.8550   11.5650   11.4020 O.3   602  46F602     -0.4045
     35  F35       13.3960   12.5650    9.4040 F     602  46F602     -0.1328
     36  F36       11.3880   11.8930    9.7660 F     602  46F602     -0.1328
     37  F37       13.0750   10.4250    9.5050 F     602  46F602     -0.1328
     38  S38       18.0240   12.3070   13.9520 S.O2  602  46F602      0.0638
     39 CL39       18.7200    5.0920   20.3950 Cl    602  46F602     -0.0594
@<TRIPOS>BOND
     1    35    24    1
     2    37    24    1
     3    36    24    1
     4    24    34    1
     5    22    33    1
     6     5     7   ar
     7     5    13   ar
     8    34    13    1
     9    33    12    1
    10     7    14   ar
    11    13     6   ar
    12    12     3   ar
    13    12     4   ar
    14    31    38    2
    15    14     8   ar
    16    14    38    1
    17     6     8   ar
    18     3     1   ar
    19     4     2   ar
    20    38    32    2
    21    38    28    1
    22     1    11   ar
    23     2    11   ar
    24    21    20    1
    25    21    17    1
    26    21    28    1
    27    20    27    1
    28    30    17    2
    29    11    23    1
    30    17    29   am
    31    28    19    1
    32    29    23    1
    33    27    18    1
    34    27    15    1
    35    19    18    1
    36     9    15   ar
    37     9    10   ar
    38    15    25   ar
    39    10    16   ar
    40    25    26   ar
    41    16    26   ar
    42    16    39    1
