@<TRIPOS>MOLECULE
3qgf_23E_A_1.pdb
 47 53 0 0 0
SMALL
GASTEIGER

@<TRIPOS>ATOM
      1  N1        23.2290    3.5390  -16.2940 N.am  601  23E601     -0.1962
      2  C2        22.9880    3.6660  -17.7390 C.3   601  23E601      0.1489
      3  C3        23.7620    4.8070  -18.3090 C.2   601  23E601      0.2633
      4  N4        25.0880    4.8850  -17.9890 N.am  601  23E601     -0.1778
      5  C5        25.9610    5.8960  -18.4650 C.ar  601  23E601      0.0734
      6  O6        23.1550    5.5810  -19.0450 O.2   601  23E601     -0.2712
      7  C7        25.4350    7.0130  -19.1070 C.ar  601  23E601      0.0166
      8  C8        26.2720    8.0040  -19.5980 C.ar  601  23E601      0.0013
      9  C9        27.6530    7.9100  -19.4490 C.ar  601  23E601      0.0003
     10  C10       28.2000    6.7900  -18.7790 C.ar  601  23E601      0.0013
     11  C11       27.3490    5.7770  -18.2880 C.ar  601  23E601      0.0166
     12  C12       28.4230    9.0790  -20.0200 C.2   601  23E601      0.0068
     13  C13       29.5590    9.5670  -19.5430 C.2   601  23E601      0.0861
     14  C14       30.2360   10.7180  -20.1530 C.2   601  23E601      0.3880
     15  O15       29.4830   11.6910  -20.7070 O.co2 601  23E601     -0.2405
     16  C16       21.4520    3.6940  -18.0780 C.3   601  23E601      0.0289
     17  C17       23.5090    2.3870  -18.4630 C.3   601  23E601      0.0289
     18  C18       21.2330    2.5870  -19.1510 C.3   601  23E601      0.0023
     19  C19       22.6460    2.3200  -19.7360 C.3   601  23E601      0.0023
     20  O20       31.4640   10.7690  -20.1330 O.co2 601  23E601     -0.2405
     21  C21       23.0330    4.5600  -15.4210 C.2   601  23E601      0.2652
     22  C22       23.2790    4.3040  -13.9480 C.ar  601  23E601      0.0565
     23  C23       22.5070    4.9310  -12.9470 C.ar  601  23E601      0.0047
     24  C24       22.6860    4.6410  -11.5900 C.ar  601  23E601      0.0013
     25  C25       24.2280    3.3370  -13.5970 C.ar  601  23E601      0.0218
     26  N26       25.2750    2.1790  -11.6300 N.ar  601  23E601     -0.3151
     27  C27       24.4130    3.0430  -12.2400 C.ar  601  23E601      0.0604
     28  C28       23.6540    3.6850  -11.2710 C.ar  601  23E601      0.0129
     29  C29       24.1400    3.1040   -9.9760 C.ar  601  23E601     -0.0087
     30  C30       25.1040    2.2240  -10.3230 C.ar  601  23E601      0.0445
     31  C31       23.5400    3.5210   -8.6410 C.3   601  23E601      0.0235
     32  C32       25.8890    1.3280   -9.3980 C.3   601  23E601      0.1130
     33  C33       23.8520    4.9740   -8.1930 C.3   601  23E601      0.0044
     34  C34       23.1390    5.3210   -6.8560 C.3   601  23E601      0.0003
     35  C35       21.6290    5.0330   -6.9640 C.3   601  23E601      0.0000
     36  C36       21.3710    3.5450   -7.3010 C.3   601  23E601      0.0003
     37  C37       22.0050    3.2700   -8.6770 C.3   601  23E601      0.0044
     38  O38       22.6230    5.6610  -15.7730 O.2   601  23E601     -0.2684
     39  C39       26.4380    1.8760   -8.2350 C.2   601  23E601     -0.0135
     40  C40       27.0640    1.0490   -7.3080 C.2   601  23E601     -0.0037
     41  C41       27.1710   -0.3250   -7.5660 C.2   601  23E601      0.0020
     42  C42       26.6390   -0.8850   -8.7330 C.2   601  23E601      0.0292
     43  C43       26.0170   -0.0640   -9.6770 C.2   601  23E601      0.1309
     44  C44       26.2710    1.3080  -12.2830 C.3   601  23E601      0.2423
     45  N45       25.5970   -0.6760  -10.8960 N.2   601  23E601     -0.3386
     46  C46       25.7170   -0.0890  -12.1200 C.1   601  23E601      0.2039
     47  O47       25.3480   -0.6940  -13.1160 O.2   601  23E601     -0.2122
@<TRIPOS>BOND
     1    15    14   ar
     2    14    20   ar
     3    14    13    1
     4    12    13    2
     5    12     9    1
     6    19    18    1
     7    19    17    1
     8     8     9   ar
     9     8     7   ar
    10     9    10   ar
    11    18    16    1
    12     7     5   ar
    13     6     3    2
    14    10    11   ar
    15     5    11   ar
    16     5     4    1
    17    17     2    1
    18     3     4   am
    19     3     2    1
    20    16     2    1
    21     2     1    1
    22     1    21   am
    23    38    21    2
    24    21    22    1
    25    22    25   ar
    26    22    23   ar
    27    25    27   ar
    28    47    46    2
    29    23    24   ar
    30    44    46    1
    31    44    26    1
    32    27    26   ar
    33    27    28   ar
    34    46    45    2
    35    26    30   ar
    36    24    28   ar
    37    28    29   ar
    38    45    43    2
    39    30    29   ar
    40    30    32    1
    41    29    31    1
    42    43    32    1
    43    43    42    1
    44    32    39    1
    45    42    41    2
    46    37    31    1
    47    37    36    1
    48    31    33    1
    49    39    40    2
    50    33    34    1
    51    41    40    1
    52    36    35    1
    53    35    34    1
