@<TRIPOS>MOLECULE
3qgg_23E_A_1.pdb
 47 53 0 0 0
SMALL
GASTEIGER

@<TRIPOS>ATOM
      1  N1        23.2860    3.5440  -16.3870 N.am  601  23E601     -0.1962
      2  C2        23.0160    3.7030  -17.8320 C.3   601  23E601      0.1489
      3  C3        23.7850    4.8840  -18.3820 C.2   601  23E601      0.2633
      4  N4        25.1140    4.9500  -18.1610 N.am  601  23E601     -0.1778
      5  C5        25.9590    5.9990  -18.6160 C.ar  601  23E601      0.0734
      6  O6        23.1820    5.7360  -19.0020 O.2   601  23E601     -0.2712
      7  C7        27.3220    5.7290  -18.6940 C.ar  601  23E601      0.0166
      8  C8        28.2130    6.7160  -19.1290 C.ar  601  23E601      0.0013
      9  C9        27.7620    7.9920  -19.4850 C.ar  601  23E601      0.0003
     10  C10       26.3830    8.2720  -19.4030 C.ar  601  23E601      0.0013
     11  C11       25.4860    7.2800  -18.9660 C.ar  601  23E601      0.0166
     12  C12       28.8300    8.9650  -19.9280 C.2   601  23E601      0.0068
     13  C13       28.6500   10.2270  -20.3160 C.2   601  23E601      0.0861
     14  C14       29.7670   11.0980  -20.7300 C.2   601  23E601      0.3880
     15  O15       29.5100   12.3690  -21.1010 O.co2 601  23E601     -0.2405
     16  C16       21.4700    3.7180  -18.0820 C.3   601  23E601      0.0289
     17  C17       23.5000    2.4400  -18.6160 C.3   601  23E601      0.0289
     18  C18       21.1350    2.5080  -19.0000 C.3   601  23E601      0.0023
     19  C19       22.4590    2.1950  -19.7290 C.3   601  23E601      0.0023
     20  O20       30.9130   10.6480  -20.7250 O.co2 601  23E601     -0.2405
     21  C21       23.2640    4.5780  -15.4930 C.2   601  23E601      0.2652
     22  C22       23.5270    4.3050  -14.0300 C.ar  601  23E601      0.0565
     23  C23       22.7550    4.9490  -13.0360 C.ar  601  23E601      0.0047
     24  C24       22.9270    4.6600  -11.6750 C.ar  601  23E601      0.0013
     25  C25       24.4800    3.3310  -13.6780 C.ar  601  23E601      0.0218
     26  N26       25.5070    2.1840  -11.6740 N.ar  601  23E601     -0.3121
     27  C27       24.6590    3.0480  -12.3110 C.ar  601  23E601      0.0606
     28  C28       23.8920    3.7040  -11.3530 C.ar  601  23E601      0.0132
     29  C29       24.3740    3.1350  -10.0510 C.ar  601  23E601     -0.0052
     30  C30       25.3400    2.2430  -10.3680 C.ar  601  23E601      0.0589
     31  C31       23.7660    3.5730   -8.7340 C.3   601  23E601      0.0238
     32  C32       26.1060    1.3580   -9.4070 C.2   601  23E601      0.0422
     33  C33       23.8250    5.0890   -8.4340 C.3   601  23E601      0.0044
     34  C34       23.3150    5.3070   -6.9930 C.3   601  23E601      0.0003
     35  C35       21.8410    4.8500   -6.8660 C.3   601  23E601      0.0000
     36  C36       21.7300    3.3510   -7.2140 C.3   601  23E601      0.0003
     37  C37       22.2950    3.0860   -8.6350 C.3   601  23E601      0.0044
     38  O38       22.9970    5.7260  -15.8050 O.2   601  23E601     -0.2684
     39  C39       26.5760    1.9050   -8.2110 C.2   601  23E601      0.0034
     40  C40       27.2130    1.1080   -7.2580 C.2   601  23E601     -0.0040
     41  C41       27.3950   -0.2500   -7.5180 C.2   601  23E601     -0.0186
     42  C42       26.9430   -0.8060   -8.7170 C.3   601  23E601      0.0860
     43  C43       26.2990   -0.0190   -9.6730 C.2   601  23E601      0.1274
     44  C44       26.4870    1.2960  -12.3060 C.3   601  23E601      0.2425
     45  N45       25.8520   -0.6480  -10.8710 N.2   601  23E601     -0.3389
     46  C46       25.9200   -0.0810  -12.1030 C.1   601  23E601      0.2039
     47  O47       25.5080   -0.6810  -13.0820 O.2   601  23E601     -0.2122
@<TRIPOS>BOND
     1    15    14   ar
     2    14    20   ar
     3    14    13    1
     4    13    12    2
     5    12     9    1
     6    19    18    1
     7    19    17    1
     8     9    10   ar
     9     9     8   ar
    10    10    11   ar
    11     8     7   ar
    12     6     3    2
    13    18    16    1
    14    11     5   ar
    15     7     5   ar
    16     5     4    1
    17    17     2    1
    18     3     4   am
    19     3     2    1
    20    16     2    1
    21     2     1    1
    22     1    21   am
    23    38    21    2
    24    21    22    1
    25    22    25   ar
    26    22    23   ar
    27    25    27   ar
    28    47    46    2
    29    23    24   ar
    30    27    26   ar
    31    27    28   ar
    32    44    46    1
    33    44    26    1
    34    46    45    2
    35    24    28   ar
    36    26    30   ar
    37    28    29   ar
    38    45    43    2
    39    30    29   ar
    40    30    32    1
    41    29    31    1
    42    43    32    1
    43    43    42    1
    44    32    39    2
    45    31    37    1
    46    31    33    1
    47    42    41    1
    48    37    36    1
    49    33    34    1
    50    39    40    1
    51    41    40    2
    52    36    35    1
    53    34    35    1
