@<TRIPOS>MOLECULE
3qgg_63F_A_1.pdb
 47 51 0 0 0
SMALL
GASTEIGER

@<TRIPOS>ATOM
      1  C1        23.4580   11.5530   14.2490 C.ar  602  63F602      0.0006
      2  C2        24.4150    9.3100   14.3950 C.ar  602  63F602      0.0006
      3  C3        24.3940   11.8820   13.2430 C.ar  602  63F602      0.0369
      4  C4        25.3530    9.6400   13.3910 C.ar  602  63F602      0.0369
      5  C5        14.5390   11.8920   12.6210 C.ar  602  63F602      0.0386
      6  C6        16.1420   11.0720   10.9600 C.ar  602  63F602      0.0386
      7  C7        15.5970   12.2910   13.4530 C.ar  602  63F602      0.0230
      8  C8        17.2020   11.4680   11.7930 C.ar  602  63F602      0.0230
      9  C9        19.0000    5.5650   17.5380 C.ar  602  63F602      0.0285
     10  C10       18.6460    6.6150   16.6710 C.ar  602  63F602      0.0379
     11  C11       23.4710   10.2630   14.8270 C.ar  602  63F602     -0.0004
     12  C12       25.3530   10.9330   12.7970 C.ar  602  63F602      0.1468
     13  C13       14.8020   11.2800   11.3640 C.ar  602  63F602      0.1469
     14  C14       16.9170   12.0680   13.0320 C.ar  602  63F602      0.1224
     15  C15       18.7420    5.7250   18.9230 C.ar  602  63F602      0.1577
     16  C16       18.0490    7.7850   17.2210 C.ar  602  63F602      0.1536
     17  C17       19.1060    4.6140   19.8730 C.2   602  63F602      0.2842
     18  C18       20.2940    9.3490   14.8560 C.2   602  63F602      0.2596
     19  C19       20.2410    4.1980   23.0600 C.3   602  63F602      0.0234
     20  C20       18.8880    4.5220   23.6320 C.3   602  63F602      0.0234
     21  C21       17.1480   10.1250   16.8610 C.3   602  63F602      0.1114
     22  C22       18.1770   11.2330   16.5500 C.3   602  63F602      0.1178
     23  C23       17.8150    8.8560   14.9640 C.3   602  63F602      0.1193
     24  C24       18.8930    9.8750   14.5270 C.3   602  63F602      0.1768
     25  C25       18.9960    3.9570   22.2340 C.3   602  63F602      0.0958
     26  C26       22.4690    9.9090   15.9000 C.3   602  63F602      0.1415
     27  C27       26.0860   10.9850   10.4970 C.3   602  63F602      0.5753
     28  C28       12.9270   11.7310    9.9370 C.3   602  63F602      0.5753
     29  N29       18.1640    6.8660   19.4130 N.ar  602  63F602     -0.1421
     30  N30       17.8270    7.8710   18.5750 N.ar  602  63F602     -0.1328
     31  N31       17.6830    8.8290   16.4210 N.pl3 602  63F602     -0.2884
     32  N32       18.5780   11.2150   15.1100 N.3   602  63F602     -0.1446
     33  N33       18.7640    4.8440   21.1490 N.am  602  63F602     -0.2021
     34  N34       21.1070   10.1800   15.4900 N.am  602  63F602     -0.1993
     35  O35       19.6650    3.5780   19.4840 O.2   602  63F602     -0.2666
     36  O36       20.6240    8.2150   14.5480 O.2   602  63F602     -0.2718
     37  O37       17.8790   13.7290   14.8670 O.2   602  63F602     -0.1528
     38  O38       19.4330   12.6440   13.1600 O.2   602  63F602     -0.1528
     39  O39       26.2340   11.3410   11.8100 O.3   602  63F602     -0.4045
     40  O40       13.8280   10.8620   10.4770 O.3   602  63F602     -0.4045
     41  F41       27.2670   11.0140    9.8240 F     602  63F602     -0.1328
     42  F42       25.6140    9.7130   10.4120 F     602  63F602     -0.1328
     43  F43       25.1990   11.7860    9.8470 F     602  63F602     -0.1328
     44  F44       11.7240   11.6720   10.5640 F     602  63F602     -0.1328
     45  F45       13.3420   13.0210    9.9390 F     602  63F602     -0.1328
     46  F46       12.7500   11.3950    8.6400 F     602  63F602     -0.1328
     47  S47       18.2800   12.5640   14.0600 S.O2  602  63F602      0.0638
@<TRIPOS>BOND
     1    46    28    1
     2    41    27    1
     3    43    27    1
     4    28    45    1
     5    28    40    1
     6    28    44    1
     7    42    27    1
     8    40    13    1
     9    27    39    1
    10     6    13   ar
    11     6     8   ar
    12    13     5   ar
    13     8    14   ar
    14    39    12    1
    15     5     7   ar
    16    12     3   ar
    17    12     4   ar
    18    14     7   ar
    19    14    47    1
    20    38    47    2
    21     3     1   ar
    22     4     2   ar
    23    47    37    2
    24    47    32    1
    25     1    11   ar
    26     2    11   ar
    27    24    18    1
    28    24    23    1
    29    24    32    1
    30    36    18    2
    31    11    26    1
    32    18    34   am
    33    23    31    1
    34    32    22    1
    35    34    26    1
    36    31    21    1
    37    31    16    1
    38    22    21    1
    39    10    16   ar
    40    10     9   ar
    41    16    30   ar
    42     9    15   ar
    43    30    29   ar
    44    15    29   ar
    45    15    17    1
    46    35    17    2
    47    17    33   am
    48    33    25    1
    49    25    19    1
    50    25    20    1
    51    19    20    1
