@<TRIPOS>MOLECULE
3qgh_63F_A_1.pdb
 47 51 0 0 0
SMALL
GASTEIGER

@<TRIPOS>ATOM
      1  C1         8.0130   34.9570   50.9150 C.ar  601  63F601      0.0006
      2  C2         7.5800   33.1010   49.3900 C.ar  601  63F601      0.0006
      3  C3         9.1960   34.3280   51.3350 C.ar  601  63F601      0.0369
      4  C4         8.7640   32.4630   49.8120 C.ar  601  63F601      0.0369
      5  C5         7.3860   43.2170   46.3600 C.ar  601  63F601      0.0386
      6  C6         9.3910   41.9120   45.7780 C.ar  601  63F601      0.0386
      7  C7         7.0150   42.2410   47.2820 C.ar  601  63F601      0.0230
      8  C8         9.0250   40.9230   46.7140 C.ar  601  63F601      0.0230
      9  C9         3.0620   35.2570   44.1590 C.ar  601  63F601      0.0285
     10  C10        4.0310   36.1790   44.5920 C.ar  601  63F601      0.0379
     11  C11        7.1970   34.3430   49.9420 C.ar  601  63F601     -0.0004
     12  C12        9.5730   33.0760   50.7960 C.ar  601  63F601      0.1468
     13  C13        8.5770   43.0630   45.6090 C.ar  601  63F601      0.1469
     14  C14        7.8320   41.1010   47.4410 C.ar  601  63F601      0.1224
     15  C15        1.6920   35.5470   44.3570 C.ar  601  63F601      0.1577
     16  C16        3.6020   37.3760   45.2290 C.ar  601  63F601      0.1536
     17  C17        0.6550   34.5230   43.8900 C.2   601  63F601      0.2842
     18  C18        6.3850   36.4250   47.4410 C.2   601  63F601      0.2596
     19  C19       -1.8560   32.4850   44.7290 C.3   601  63F601      0.0234
     20  C20       -2.8760   33.5770   44.8820 C.3   601  63F601      0.0234
     21  C21        4.2150   39.5030   46.4500 C.3   601  63F601      0.1114
     22  C22        4.7300   39.3100   47.8840 C.3   601  63F601      0.1178
     23  C23        5.9760   38.1560   45.5390 C.3   601  63F601      0.1193
     24  C24        6.6250   37.8640   46.9260 C.3   601  63F601      0.1768
     25  C25       -1.7000   33.7790   43.9470 C.3   601  63F601      0.0958
     26  C26        5.9170   35.0290   49.4770 C.3   601  63F601      0.1415
     27  C27       11.9440   32.9530   50.7650 C.3   601  63F601      0.5753
     28  C28       10.1850   44.2010   44.2150 C.3   601  63F601      0.5753
     29  N29        1.3320   36.7180   44.9680 N.ar  601  63F601     -0.1421
     30  N30        2.2630   37.6090   45.3940 N.ar  601  63F601     -0.1328
     31  N31        4.5130   38.3000   45.6600 N.pl3 601  63F601     -0.2884
     32  N32        6.1740   38.9160   47.8730 N.3   601  63F601     -0.1446
     33  N33       -0.6200   34.6720   44.3070 N.am  601  63F601     -0.2021
     34  N34        6.1650   36.2690   48.7620 N.am  601  63F601     -0.1993
     35  O35        0.9850   33.5690   43.1680 O.2   601  63F601     -0.2666
     36  O36        6.4010   35.4840   46.6670 O.2   601  63F601     -0.2718
     37  O37        6.6380   40.6770   49.6710 O.2   601  63F601     -0.1528
     38  O38        8.5020   39.0360   48.9010 O.2   601  63F601     -0.1528
     39  O39       10.7450   32.5400   51.2620 O.3   601  63F601     -0.4045
     40  O40        8.9530   44.0110   44.6990 O.3   601  63F601     -0.4045
     41  F41       12.8980   32.0470   51.0550 F     601  63F601     -0.1328
     42  F42       11.9150   33.0540   49.4160 F     601  63F601     -0.1328
     43  F43       12.3000   34.1840   51.2270 F     601  63F601     -0.1328
     44  F44       11.1250   44.2790   45.1560 F     601  63F601     -0.1328
     45  F45       10.5320   43.2300   43.3620 F     601  63F601     -0.1328
     46  F46       10.1520   45.3760   43.5590 F     601  63F601     -0.1328
     47  S47        7.3380   39.8940   48.6430 S.O2  601  63F601      0.0638
@<TRIPOS>BOND
     1    35    17    2
     2    45    28    1
     3    46    28    1
     4    17    33   am
     5    17    15    1
     6    25    33    1
     7    25    19    1
     8    25    20    1
     9     9    15   ar
    10     9    10   ar
    11    28    40    1
    12    28    44    1
    13    15    29   ar
    14    10    16   ar
    15    40    13    1
    16    19    20    1
    17    29    30   ar
    18    16    30   ar
    19    16    31    1
    20    23    31    1
    21    23    24    1
    22    13     6   ar
    23    13     5   ar
    24    31    21    1
    25     6     8   ar
    26     5     7   ar
    27    21    22    1
    28    36    18    2
    29     8    14   ar
    30    24    18    1
    31    24    32    1
    32     7    14   ar
    33    18    34   am
    34    14    47    1
    35    32    22    1
    36    32    47    1
    37    47    38    2
    38    47    37    2
    39    34    26    1
    40     2     4   ar
    41     2    11   ar
    42    42    27    1
    43    26    11    1
    44     4    12   ar
    45    11     1   ar
    46    27    41    1
    47    27    43    1
    48    27    39    1
    49    12    39    1
    50    12     3   ar
    51     1     3   ar
