@<TRIPOS>MOLECULE
3qgi_33F_A_1.pdb
 48 51 0 0 0
SMALL
GASTEIGER

@<TRIPOS>ATOM
      1  C1         7.5310   33.1940   49.1560 C.ar  601  33F601      0.0006
      2  C2         7.8980   34.9890   50.7780 C.ar  601  33F601      0.0006
      3  C3         8.7320   32.5750   49.5570 C.ar  601  33F601      0.0369
      4  C4         9.0940   34.3620   51.1850 C.ar  601  33F601      0.0369
      5  C5         7.3010   43.2080   46.1420 C.ar  601  33F601      0.0386
      6  C6         9.3240   41.9060   45.6130 C.ar  601  33F601      0.0386
      7  C7         6.9110   42.2410   47.0760 C.ar  601  33F601      0.0230
      8  C8         8.9380   40.9270   46.5560 C.ar  601  33F601      0.0230
      9  C9         2.9950   35.2350   43.7530 C.ar  601  33F601      0.0285
     10  C10        3.9850   36.1710   44.1420 C.ar  601  33F601      0.0379
     11  C11        7.1160   34.3970   49.7620 C.ar  601  33F601     -0.0004
     12  C12        9.5170   33.1580   50.5810 C.ar  601  33F601      0.1468
     13  C13        8.5070   43.0550   45.4140 C.ar  601  33F601      0.1469
     14  C14        7.7300   41.1050   47.2580 C.ar  601  33F601      0.1224
     15  C15        1.6790   35.4210   44.2150 C.ar  601  33F601      0.1577
     16  C16        3.5960   37.2480   44.9800 C.ar  601  33F601      0.1536
     17  C17        0.6000   34.4460   43.8040 C.2   601  33F601      0.2842
     18  C18        6.3430   36.4050   47.2690 C.2   601  33F601      0.2596
     19  C19        4.1280   39.3180   46.2690 C.3   601  33F601      0.1114
     20  C20        4.6410   39.1550   47.7060 C.3   601  33F601      0.1178
     21  C21        5.9470   38.0460   45.3190 C.3   601  33F601      0.1193
     22  C22        6.5630   37.8280   46.7200 C.3   601  33F601      0.1768
     23  C23       -2.6180   35.8880   42.7910 C.3   601  33F601      0.0018
     24  C24       -1.9830   32.6950   45.0280 C.3   601  33F601      0.0234
     25  C25        5.8360   35.0730   49.3270 C.3   601  33F601      0.1415
     26  C26       -2.9660   34.7910   43.8060 C.3   601  33F601      0.0217
     27  C27       -1.7840   33.8270   44.0070 C.3   601  33F601      0.0957
     28  C28       11.8920   33.1310   50.6510 C.3   601  33F601      0.5753
     29  C29       10.1670   44.2160   44.1000 C.3   601  33F601      0.5753
     30  N30        1.3600   36.4700   45.0160 N.ar  601  33F601     -0.1421
     31  N31        2.3060   37.3540   45.4070 N.ar  601  33F601     -0.1328
     32  N32        4.4890   38.1870   45.4090 N.pl3 601  33F601     -0.2884
     33  N33        6.0900   38.8780   47.6640 N.3   601  33F601     -0.1446
     34  N34       -0.6130   34.6530   44.3250 N.am  601  33F601     -0.2021
     35  N35        6.0730   36.2990   48.5840 N.am  601  33F601     -0.1993
     36  O36        0.8420   33.4860   43.0600 O.2   601  33F601     -0.2666
     37  O37        6.4210   35.4310   46.5330 O.2   601  33F601     -0.2718
     38  O38        6.4820   40.6380   49.4870 O.2   601  33F601     -0.1528
     39  O39        8.3880   39.0700   48.7440 O.2   601  33F601     -0.1528
     40  O40       10.6960   32.6200   51.0550 O.3   601  33F601     -0.4045
     41  O41        8.9020   44.0000   44.4960 O.3   601  33F601     -0.4045
     42  F42       12.0020   33.2220   49.3210 F     601  33F601     -0.1328
     43  F43       12.1350   34.3630   51.1580 F     601  33F601     -0.1328
     44  F44       12.8770   32.3010   51.0730 F     601  33F601     -0.1328
     45  F45       11.0330   44.3000   45.1230 F     601  33F601     -0.1328
     46  F46       10.5740   43.2470   43.2710 F     601  33F601     -0.1328
     47  F47       10.1830   45.3890   43.4250 F     601  33F601     -0.1328
     48  S48        7.2190   39.9000   48.4520 S.O2  601  33F601      0.0638
@<TRIPOS>BOND
     1    23    26    1
     2    36    17    2
     3    46    29    1
     4    47    29    1
     5     9    10   ar
     6     9    15   ar
     7    17    15    1
     8    17    34   am
     9    26    27    1
    10    27    34    1
    11    27    24    1
    12    29    41    1
    13    29    45    1
    14    10    16   ar
    15    15    30   ar
    16    41    13    1
    17    16    31   ar
    18    16    32    1
    19    30    31   ar
    20    21    32    1
    21    21    22    1
    22    32    19    1
    23    13     6   ar
    24    13     5   ar
    25     6     8   ar
    26     5     7   ar
    27    19    20    1
    28    37    18    2
    29     8    14   ar
    30    22    18    1
    31    22    33    1
    32     7    14   ar
    33    14    48    1
    34    18    35   am
    35    33    20    1
    36    33    48    1
    37    48    39    2
    38    48    38    2
    39    35    25    1
    40     1     3   ar
    41     1    11   ar
    42    42    28    1
    43    25    11    1
    44     3    12   ar
    45    11     2   ar
    46    12    40    1
    47    12     4   ar
    48    28    40    1
    49    28    44    1
    50    28    43    1
    51     2     4   ar
