@<TRIPOS>MOLECULE
3qgj_III_B_1.pdb
 36 36 0 0 0
SMALL
GASTEIGER

@<TRIPOS>ATOM
      1  C         12.8680   16.9910   91.9280 C.2     1  ACE1        0.2232
      2  O         11.8500   17.2930   91.2650 O.2     1  ACE1       -0.2751
      3  CH3       12.7940   16.8420   93.4440 C.3     1  ACE1        0.0946
      4  N         14.0470   17.0240   91.3480 N.am    2  ALA2       -0.2990
      5  CA        14.2650   17.2530   89.9300 C.3     2  ALA2        0.1391
      6  C         14.5330   15.9140   89.2860 C.2     2  ALA2        0.2587
      7  O         15.1420   14.9830   89.8820 O.2     2  ALA2       -0.2716
      8  CB        15.4660   18.1400   89.7040 C.3     2  ALA2       -0.0325
      9  H         14.7790   16.8430   91.7630 H       2  ALA2        0.1498
     10  HB1       15.3080   18.9900   90.1200 H       2  ALA2        0.0256
     11  HB2       16.2400   17.7250   90.0910 H       2  ALA2        0.0256
     12  HB3       15.5950   18.2570   88.7600 H       2  ALA2        0.0256
     13  N         14.0790   15.7840   88.0240 N.am    3  ALA3       -0.1965
     14  CA        14.3070   14.5180   87.2970 C.3     3  ALA3        0.1713
     15  C         14.5490   14.9000   85.8380 C.2     3  ALA3        0.2458
     16  O         14.0350   15.9220   85.3650 O.2     3  ALA3       -0.2730
     17  CB        13.0450   13.6430   87.3670 C.3     3  ALA3        0.0333
     18  N         15.3120   14.1130   85.0950 N.am    4  PRO4       -0.2716
     19  CA        15.5000   14.4160   83.6640 C.3     4  PRO4        0.1518
     20  C         14.1840   14.2200   82.9630 C.2     4  PRO4        0.2403
     21  O         13.3530   13.3490   83.3310 O.2     4  PRO4       -0.2733
     22  CB        16.5100   13.4080   83.1660 C.3     4  PRO4        0.0310
     23  CG        17.1400   12.7950   84.4920 C.3     4  PRO4        0.0237
     24  CD        16.1000   12.9460   85.5910 C.3     4  PRO4        0.0939
     25  C1        13.3960   14.2310   79.6270 C.3     5  2A15        0.1007
     26  N1        13.9390   14.9660   81.8540 N.am    5  2A15       -0.3083
     27  O1        12.3790   13.9190   78.7080 O.3     5  2A15       -0.3873
     28  C2        12.8230   14.6840   80.9430 C.3     5  2A15        0.0488
     29  C3        12.0400   15.9850   80.8980 C.3     5  2A15       -0.0441
     30  H1A       14.0390   13.3560   79.7960 H       5  2A15        0.0638
     31 HN1A       14.5920   15.6890   81.5550 H       5  2A15        0.1491
     32  HO1       12.5030   13.0170   78.3840 H       5  2A15        0.2100
     33  H2        12.1600   13.8950   81.3270 H       5  2A15        0.0522
     34  H3        11.5090   16.1070   81.8060 H       5  2A15        0.0248
     35  H3A       11.3540   15.9580   80.0920 H       5  2A15        0.0248
     36  H3B       12.7020   16.8020   80.7670 H       5  2A15        0.0248
@<TRIPOS>BOND
     1    32    27    1
     2    27    25    1
     3    25    30    1
     4    25    28    1
     5    35    29    1
     6    36    29    1
     7    29    28    1
     8    29    34    1
     9    28    33    1
    10    28    26    1
    11    31    26    1
    12    26    20   am
    13    20    21    2
    14    20    19    1
    15    22    19    1
    16    22    23    1
    17    19    18    1
    18    23    24    1
    19    18    24    1
    20    18    15   am
    21    16    15    2
    22    15    14    1
    23    14    17    1
    24    14    13    1
    25    13     6   am
    26    12     8    1
    27     6     7    2
    28     6     5    1
    29     8     5    1
    30     8    11    1
    31     8    10    1
    32     5     4    1
    33     2     1    2
    34     4     9    1
    35     4     1   am
    36     1     3    1
