@<TRIPOS>MOLECULE
3qgl_III_F_1.pdb
 47 46 0 0 0
SMALL
GASTEIGER

@<TRIPOS>ATOM
      1  N         28.2170    5.1180   34.9210 N.3   201  GLU201     -0.1231
      2  CA        29.3670    5.7820   34.2380 C.3   201  GLU201      0.1699
      3  C         30.2680    4.8900   33.3690 C.2   201  GLU201      0.2593
      4  O         31.0780    4.1090   33.9070 O.2   201  GLU201     -0.2718
      5  CB        30.2330    6.5210   35.2670 C.3   201  GLU201      0.0402
      6  CG        29.9110    8.0010   35.3520 C.3   201  GLU201      0.1161
      7  CD        29.4250    8.5590   34.0120 C.2   201  GLU201      0.3649
      8  OE1       28.5750    9.4810   34.0290 O.co2 201  GLU201     -0.2457
      9  OE2       29.8720    8.0590   32.9440 O.co2 201  GLU201     -0.2457
     10  N         30.1520    5.0220   32.0390 N.am  202  SER202     -0.1938
     11  CA        30.9580    4.2030   31.1010 C.3   202  SER202      0.2055
     12  C         30.8900    4.5820   29.6100 C.2   202  SER202      0.2643
     13  O         29.8710    5.0580   29.1340 O.2   202  SER202     -0.2714
     14  CB        30.6630    2.7040   31.2710 C.3   202  SER202      0.2130
     15  OG        31.7070    1.9160   30.6930 O.3   202  SER202     -0.2179
     16  N         31.9880    4.3280   28.8930 N.am  203  GLU203     -0.1963
     17  CA        32.1590    4.6630   27.4700 C.3   203  GLU203      0.1733
     18  C         32.2130    3.4280   26.5570 C.2   203  GLU203      0.2617
     19  O         32.7140    2.3760   26.9650 O.2   203  GLU203     -0.2715
     20  CB        33.4720    5.4470   27.3120 C.3   203  GLU203      0.0429
     21  CG        34.0120    5.5520   25.8690 C.3   203  GLU203      0.1163
     22  CD        34.9190    6.7540   25.6460 C.2   203  GLU203      0.3649
     23  OE1       34.6690    7.5250   24.6910 O.co2 203  GLU203     -0.2457
     24  OE2       35.8760    6.9340   26.4310 O.co2 203  GLU203     -0.2457
     25  N         31.7220    3.5670   25.3220 N.am  204  SER204     -0.1936
     26  CA        31.9100    2.5440   24.2900 C.3   204  SER204      0.2055
     27  C         32.2580    3.1140   22.9350 C.2   204  SER204      0.2643
     28  O         31.7800    4.1820   22.5450 O.2   204  SER204     -0.2714
     29  CB        30.6880    1.6710   24.1430 C.3   204  SER204      0.2130
     30  OG        30.4340    1.0100   25.3540 O.3   204  SER204     -0.2179
     31  N         33.1030    2.3790   22.2220 N.am  205  LYS205     -0.1963
     32  CA        33.5140    2.7350   20.8770 C.3   205  LYS205      0.1728
     33  C         32.6370    1.9460   19.9110 C.2   205  LYS205      0.2617
     34  O         32.4720    0.7220   20.0510 O.2   205  LYS205     -0.2715
     35  CB        34.9840    2.3730   20.6850 C.3   205  LYS205      0.0311
     36  CG        35.6780    3.1870   19.6280 C.3   205  LYS205      0.0038
     37  CD        35.2630    2.7740   18.2000 C.3   205  LYS205      0.0206
     38  CE        35.8010    3.7660   17.1350 C.3   205  LYS205      0.1093
     39  NZ        37.3270    3.9150   17.1270 N.3   205  LYS205     -0.1314
     40  N         32.0530    2.6230   18.9310 N.am  206  VAL206     -0.1942
     41  CA        31.0370    1.9110   18.1410 C.3   206  VAL206      0.1977
     42  C         31.2170    1.8870   16.5880 C.2   206  VAL206      0.3842
     43  O         30.3310    1.4400   15.8300 O.co2 206  VAL206     -0.2437
     44  CB        29.5840    2.2340   18.6590 C.3   206  VAL206      0.0311
     45  CG1       29.1040    3.5930   18.2130 C.3   206  VAL206      0.0023
     46  CG2       28.6280    1.1500   18.2670 C.3   206  VAL206      0.0023
     47  OXT       32.2840    2.2820   16.0540 O.co2 206  VAL206     -0.2437
@<TRIPOS>BOND
     1    43    42   ar
     2    47    42   ar
     3    42    41    1
     4    39    38    1
     5    38    37    1
     6    41    44    1
     7    41    40    1
     8    37    36    1
     9    45    44    1
    10    46    44    1
    11    40    33   am
    12    36    35    1
    13    33    34    2
    14    33    32    1
    15    35    32    1
    16    32    31    1
    17    31    27   am
    18    28    27    2
    19    27    26    1
    20    29    26    1
    21    29    30    1
    22    26    25    1
    23    23    22   ar
    24    25    18   am
    25    22    21    1
    26    22    24   ar
    27    21    20    1
    28    18    19    2
    29    18    17    1
    30    20    17    1
    31    17    16    1
    32    16    12   am
    33    13    12    2
    34    12    11    1
    35    15    14    1
    36    11    14    1
    37    11    10    1
    38    10     3   am
    39     9     7   ar
    40     3     4    2
    41     3     2    1
    42     7     8   ar
    43     7     6    1
    44     2     1    1
    45     2     5    1
    46     5     6    1
