@<TRIPOS>MOLECULE
3qgo_0A9_A_1.pdb
 13 13 0 0 0
SMALL
GASTEIGER

@<TRIPOS>ATOM
      1  N         40.1180   10.1610   38.3680 N.3   406  0A9406     -0.1271
      2  CA        38.9200   10.6260   39.0840 C.3   406  0A9406      0.1552
      3  C         38.8630   12.1210   38.6870 C.3   406  0A9406      0.2870
      4  CB        39.0380   10.3660   40.5850 C.3   406  0A9406      0.0506
      5  CG        37.8270   10.7300   41.3720 C.ar  406  0A9406     -0.0206
      6  CD1       36.5610   10.2660   41.0730 C.ar  406  0A9406     -0.0042
      7  CD2       38.0540   11.5250   42.4760 C.ar  406  0A9406     -0.0042
      8  CE1       35.5070   10.6200   41.8950 C.ar  406  0A9406     -0.0003
      9  CE2       36.9940   11.9120   43.3090 C.ar  406  0A9406     -0.0003
     10  CZ        35.7110   11.4350   43.0220 C.ar  406  0A9406     -0.0000
     11  O         37.8370   12.8620   38.9780 O.3   406  0A9406     -0.1883
     12  CM        39.9680   14.2220   38.4900 C.3   406  0A9406      0.1770
     13  OXT       40.0050   12.8580   38.9550 O.3   406  0A9406     -0.3247
@<TRIPOS>BOND
     1     1     2    1
     2    12    13    1
     3     3    13    1
     4     3    11    1
     5     3     2    1
     6     2     4    1
     7     4     5    1
     8     6     5   ar
     9     6     8   ar
    10     5     7   ar
    11     8    10   ar
    12     7     9   ar
    13    10     9   ar
