@<TRIPOS>MOLECULE
3qgp_HEM_A_1.pdb
 43 50 0 0 0
SMALL
GASTEIGER

@<TRIPOS>ATOM
      1  CHA      -10.5560  -28.3230   12.3940 C.2   200  HEM200      0.0000
      2  CHB      -15.2880  -28.6190   13.3590 C.2   200  HEM200      0.0000
      3  CHC      -15.6360  -26.0020    9.2920 C.2   200  HEM200      0.0000
      4  CHD      -11.7470  -23.7590   11.1470 C.2   200  HEM200      0.0000
      5  C1A      -11.7450  -28.7670   12.9660 C.2   200  HEM200      0.0000
      6  C2A      -11.9390  -29.8100   13.9640 C.2   200  HEM200      0.0000
      7  C3A      -13.2530  -29.8780   14.2370 C.2   200  HEM200      0.0000
      8  C4A      -13.9390  -28.8960   13.4210 C.2   200  HEM200      0.0000
      9  CMA      -13.9480  -30.8330   15.2410 C.3   200  HEM200      0.0000
     10  CAA      -10.8330  -30.7010   14.5810 C.3   200  HEM200      0.0000
     11  CBA      -10.9550  -32.0600   13.8620 C.3   200  HEM200      0.0000
     12  CGA      -10.1350  -33.1510   14.4950 C.2   200  HEM200      0.0000
     13  O1A      -10.5520  -33.7290   15.5370 O.co2 200  HEM200      0.0000
     14  O2A       -9.0340  -33.4380   13.9480 O.co2 200  HEM200      0.0000
     15  C1B      -15.8570  -28.0530   12.2320 C.ar  200  HEM200      0.0000
     16  C2B      -17.2090  -28.1980   11.7390 C.ar  200  HEM200      0.0000
     17  C3B      -17.3020  -27.4880   10.6000 C.ar  200  HEM200      0.0000
     18  C4B      -16.0240  -26.8510   10.3220 C.ar  200  HEM200      0.0000
     19  CMB      -18.3240  -29.0320   12.4270 C.3   200  HEM200      0.0000
     20  CAB      -18.5590  -27.3570    9.7270 C.2   200  HEM200      0.0000
     21  CBB      -18.4890  -27.7300    8.4510 C.2   200  HEM200      0.0000
     22  C1C      -14.7060  -25.0030    9.5340 C.2   200  HEM200      0.0000
     23  C2C      -14.6780  -23.6460    9.0340 C.2   200  HEM200      0.0000
     24  C3C      -13.6080  -23.0260    9.5380 C.2   200  HEM200      0.0000
     25  C4C      -12.9020  -23.9630   10.3960 C.2   200  HEM200      0.0000
     26  CMC      -15.7110  -23.0380    8.0600 C.3   200  HEM200      0.0000
     27  CAC      -13.2080  -21.5670    9.2800 C.2   200  HEM200      0.0000
     28  CBC      -12.7440  -20.8210   10.2970 C.2   200  HEM200      0.0000
     29  C1D      -10.9570  -24.8190   11.5390 C.ar  200  HEM200      0.0000
     30  C2D       -9.5330  -24.8040   11.7660 C.ar  200  HEM200      0.0000
     31  C3D       -9.1320  -26.2250   12.1220 C.ar  200  HEM200      0.0000
     32  C4D      -10.3670  -26.9900   12.0920 C.ar  200  HEM200      0.0000
     33  CMD       -8.5880  -23.5940   11.6560 C.3   200  HEM200      0.0000
     34  CAD       -7.6760  -26.6780   12.4050 C.3   200  HEM200      0.0000
     35  CBD       -7.1200  -26.9370   10.9940 C.3   200  HEM200      0.0000
     36  CGD       -5.6210  -27.1920   10.9350 C.2   200  HEM200      0.0000
     37  O1D       -4.9760  -27.2750   12.0030 O.co2 200  HEM200      0.0000
     38  O2D       -5.0790  -27.3160    9.8030 O.co2 200  HEM200      0.0000
     39  NA       -12.9930  -28.2220   12.6780 N.2   200  HEM200      0.0000
     40  NB       -15.1920  -27.2260   11.3470 N.ar  200  HEM200      0.0000
     41  NC       -13.6130  -25.1560   10.3630 N.2   200  HEM200      0.0000
     42  ND       -11.3980  -26.1190   11.7360 N.ar  200  HEM200      0.0000
     43 FE        -13.2890  -26.6760   11.5230 Fe    200  HEM200      0.0000
@<TRIPOS>BOND
     1    26    23    1
     2    21    20    2
     3    23    22    1
     4    23    24    2
     5    27    24    1
     6    27    28    2
     7     3    22    2
     8     3    18    1
     9    22    41    1
    10    24    25    1
    11    20    17    1
    12    38    36   ar
    13    18    17   ar
    14    18    40   ar
    15    41    25    2
    16    41    43    1
    17    25     4    1
    18    17    16   ar
    19    36    35    1
    20    36    37   ar
    21    35    34    1
    22     4    29    2
    23    40    43    1
    24    40    15   ar
    25    43    42    1
    26    43    39    1
    27    29    42   ar
    28    29    30   ar
    29    33    30    1
    30    42    32   ar
    31    16    15   ar
    32    16    19    1
    33    30    31   ar
    34    32    31   ar
    35    32     1    2
    36    31    34    1
    37    15     2    1
    38     1     5    1
    39    39     5    2
    40    39     8    1
    41     5     6    1
    42     2     8    2
    43     8     7    1
    44    11    12    1
    45    11    10    1
    46    14    12   ar
    47     6     7    2
    48     6    10    1
    49     7     9    1
    50    12    13   ar
