@<TRIPOS>MOLECULE
3qgt_UMP_A_1.pdb
 20 21 0 0 0
SMALL
GASTEIGER

@<TRIPOS>ATOM
      1  N1        44.4770   20.1370   19.6040 N.am  611  UMP611     -0.1790
      2  C2        43.6870   19.6170   20.6600 C.1   611  UMP611      0.2844
      3  N3        42.8610   20.5690   21.2740 N.2   611  UMP611     -0.2452
      4  C4        42.7580   21.9410   20.9360 C.1   611  UMP611      0.2182
      5  C5        43.6080   22.3860   19.8310 C.2   611  UMP611      0.1242
      6  C6        44.4390   21.4410   19.2120 C.2   611  UMP611      0.0928
      7  O2        43.6910   18.4520   21.0430 O.2   611  UMP611     -0.1918
      8  O4        42.0110   22.7060   21.5270 O.2   611  UMP611     -0.2085
      9  C1'       45.4360   19.3000   18.8140 C.3   611  UMP611      0.2090
     10  C2'       44.9190   18.2170   17.8450 C.3   611  UMP611      0.0874
     11  C3'       46.0820   18.0060   16.8720 C.3   611  UMP611      0.1857
     12  C4'       46.7790   19.3750   16.6670 C.3   611  UMP611      0.1774
     13  O3'       47.0070   17.0990   17.5320 O.3   611  UMP611     -0.2203
     14  O4'       46.3820   20.0570   17.9200 O.3   611  UMP611     -0.3339
     15  C5'       46.1700   20.1730   15.5090 C.3   611  UMP611      0.1858
     16  O5'       46.6420   19.6300   14.2390 O.3   611  UMP611     -0.2675
     17  P         45.7140   19.4030   13.0020 P.3   611  UMP611      0.5327
     18  OP1       46.5000   18.9920   11.8580 O.2   611  UMP611     -0.2224
     19  OP2       44.7830   18.3330   13.4030 O.3   611  UMP611     -0.1145
     20  OP3       45.0080   20.6320   12.6500 O.3   611  UMP611     -0.1145
@<TRIPOS>BOND
     1    18    17    2
     2    20    17    1
     3    17    19    1
     4    17    16    1
     5    16    15    1
     6    15    12    1
     7    12    11    1
     8    12    14    1
     9    11    13    1
    10    11    10    1
    11    10     9    1
    12    14     9    1
    13     9     1    1
    14     6     1    1
    15     6     5    2
    16     1     2   am
    17     5     4    1
    18     2     7    2
    19     2     3    2
    20     4     3    2
    21     4     8    2
