@<TRIPOS>MOLECULE
3qgt_NDP_A_1.pdb
 48 52 0 0 0
SMALL
GASTEIGER

@<TRIPOS>ATOM
      1  PA        33.6120    4.3570   68.7210 P.3   610  NDP610      0.2189
      2  O1A       34.5020    3.4530   68.0840 O.2   610  NDP610     -0.5170
      3  O2A       32.2430    4.6790   68.1980 O.3   610  NDP610     -0.4371
      4  O5B       33.3410    3.7370   70.2150 O.3   610  NDP610     -0.3112
      5  C5B       34.4130    3.5490   71.1090 C.3   610  NDP610      0.1813
      6  C4B       33.7340    2.8780   72.2780 C.3   610  NDP610      0.1820
      7  O4B       33.2160    1.6140   71.7770 O.3   610  NDP610     -0.3136
      8  C3B       34.5650    2.5170   73.4380 C.3   610  NDP610      0.2157
      9  O3B       35.0220    3.5890   74.2810 O.3   610  NDP610     -0.2175
     10  C2B       33.8630    1.3960   74.0660 C.3   610  NDP610      0.2314
     11  O2B       32.6710    1.7080   74.7960 O.3   610  NDP610     -0.2630
     12  C1B       33.5980    0.6620   72.7650 C.3   610  NDP610      0.3158
     13  N9A       34.6290   -0.3090   72.2970 N.pl3 610  NDP610     -0.1439
     14  C8A       35.5030   -0.2090   71.1880 C.3   610  NDP610      0.3377
     15  N7A       36.2740   -1.2690   71.0920 N.2   610  NDP610     -0.2095
     16  C5A       35.9290   -2.0870   72.1240 C.2   610  NDP610      0.2526
     17  C6A       36.3790   -3.3600   72.5740 C.2   610  NDP610      0.4393
     18  N6A       37.3500   -4.0030   71.9370 N.pl3 610  NDP610      0.2180
     19  N1A       35.8050   -3.9120   73.6670 N.2   610  NDP610      0.0021
     20  C2A       34.8150   -3.2600   74.3240 C.3   610  NDP610      0.5254
     21  N3A       34.3190   -2.0580   73.9880 N.2   610  NDP610     -0.0055
     22  C4A       34.9240   -1.5190   72.8690 C.2   610  NDP610      0.3518
     23  O3        34.2950    5.7470   69.0440 O.3   610  NDP610     -0.2703
     24  PN        34.9870    6.9710   68.2680 P.3   610  NDP610      0.2189
     25  O1N       34.9890    8.1260   69.1790 O.3   610  NDP610     -0.4371
     26  O2N       36.2340    6.4270   67.7030 O.2   610  NDP610     -0.5170
     27  O5D       33.9430    7.0960   67.0450 O.3   610  NDP610     -0.3112
     28  C5D       32.7030    7.9070   67.1350 C.3   610  NDP610      0.1813
     29  C4D       32.8560    9.1380   66.1630 C.3   610  NDP610      0.1799
     30  O4D       33.0240    8.6330   64.8630 O.3   610  NDP610     -0.3327
     31  C3D       31.5540    9.9510   66.0850 C.3   610  NDP610      0.2158
     32  O3D       31.8260   11.3430   65.8820 O.3   610  NDP610     -0.2175
     33  C2D       30.7290    9.3410   64.9920 C.3   610  NDP610      0.2309
     34  O2D       29.8890   10.3160   64.4090 O.3   610  NDP610     -0.2158
     35  C1D       31.9260    8.9890   64.0210 C.3   610  NDP610      0.2263
     36  N1N       31.7010    7.8400   63.1230 N.pl3 610  NDP610     -0.2787
     37  C2N       31.9260    8.1240   61.7650 C.3   610  NDP610      0.1244
     38  C3N       31.7810    7.0280   60.8300 C.2   610  NDP610      0.0544
     39  C7N       32.0110    7.2730   59.3980 C.2   610  NDP610      0.2818
     40  O7N       31.9270    6.3940   58.5110 O.2   610  NDP610     -0.2670
     41  N7N       32.3340    8.5150   58.9820 N.am  610  NDP610     -0.0839
     42  C4N       31.4290    5.7600   61.3330 C.2   610  NDP610      0.0033
     43  C5N       31.2000    5.5110   62.6790 C.2   610  NDP610      0.0157
     44  C6N       31.3380    6.5470   63.5820 C.2   610  NDP610      0.0633
     45  P2B       32.6030    2.1200   76.2890 P.3   610  NDP610      0.5328
     46  O1X       33.0890    3.5080   76.3000 O.2   610  NDP610     -0.2224
     47  O2X       31.2130    1.9760   76.7480 O.3   610  NDP610     -0.1145
     48  O3X       33.5240    1.1990   77.1010 O.3   610  NDP610     -0.1145
@<TRIPOS>BOND
     1    40    39    2
     2    41    39   am
     3    39    38    1
     4    38    42    2
     5    38    37    1
     6    42    43    1
     7    37    36    1
     8    43    44    2
     9    36    44    1
    10    36    35    1
    11    35    30    1
    12    35    33    1
    13    34    33    1
    14    30    29    1
    15    33    31    1
    16    32    31    1
    17    31    29    1
    18    29    28    1
    19    27    28    1
    20    27    24    1
    21    26    24    2
    22     2     1    2
    23     3     1    1
    24    24    23    1
    25    24    25    1
    26     1    23    1
    27     1     4    1
    28     4     5    1
    29    15    14    1
    30    15    16    2
    31     5     6    1
    32    14    13    1
    33     7     6    1
    34     7    12    1
    35    18    17    1
    36    16    17    1
    37    16    22    1
    38     6     8    1
    39    13    12    1
    40    13    22    1
    41    17    19    2
    42    12    10    1
    43    22    21    2
    44     8    10    1
    45     8     9    1
    46    19    20    1
    47    21    20    1
    48    10    11    1
    49    11    45    1
    50    45    46    2
    51    45    47    1
    52    45    48    1
