@<TRIPOS>MOLECULE
3qgt_CP6_A_1.pdb
 17 18 0 0 0
SMALL
GASTEIGER

@<TRIPOS>ATOM
      1  N1        29.8320    4.3010   56.4930 N.2   609  CP6609     -0.3112
      2  C2        29.1630    5.1030   55.5520 C.1   609  CP6609      0.2419
      3  C3        29.4530    4.3400   57.8040 C.2   609  CP6609      0.2201
      4  C4        28.3790    5.2200   58.2990 C.3   609  CP6609      0.1421
      5  C5        27.7060    6.0270   57.2380 C.2   609  CP6609      0.1122
      6  N6        28.1240    5.9800   55.9020 N.2   609  CP6609     -0.3339
      7  C7        27.9500    5.2890   59.6870 C.ar  609  CP6609     -0.0080
      8  C8        28.2060    6.4670   60.4760 C.ar  609  CP6609     -0.0026
      9  C9        27.7970    6.5660   61.8160 C.ar  609  CP6609      0.0111
     10  C10       27.1260    5.4870   62.4210 C.ar  609  CP6609      0.0577
     11  C11       26.8440    4.2720   61.7120 C.ar  609  CP6609      0.0111
     12  C12       27.2660    4.1980   60.3440 C.ar  609  CP6609     -0.0026
     13  N13       30.0880    3.5990   58.7370 N.pl3 609  CP6609     -0.0962
     14  N14       29.5830    5.0340   54.2090 N.pl3 609  CP6609     -0.0232
     15  C15       26.5290    6.9810   57.6050 C.3   609  CP6609      0.0563
     16  C16       25.8650    7.8160   56.5510 C.3   609  CP6609      0.0075
     17 CL1        26.6800    5.7380   64.0060 Cl    609  CP6609     -0.0822
@<TRIPOS>BOND
     1    14     2    1
     2     2     6    2
     3     2     1    2
     4     6     5    2
     5     1     3    2
     6    16    15    1
     7     5    15    1
     8     5     4    1
     9     3     4    1
    10     3    13    1
    11     4     7    1
    12     7    12   ar
    13     7     8   ar
    14    12    11   ar
    15     8     9   ar
    16    11    10   ar
    17     9    10   ar
    18    10    17    1
