@<TRIPOS>MOLECULE
3qgw_L7A_B_1.pdb
 22 24 0 0 0
SMALL
GASTEIGER

@<TRIPOS>ATOM
      1  C1        34.3620   50.8050   14.6030 C.ar    1  L7A1        0.0554
      2  N1        43.1850   52.1670   13.4250 N.ar    1  L7A1       -0.2423
      3  O1        36.0470   48.7250   10.5880 O.2     1  L7A1       -0.2206
      4  C2        34.2000   51.5540   15.8710 C.ar    1  L7A1        0.0046
      5  N2        35.8810   50.0640   12.9120 N.am    1  L7A1       -0.1636
      6  O2        36.6430   51.4450   14.6700 O.2     1  L7A1       -0.2680
      7  C3        32.8650   51.6010   16.4970 C.ar    1  L7A1        0.0001
      8  N3        38.3170   48.9990   10.2600 N.2     1  L7A1       -0.1736
      9  C4        31.7140   50.9270   15.8440 C.ar    1  L7A1        0.0000
     10  C5        31.8710   50.2000   14.5630 C.ar    1  L7A1        0.0001
     11  C6        33.1990   50.1200   13.9350 C.ar    1  L7A1        0.0046
     12  C7        35.7760   50.8160   14.0640 C.2     1  L7A1        0.2696
     13  C8        39.5590   49.5830   10.6660 C.2     1  L7A1        0.1111
     14  C9        39.4920   50.3340   11.9270 C.2     1  L7A1        0.0221
     15  C10       38.2560   50.5210   12.7100 C.2     1  L7A1        0.0300
     16  C11       37.0710   49.9500   12.2630 C.2     1  L7A1        0.1562
     17  C12       37.0940   49.1770   10.9950 C.1     1  L7A1        0.1702
     18  C13       41.9380   52.7170   13.9240 C.ar    1  L7A1        0.0989
     19  C14       43.3610   51.1020   12.4820 C.ar    1  L7A1        0.0989
     20  C15       42.1480   50.5060   11.9680 C.ar    1  L7A1        0.0207
     21  C16       40.7840   51.0280   12.4450 C.ar    1  L7A1        0.0047
     22  C17       40.6940   52.1460   13.4350 C.ar    1  L7A1        0.0207
@<TRIPOS>BOND
     1     8    13    1
     2     8    17    2
     3     3    17    2
     4    13    14    2
     5    17    16    1
     6    14    21    1
     7    14    15    1
     8    20    21   ar
     9    20    19   ar
    10    16    15    2
    11    16     5    1
    12    21    22   ar
    13    19     2   ar
    14     5    12   am
    15     2    18   ar
    16    22    18   ar
    17    11    10   ar
    18    11     1   ar
    19    12     1    1
    20    12     6    2
    21    10     9   ar
    22     1     4   ar
    23     9     7   ar
    24     4     7   ar
