@<TRIPOS>MOLECULE
3qgw_PQC_A_1.pdb
 30 34 0 0 0
SMALL
GASTEIGER

@<TRIPOS>ATOM
      1  C1        18.8490   -7.5860    4.2720 C.ar    1  PQC1        0.0067
      2  C2        19.8190   -6.9010    3.1530 C.ar    1  PQC1        0.0047
      3  C3        19.5720   -8.6200    5.1960 C.ar    1  PQC1        0.0320
      4  C4        20.9820   -8.9790    5.0870 C.ar    1  PQC1        0.0371
      5  C5        21.4400   -9.9420    6.0650 C.ar    1  PQC1        0.0095
      6  S6        18.8820   -9.5270    6.5250 S.2     1  PQC1       -0.0869
      7  C7        20.3380  -10.3160    6.9340 C.ar    1  PQC1        0.0295
      8  C8        20.4560  -11.2310    8.0670 C.ar    1  PQC1        0.0060
      9  C9        19.3000  -11.3780    8.9430 C.ar    1  PQC1        0.0005
     10  C10       21.7010  -11.9280    8.3680 C.ar    1  PQC1        0.0005
     11  C11       21.7390  -12.7410    9.5550 C.ar    1  PQC1        0.0000
     12  C12       20.5780  -12.8790   10.4320 C.ar    1  PQC1        0.0000
     13  C13       21.8740   -8.4480    4.0400 C.ar    1  PQC1        0.1460
     14  C14       21.2820   -7.4620    3.0170 C.ar    1  PQC1        0.0505
     15  C15       22.1230   -7.0780    2.0190 C.2     1  PQC1        0.1143
     16  N16       23.4220   -7.5040    1.9140 N.2     1  PQC1       -0.1683
     17  N17       23.2850   -8.8790    3.9090 N.2     1  PQC1       -0.3361
     18  C18       24.0030   -8.3830    2.8240 C.1     1  PQC1        0.1696
     19  N19       25.3680   -8.6950    2.6960 N.pl3   1  PQC1       -0.1357
     20  C20       26.0160   -9.7650    3.4740 C.ar    1  PQC1        0.0839
     21  C21       25.5840  -10.2750    4.8070 C.ar    1  PQC1        0.0373
     22  C22       27.3010  -10.2600    3.0330 C.ar    1  PQC1        0.0174
     23  C23       28.2100  -11.1700    3.6630 C.ar    1  PQC1        0.0027
     24  C24       27.7580  -11.6380    4.9230 C.ar    1  PQC1        0.0201
     25  C25       26.4490  -11.2300    5.5480 C.ar    1  PQC1        0.1264
     26  S26       26.0650  -11.8560    7.1860 S.O2    1  PQC1        0.0935
     27  O27       27.3550  -12.4570    7.7800 O.2     1  PQC1       -0.1503
     28  O28       24.8070  -12.4580    7.1500 O.2     1  PQC1       -0.1503
     29  N29       25.6990  -10.3520    8.1870 N.3     1  PQC1        0.0392
     30  C30       19.3620  -12.1790   10.1070 C.ar    1  PQC1        0.0000
@<TRIPOS>BOND
     1    16    15    1
     2    16    18    2
     3    15    14    2
     4    19    18    1
     5    19    20    1
     6    18    17    2
     7    14     2   ar
     8    14    13   ar
     9    22    20   ar
    10    22    23   ar
    11     2     1   ar
    12    20    21   ar
    13    23    24   ar
    14    17    13    2
    15    13     4   ar
    16     1     3   ar
    17    21    25   ar
    18    24    25   ar
    19     4     3   ar
    20     4     5   ar
    21     3     6   ar
    22    25    26    1
    23     5     7   ar
    24     6     7   ar
    25     7     8    1
    26    28    26    2
    27    26    27    2
    28    26    29    1
    29     8    10   ar
    30     8     9   ar
    31    10    11   ar
    32     9    30   ar
    33    11    12   ar
    34    30    12   ar
