@<TRIPOS>MOLECULE
3qgy_PQC_A_1.pdb
 30 34 0 0 0
SMALL
GASTEIGER

@<TRIPOS>ATOM
      1  C1        19.2970   -7.9620    4.0200 C.3     1  PQC1        0.0378
      2  C2        20.1870   -7.0360    3.1240 C.3     1  PQC1        0.0358
      3  C3        20.0490   -8.8480    5.0240 C.ar    1  PQC1        0.0101
      4  C4        21.4290   -9.0680    4.9740 C.ar    1  PQC1        0.0328
      5  C5        21.9540   -9.9160    5.9940 C.ar    1  PQC1        0.0092
      6  S6        19.4190   -9.6990    6.3290 S.2     1  PQC1       -0.0912
      7  C7        20.9170  -10.3480    6.8330 C.ar    1  PQC1        0.0292
      8  C8        21.0240  -11.2760    8.0230 C.ar    1  PQC1        0.0060
      9  C9        19.8510  -11.4970    8.8170 C.ar    1  PQC1        0.0005
     10  C10       22.2240  -11.9660    8.3940 C.ar    1  PQC1        0.0005
     11  C11       22.2660  -12.8360    9.5050 C.ar    1  PQC1        0.0000
     12  C12       21.0940  -13.0380   10.2720 C.ar    1  PQC1        0.0000
     13  C13       22.2120   -8.4540    3.8660 C.2     1  PQC1        0.1418
     14  C14       21.6300   -7.5180    2.9470 C.2     1  PQC1        0.0286
     15  C15       22.4840   -7.0510    1.9040 C.2     1  PQC1        0.1100
     16  N16       23.7750   -7.4770    1.8250 N.2     1  PQC1       -0.1687
     17  N17       23.5200   -8.8270    3.7150 N.2     1  PQC1       -0.3365
     18  C18       24.2930   -8.3620    2.7220 C.1     1  PQC1        0.1696
     19  N19       25.6420   -8.7590    2.6090 N.pl3   1  PQC1       -0.1357
     20  C20       26.4510   -9.6330    3.4330 C.ar    1  PQC1        0.0839
     21  C21       26.0680  -10.1240    4.7250 C.ar    1  PQC1        0.0373
     22  C22       27.7380  -10.0380    2.9430 C.ar    1  PQC1        0.0174
     23  C23       28.6080  -10.8920    3.6850 C.ar    1  PQC1        0.0027
     24  C24       28.1960  -11.3630    4.9660 C.ar    1  PQC1        0.0201
     25  C25       26.9130  -10.9790    5.5000 C.ar    1  PQC1        0.1264
     26  S26       26.3460  -11.4930    7.1230 S.O2    1  PQC1        0.0935
     27  O27       27.2760  -10.8830    8.0690 O.2     1  PQC1       -0.1503
     28  O28       26.0070  -12.8970    7.1390 O.2     1  PQC1       -0.1503
     29  N29       24.8160  -10.7050    7.4270 N.3     1  PQC1        0.0392
     30  C30       19.8800  -12.3660    9.9320 C.ar    1  PQC1        0.0000
@<TRIPOS>BOND
     1    16    15    1
     2    16    18    2
     3    15    14    2
     4    19    18    1
     5    19    20    1
     6    18    17    2
     7    22    20   ar
     8    22    23   ar
     9    14     2    1
    10    14    13    1
    11     2     1    1
    12    20    21   ar
    13    23    24   ar
    14    17    13    2
    15    13     4    1
    16     1     3    1
    17    21    25   ar
    18    24    25   ar
    19     4     3   ar
    20     4     5   ar
    21     3     6   ar
    22    25    26    1
    23     5     7   ar
    24     6     7   ar
    25     7     8    1
    26    26    28    2
    27    26    29    1
    28    26    27    2
    29     8    10   ar
    30     8     9   ar
    31    10    11   ar
    32     9    30   ar
    33    11    12   ar
    34    30    12   ar
