@<TRIPOS>MOLECULE
3qgy_L7O_B_1.pdb
 30 33 0 0 0
SMALL
GASTEIGER

@<TRIPOS>ATOM
      1  C1        28.9280   50.9070   14.3010 C.3     1  L7O1        0.0908
      2  N1        29.7500   50.1450   15.2900 N.pl3   1  L7O1       -0.3075
      3  O1        36.2040   48.6490   10.6270 O.2     1  L7O1       -0.2209
      4  C2        27.4810   51.0710   14.8760 C.3     1  L7O1        0.0215
      5  N2        35.6400   50.0070   12.7670 N.am    1  L7O1       -0.1677
      6  O2        36.1370   51.1290   14.6900 O.2     1  L7O1       -0.2680
      7  C3        26.8510   49.6880   15.2270 C.3     1  L7O1        0.0035
      8  N3        38.4500   49.0740   10.4480 N.2     1  L7O1       -0.1741
      9  C4        27.8020   48.8470   16.1290 C.3     1  L7O1        0.0215
     10  N4        44.2690   50.7900   12.4940 N.pl3   1  L7O1       -0.1602
     11  C5        29.2330   48.7670   15.5270 C.3     1  L7O1        0.0908
     12  N5        42.9310   52.3110   13.7590 N.2     1  L7O1       -0.1686
     13  C6        33.0410   49.6470   13.5030 C.ar    1  L7O1        0.0058
     14  N6        41.8530   50.7300   12.3360 N.2     1  L7O1       -0.3366
     15  C7        35.3220   50.5510   13.9620 C.2     1  L7O1        0.2694
     16  C8        39.5870   49.6970   10.9450 C.2     1  L7O1        0.1098
     17  C9        39.4750   50.5290   12.1670 C.2     1  L7O1        0.0348
     18  C10       38.1590   50.7150   12.7990 C.3     1  L7O1        0.0858
     19  C11       37.0070   50.0000   12.2520 C.2     1  L7O1        0.1383
     20  C12       37.2230   49.1940   11.0400 C.1     1  L7O1        0.1664
     21  C13       41.7330   52.8320   14.1500 C.2     1  L7O1        0.1144
     22  C14       42.9860   51.2870   12.8540 C.1     1  L7O1        0.1652
     23  C15       40.6300   51.2290   12.7180 C.2     1  L7O1        0.1436
     24  C16       40.5230   52.3080   13.6560 C.2     1  L7O1        0.0543
     25  C17       33.9200   50.3960   14.3420 C.ar    1  L7O1        0.0555
     26  C18       33.3970   51.1000   15.4890 C.ar    1  L7O1        0.0058
     27  C19       32.0190   50.9810   15.8330 C.ar    1  L7O1        0.0147
     28  C20       31.1340   50.2320   14.9820 C.ar    1  L7O1        0.0478
     29  C21       31.6660   49.5270   13.8440 C.ar    1  L7O1        0.0147
     30  C22       44.2430   49.8080   11.3950 C.3     1  L7O1        0.1494
@<TRIPOS>BOND
     1     8    16    1
     2     8    20    2
     3     3    20    2
     4    16    17    2
     5    20    19    1
     6    30    10    1
     7    17    23    1
     8    17    18    1
     9    19     5    2
    10    19    18    1
    11    14    23    2
    12    14    22    2
    13    10    22    1
    14    23    24    1
    15     5    15    1
    16    22    12    2
    17    13    29   ar
    18    13    25   ar
    19    24    21    2
    20    12    21    1
    21    29    28   ar
    22    15    25    1
    23    15     6    2
    24     1     4    1
    25     1     2    1
    26    25    26   ar
    27     4     7    1
    28    28     2    1
    29    28    27   ar
    30     7     9    1
    31     2    11    1
    32    26    27   ar
    33    11     9    1
