@<TRIPOS>MOLECULE
3qgz_ADN_A_1.pdb
 19 21 0 0 0
SMALL
GASTEIGER

@<TRIPOS>ATOM
      1  O5'       10.7750    8.4490   59.4980 O.3   127  ADN127     -0.2176
      2  C5'       10.6370    8.6850   58.0970 C.3   127  ADN127      0.2143
      3  C4'        9.3660    9.4540   57.9790 C.3   127  ADN127      0.1851
      4  O4'        9.3630   10.1510   56.7680 O.3   127  ADN127     -0.3134
      5  C3'        8.0110    8.7330   57.9050 C.3   127  ADN127      0.2186
      6  O3'        7.2320    9.0930   59.1430 O.3   127  ADN127     -0.2174
      7  C2'        7.4330    8.9500   56.5240 C.3   127  ADN127      0.2570
      8  O2'        6.0980    8.8190   56.4970 O.3   127  ADN127     -0.2130
      9  C1'        8.0720   10.3050   56.2950 C.3   127  ADN127      0.3186
     10  N9         8.2610   10.4680   54.8220 N.pl3 127  ADN127     -0.1439
     11  C8         8.7960    9.6310   53.8680 C.3   127  ADN127      0.3377
     12  N7         8.8090   10.2900   52.7380 N.2   127  ADN127     -0.2095
     13  C5         8.2520   11.5270   52.8760 C.2   127  ADN127      0.2526
     14  C6         7.9150   12.7130   52.0210 C.2   127  ADN127      0.4393
     15  N6         8.1320   12.7660   50.6980 N.pl3 127  ADN127      0.2180
     16  N1         7.3330   13.7850   52.6520 N.2   127  ADN127      0.0021
     17  C2         7.0020   13.7450   53.9560 C.3   127  ADN127      0.5254
     18  N3         7.2760   12.7340   54.8890 N.2   127  ADN127     -0.0055
     19  C4         7.8670   11.6350   54.2820 C.2   127  ADN127      0.3518
@<TRIPOS>BOND
     1    15    14    1
     2    14    16    2
     3    14    13    1
     4    16    17    1
     5    12    13    2
     6    12    11    1
     7    13    19    1
     8    11    10    1
     9    17    18    1
    10    19    10    1
    11    19    18    2
    12    10     9    1
    13     9     7    1
    14     9     4    1
    15     8     7    1
    16     7     5    1
    17     4     3    1
    18     5     3    1
    19     5     6    1
    20     3     2    1
    21     2     1    1
