@<TRIPOS>MOLECULE
3qh0_PLM_A_1.pdb
 18 17 0 0 0
SMALL
GASTEIGER

@<TRIPOS>ATOM
      1  C1        17.0660   12.1060   66.3610 C.2   625  PLM625      0.3649
      2  O1        16.7580   12.7120   65.3070 O.co2 625  PLM625     -0.2457
      3  O2        16.3370   12.0720   67.3840 O.co2 625  PLM625     -0.2457
      4  C2        18.3920   11.3850   66.4000 C.3   625  PLM625      0.1141
      5  C3        19.3330   12.1770   67.2910 C.3   625  PLM625      0.0118
      6  C4        18.9210   12.1120   68.7610 C.3   625  PLM625      0.0006
      7  C5        19.9660   12.7280   69.6880 C.3   625  PLM625      0.0000
      8  C6        20.0640   14.2320   69.5090 C.3   625  PLM625      0.0000
      9  C7        21.1020   14.5850   68.4550 C.3   625  PLM625      0.0000
     10  C8        21.1490   16.0930   68.3020 C.3   625  PLM625      0.0000
     11  C9        21.7610   16.7520   69.5360 C.3   625  PLM625      0.0000
     12  CA        22.2860   18.1470   69.2230 C.3   625  PLM625      0.0000
     13  CB        23.4510   18.1870   68.2320 C.3   625  PLM625      0.0000
     14  CC        23.8230   16.8540   67.5620 C.3   625  PLM625      0.0000
     15  CD        25.3110   16.8080   67.2150 C.3   625  PLM625      0.0000
     16  CE        25.6760   16.2870   65.8290 C.3   625  PLM625      0.0000
     17  CF        26.5940   17.2390   65.0730 C.3   625  PLM625      0.0000
     18  CG        26.2860   17.2650   63.5970 C.3   625  PLM625      0.0000
@<TRIPOS>BOND
     1    18    17    1
     2    17    16    1
     3     2     1   ar
     4    16    15    1
     5     1     4    1
     6     1     3   ar
     7     4     5    1
     8    15    14    1
     9     5     6    1
    10    14    13    1
    11    13    12    1
    12    10     9    1
    13    10    11    1
    14     9     8    1
    15     6     7    1
    16    12    11    1
    17     8     7    1
