@<TRIPOS>MOLECULE
3qh0_COH_A_1.pdb
 43 50 0 0 0
SMALL
GASTEIGER

@<TRIPOS>ATOM
      1 CO         34.6070   26.6500   72.9770 Co.oh 626  COH626      0.0000
      2  CHA       33.6400   29.3820   71.1860 C.2   626  COH626      0.0000
      3  CHB       37.2560   28.5080   74.3390 C.2   626  COH626      0.0000
      4  CHC       35.6950   23.9210   74.8190 C.2   626  COH626      0.0000
      5  CHD       31.9010   24.8300   71.8830 C.2   626  COH626      0.0000
      6  NA        35.3270   28.6120   72.8010 N.2   626  COH626      0.0000
      7  C1A       34.7660   29.5720   71.9760 C.2   626  COH626      0.0000
      8  C2A       35.5740   30.7830   72.1060 C.2   626  COH626      0.0000
      9  C3A       36.5670   30.5280   72.9740 C.2   626  COH626      0.0000
     10  C4A       36.4330   29.1570   73.4330 C.2   626  COH626      0.0000
     11  CMA       37.6740   31.5120   73.4280 C.3   626  COH626      0.0000
     12  CAA       35.3380   32.1340   71.3820 C.3   626  COH626      0.0000
     13  CBA       36.1660   32.2090   70.1060 C.3   626  COH626      0.0000
     14  CGA       35.4890   31.3770   69.0520 C.2   626  COH626      0.0000
     15  O1A       36.0640   30.3330   68.6460 O.co2 626  COH626      0.0000
     16  O2A       34.3680   31.7530   68.6230 O.co2 626  COH626      0.0000
     17  NB        36.1570   26.3150   74.4440 N.ar  626  COH626      0.0000
     18  C1B       37.2360   27.1610   74.6420 C.ar  626  COH626      0.0000
     19  C2B       38.3240   26.3800   75.2080 C.ar  626  COH626      0.0000
     20  C3B       37.9010   25.1140   75.3430 C.ar  626  COH626      0.0000
     21  C4B       36.5210   25.0430   74.8630 C.ar  626  COH626      0.0000
     22  CMB       39.7200   26.9290   75.5840 C.3   626  COH626      0.0000
     23  CAB       38.7320   23.9320   75.9030 C.2   626  COH626      0.0000
     24  CBB       39.3630   24.0170   77.0810 C.2   626  COH626      0.0000
     25  NC        33.9100   24.7100   73.2990 N.2   626  COH626      0.0000
     26  C1C       34.5200   23.7490   74.0910 C.2   626  COH626      0.0000
     27  C2C       33.7000   22.5460   74.0120 C.2   626  COH626      0.0000
     28  C3C       32.6560   22.7970   73.2020 C.2   626  COH626      0.0000
     29  C4C       32.7670   24.1680   72.7360 C.2   626  COH626      0.0000
     30  CMC       33.9940   21.2100   74.7350 C.3   626  COH626      0.0000
     31  CAC       31.5260   21.8140   72.8180 C.2   626  COH626      0.0000
     32  CBC       31.3810   21.4280   71.5480 C.2   626  COH626      0.0000
     33  ND        32.9230   27.0790   71.7800 N.ar  626  COH626      0.0000
     34  C1D       32.1090   26.0590   71.2810 C.ar  626  COH626      0.0000
     35  C2D       31.5250   26.5060   70.0330 C.ar  626  COH626      0.0000
     36  C3D       32.0730   27.9250   69.8250 C.ar  626  COH626      0.0000
     37  C4D       32.9350   28.2040   70.9590 C.ar  626  COH626      0.0000
     38  CMD       30.5600   25.7300   69.1080 C.3   626  COH626      0.0000
     39  CAD       31.7710   28.8590   68.6410 C.3   626  COH626      0.0000
     40  CBD       32.9450   28.7730   67.6750 C.3   626  COH626      0.0000
     41  CGD       32.8260   29.8680   66.6520 C.2   626  COH626      0.0000
     42  O1D       31.7020   30.4070   66.5020 O.co2 626  COH626      0.0000
     43  O2D       33.8480   30.1970   65.9980 O.co2 626  COH626      0.0000
@<TRIPOS>BOND
     1    43    41   ar
     2    42    41   ar
     3    41    40    1
     4    40    39    1
     5    16    14   ar
     6    39    36    1
     7    15    14   ar
     8    14    13    1
     9    38    35    1
    10    36    35   ar
    11    36    37   ar
    12    35    34   ar
    13    13    12    1
    14    37     2    2
    15    37    33   ar
    16     2     7    1
    17    34    33   ar
    18    34     5    2
    19    12     8    1
    20    32    31    2
    21    33     1    1
    22     5    29    1
    23     7     8    1
    24     7     6    2
    25     8     9    2
    26    29    28    1
    27    29    25    2
    28     6     1    1
    29     6    10    1
    30    31    28    1
    31     9    11    1
    32     9    10    1
    33     1    25    1
    34     1    17    1
    35    28    27    2
    36    25    26    1
    37    10     3    2
    38    27    26    1
    39    27    30    1
    40    26     4    2
    41     3    18    1
    42    17    18   ar
    43    17    21   ar
    44    18    19   ar
    45     4    21    1
    46    21    20   ar
    47    19    20   ar
    48    19    22    1
    49    20    23    1
    50    23    24    2
