@<TRIPOS>MOLECULE
3qh0_HSQ_A_1.pdb
 14 14 0 0 0
SMALL
GASTEIGER

@<TRIPOS>ATOM
      1  C1        -4.6930   37.0530   65.9630 C.3   661  HSQ661      0.1665
      2  C2        -6.0920   37.2690   66.5420 C.3   661  HSQ661      0.1576
      3  C3        -6.2640   38.6900   67.0520 C.3   661  HSQ661      0.2069
      4  C4        -5.1900   39.0780   68.0620 C.3   661  HSQ661      0.2134
      5  C5        -3.7830   38.7000   67.5560 C.3   661  HSQ661      0.1809
      6  C6        -2.8810   39.9220   67.4260 C.3   661  HSQ661      0.2141
      7  C7        -7.8110   35.9270   65.4490 C.2   661  HSQ661      0.2420
      8  C8        -8.7780   35.8360   64.3070 C.3   661  HSQ661      0.0964
      9  N2        -7.0880   37.0450   65.5150 N.am  661  HSQ661     -0.2019
     10  O3        -7.5320   38.8190   67.6460 O.3   661  HSQ661     -0.2184
     11  O4        -5.3050   40.4730   68.3000 O.3   661  HSQ661     -0.2176
     12  O5        -3.7720   38.0900   66.2730 O.3   661  HSQ661     -0.3489
     13  O6        -1.7500   39.7340   68.2360 O.3   661  HSQ661     -0.2176
     14  O7        -7.7180   35.0060   66.2640 O.2   661  HSQ661     -0.2733
@<TRIPOS>BOND
     1     8     7    1
     2     7     9   am
     3     7    14    2
     4     9     2    1
     5     1    12    1
     6     1     2    1
     7    12     5    1
     8     2     3    1
     9     3    10    1
    10     3     4    1
    11     6     5    1
    12     6    13    1
    13     5     4    1
    14     4    11    1
