@<TRIPOS>MOLECULE
3qh1_NX6_A_1.pdb
 19 19 0 0 0
SMALL
GASTEIGER

@<TRIPOS>ATOM
      1  C        -10.8120  -38.5290   -6.0220 C.2   999  NX6999      0.3849
      2  N        -11.3650  -40.1740   -4.3090 N.am  999  NX6999     -0.1583
      3  O         -9.9960  -38.1670   -6.8480 O.co2 999  NX6999     -0.2437
      4  C1       -10.5580  -40.3420   -3.2980 C.2   999  NX6999      0.4219
      5  O1        -9.3430  -40.4260   -3.3090 O.2   999  NX6999     -0.2245
      6  C2       -10.6310  -40.1150   -0.8170 C.3   999  NX6999      0.2368
      7  O2       -11.3150  -40.4050   -2.1100 O.3   999  NX6999     -0.4285
      8  C3        -9.9790  -38.7370   -0.7850 C.ar  999  NX6999      0.0213
      9  C4        -8.9620  -38.4950    0.0990 C.ar  999  NX6999     -0.0007
     10  C5        -8.3120  -37.2600    0.1380 C.ar  999  NX6999     -0.0002
     11  C6        -8.7470  -36.2620   -0.7090 C.ar  999  NX6999     -0.0000
     12  C7        -9.7920  -36.4960   -1.5890 C.ar  999  NX6999     -0.0002
     13  C8       -10.4120  -37.7350   -1.6270 C.ar  999  NX6999     -0.0007
     14  CA       -10.8810  -39.9860   -5.6450 C.3   999  NX6999      0.2124
     15  CB       -11.8260  -40.6590   -6.6040 C.3   999  NX6999      0.1473
     16  CG       -11.5730  -42.1700   -6.7390 C.2   999  NX6999      0.3672
     17  OD1      -10.3840  -42.6750   -6.6730 O.co2 999  NX6999     -0.2456
     18  OD2      -12.6590  -42.8280   -6.9360 O.co2 999  NX6999     -0.2456
     19  OXT      -11.5510  -37.6890   -5.4870 O.co2 999  NX6999     -0.2437
@<TRIPOS>BOND
     1    18    16   ar
     2     3     1   ar
     3    16    17   ar
     4    16    15    1
     5    15    14    1
     6     1    14    1
     7     1    19   ar
     8    14     2    1
     9     2     4   am
    10     5     4    2
    11     4     7    1
    12     7     6    1
    13    13    12   ar
    14    13     8   ar
    15    12    11   ar
    16     6     8    1
    17     8     9   ar
    18    11    10   ar
    19     9    10   ar
