@<TRIPOS>MOLECULE
3qh2_3NM_A_1.pdb
 16 16 0 0 0
SMALL
GASTEIGER

@<TRIPOS>ATOM
      1  N         12.0910   34.8520   26.2250 N.2   900  3NM900     -0.3967
      2  P         13.0130   39.4810   31.9530 P.3   900  3NM900      0.5326
      3  S         11.1510   37.1400   26.9390 S.3   900  3NM900     -0.0698
      4  C1        14.3020   34.6420   27.4320 C.3   900  3NM900      0.0624
      5  O1         8.8950   36.0430   25.0400 O.co2 900  3NM900     -0.2371
      6  C2        13.0280   35.3640   27.0700 C.2   900  3NM900      0.0981
      7  O2         9.9790   34.1870   24.5340 O.co2 900  3NM900     -0.2371
      8  C3        11.0070   35.6540   26.0380 C.2   900  3NM900      0.2359
      9  O3        13.4790   38.7250   30.6140 O.3   900  3NM900     -0.2702
     10  C4         9.8700   35.2710   25.1460 C.2   900  3NM900      0.4227
     11  O4        11.8950   40.4220   31.5370 O.2   900  3NM900     -0.2224
     12  C5        12.6920   36.7070   27.6140 C.3   900  3NM900      0.1049
     13  O5        14.2880   40.2730   32.1780 O.3   900  3NM900     -0.1145
     14  C6        13.4930   37.5480   28.5700 C.3   900  3NM900      0.0506
     15  O6        12.5480   38.5940   33.0910 O.3   900  3NM900     -0.1145
     16  C7        12.6460   37.9360   29.7810 C.3   900  3NM900      0.1551
@<TRIPOS>BOND
     1     7    10   ar
     2     5    10   ar
     3    10     8    1
     4     8     1    2
     5     8     3    1
     6     1     6    2
     7     3    12    1
     8     6     4    1
     9     6    12    1
    10    12    14    1
    11    14    16    1
    12    16     9    1
    13     9     2    1
    14    11     2    2
    15     2    13    1
    16     2    15    1
