@<TRIPOS>MOLECULE
3qh5_NX6_A_1.pdb
 19 19 0 0 0
SMALL
GASTEIGER

@<TRIPOS>ATOM
      1  C         35.6110   41.7420   -5.9670 C.2   999  NX6999      0.3849
      2  N         35.0040   40.1750   -4.1830 N.am  999  NX6999     -0.1583
      3  O         36.4840   41.9720   -6.8040 O.co2 999  NX6999     -0.2437
      4  C1        35.7910   39.9200   -3.1800 C.2   999  NX6999      0.4219
      5  O1        37.0070   39.7540   -3.2910 O.2   999  NX6999     -0.2245
      6  C2        35.8950   40.2200   -0.8010 C.3   999  NX6999      0.2368
      7  O2        35.1160   39.7950   -2.0070 O.3   999  NX6999     -0.4285
      8  C3        36.4960   41.4970   -0.7540 C.ar  999  NX6999      0.0213
      9  C4        37.5440   41.7540    0.1220 C.ar  999  NX6999     -0.0007
     10  C5        38.1500   43.0140    0.1610 C.ar  999  NX6999     -0.0002
     11  C6        37.6870   44.0360   -0.6600 C.ar  999  NX6999     -0.0000
     12  C7        36.6310   43.7690   -1.5240 C.ar  999  NX6999     -0.0002
     13  C8        36.0290   42.5170   -1.5610 C.ar  999  NX6999     -0.0007
     14  CA        35.4560   40.2800   -5.5360 C.3   999  NX6999      0.2124
     15  CB        34.3530   39.6440   -6.3640 C.3   999  NX6999      0.1473
     16  CG        34.9800   38.7270   -7.3670 C.2   999  NX6999      0.3672
     17  OD1       35.3260   37.5880   -6.9280 O.co2 999  NX6999     -0.2456
     18  OD2       35.1200   39.2200   -8.5220 O.co2 999  NX6999     -0.2456
     19  OXT       34.8440   42.5950   -5.5090 O.co2 999  NX6999     -0.2437
@<TRIPOS>BOND
     1    18    16   ar
     2    16    17   ar
     3    16    15    1
     4     3     1   ar
     5    15    14    1
     6     1    14    1
     7     1    19   ar
     8    14     2    1
     9     2     4   am
    10     5     4    2
    11     4     7    1
    12     7     6    1
    13    13    12   ar
    14    13     8   ar
    15    12    11   ar
    16     6     8    1
    17     8     9   ar
    18    11    10   ar
    19     9    10   ar
