@<TRIPOS>MOLECULE
3qh5_0A9_A_1.pdb
 13 13 0 0 0
SMALL
GASTEIGER

@<TRIPOS>ATOM
      1  N         47.4030   37.3700   -3.0650 N.3   322  0A9322     -0.1206
      2  CA        46.3340   36.5560   -3.6930 C.3   322  0A9322      0.1943
      3  C         46.1980   35.2490   -2.9230 C.2   322  0A9322      0.3350
      4  CB        46.6250   36.2920   -5.1860 C.3   322  0A9322      0.0568
      5  CG        47.8460   35.4320   -5.4060 C.ar  322  0A9322     -0.0202
      6  CD1       47.7190   34.0370   -5.4310 C.ar  322  0A9322     -0.0042
      7  CD2       49.0860   36.0590   -5.5710 C.ar  322  0A9322     -0.0042
      8  CE1       48.8600   33.2580   -5.6040 C.ar  322  0A9322     -0.0003
      9  CE2       50.2140   35.2700   -5.7600 C.ar  322  0A9322     -0.0003
     10  CZ        50.1040   33.8770   -5.7500 C.ar  322  0A9322     -0.0000
     11  O         46.9590   34.9930   -1.9890 O.2   322  0A9322     -0.2485
     12  CM        45.1010   33.2030   -2.4450 C.3   322  0A9322      0.2556
     13  OXT       45.1800   34.4170   -3.2740 O.3   322  0A9322     -0.4434
@<TRIPOS>BOND
     1     9    10   ar
     2     9     7   ar
     3    10     8   ar
     4     8     6   ar
     5     7     5   ar
     6     6     5   ar
     7     5     4    1
     8     4     2    1
     9     2     1    1
    10     2     3    1
    11    13     3    1
    12    13    12    1
    13     3    11    2
