@<TRIPOS>MOLECULE
3qh8_AMP_A_1.pdb
 23 25 0 0 0
SMALL
GASTEIGER

@<TRIPOS>ATOM
      1  P         10.5020  -11.1440  -14.2920 P.3   303  AMP303      0.5327
      2  O1P       11.4680  -12.3440  -14.5650 O.3   303  AMP303     -0.1145
      3  O2P       10.5140  -10.7510  -12.8290 O.3   303  AMP303     -0.1145
      4  O3P       10.7200   -9.8800  -15.1280 O.2   303  AMP303     -0.2224
      5  O5'        8.9080  -11.4540  -14.5440 O.3   303  AMP303     -0.2675
      6  C5'        8.3290  -12.7490  -14.6660 C.3   303  AMP303      0.1860
      7  C4'        7.1080  -12.5500  -15.5620 C.3   303  AMP303      0.1823
      8  O4'        6.7840  -13.7920  -16.1810 O.3   303  AMP303     -0.3135
      9  C3'        5.8510  -12.1150  -14.8420 C.3   303  AMP303      0.2184
     10  O3'        5.0490  -11.3940  -15.7960 O.3   303  AMP303     -0.2174
     11  C2'        5.2140  -13.4490  -14.4820 C.3   303  AMP303      0.2570
     12  O2'        3.8180  -13.3450  -14.1740 O.3   303  AMP303     -0.2130
     13  C1'        5.5100  -14.2420  -15.7280 C.3   303  AMP303      0.3186
     14  N9         5.5660  -15.7190  -15.6060 N.pl3 303  AMP303     -0.1439
     15  C8         5.6310  -16.4660  -14.4770 C.3   303  AMP303      0.3377
     16  N7         5.6710  -17.7910  -14.7880 N.2   303  AMP303     -0.2095
     17  C5         5.6150  -17.8660  -16.1570 C.2   303  AMP303      0.2526
     18  C6         5.5970  -18.9520  -17.1440 C.2   303  AMP303      0.4393
     19  N6         5.6340  -20.2430  -16.7460 N.pl3 303  AMP303      0.2180
     20  N1         5.5260  -18.5780  -18.4580 N.2   303  AMP303      0.0021
     21  C2         5.4890  -17.2900  -18.8310 C.3   303  AMP303      0.5254
     22  N3         5.4960  -16.2330  -17.9880 N.2   303  AMP303     -0.0055
     23  C4         5.5710  -16.5060  -16.6590 C.2   303  AMP303      0.3518
@<TRIPOS>BOND
     1    21    20    1
     2    21    22    1
     3    20    18    2
     4    22    23    2
     5    18    19    1
     6    18    17    1
     7    23    17    1
     8    23    14    1
     9     8    13    1
    10     8     7    1
    11    17    16    2
    12    10     9    1
    13    13    14    1
    14    13    11    1
    15    14    15    1
    16     7     9    1
    17     7     6    1
    18     4     1    2
    19     9    11    1
    20    16    15    1
    21     6     5    1
    22     2     1    1
    23     5     1    1
    24    11    12    1
    25     1     3    1
