@<TRIPOS>MOLECULE
3qhd_795_A_1.pdb
 13 14 0 0 0
SMALL
GASTEIGER

@<TRIPOS>ATOM
      1  C1        -4.4290  -31.4000  -14.6730 C.ar  167  795167      0.0547
      2  C2        -4.1410  -30.4370  -13.7640 C.ar  167  795167      0.0062
      3  C3        -4.4730  -30.6680  -12.4810 C.ar  167  795167      0.0208
      4  C4        -5.0950  -31.8320  -12.1190 C.ar  167  795167      0.0989
      5  N5        -5.3720  -32.7550  -13.0170 N.ar  167  795167     -0.2422
      6  C6        -5.0460  -32.5460  -14.2900 C.ar  167  795167      0.1019
      7  C7        -4.1320  -31.2440  -16.0870 C.2   167  795167      0.1581
      8  S8        -3.2410  -29.8910  -16.6390 S.3   167  795167     -0.0750
      9  C9        -3.4100  -30.3950  -18.2820 C.3   167  795167      0.1215
     10  C10       -4.1300  -31.6090  -18.3150 C.2   167  795167      0.1317
     11  N11       -4.5300  -32.0200  -17.0830 N.2   167  795167     -0.4007
     12  C12       -4.5260  -32.4130  -19.5790 C.3   167  795167      0.2368
     13  O13       -3.7640  -33.5450  -19.9780 O.3   167  795167     -0.2126
@<TRIPOS>BOND
     1    13    12    1
     2    12    10    1
     3    10     9    1
     4    10    11    2
     5     9     8    1
     6    11     7    2
     7     8     7    1
     8     7     1    1
     9     1     6   ar
    10     1     2   ar
    11     6     5   ar
    12     2     3   ar
    13     5     4   ar
    14     3     4   ar
