@<TRIPOS>MOLECULE
3qhd_CTN_A_1.pdb
 17 18 0 0 0
SMALL
GASTEIGER

@<TRIPOS>ATOM
      1  O5'       23.9470  -36.5660    1.3320 O.3   165  CTN165     -0.2176
      2  C5'       24.2530  -36.9700    2.6720 C.3   165  CTN165      0.2142
      3  C4'       22.9930  -37.3330    3.4560 C.3   165  CTN165      0.1829
      4  O4'       22.2850  -36.1300    3.7990 O.3   165  CTN165     -0.3318
      5  C1'       20.9080  -36.2260    3.3980 C.3   165  CTN165      0.2400
      6  N1        20.5000  -34.9120    2.8540 N.am  165  CTN165     -0.1778
      7  C6        21.1630  -34.3910    1.7980 C.2   165  CTN165      0.0836
      8  C5        20.7930  -33.1420    1.2830 C.2   165  CTN165      0.0687
      9  C4        19.7340  -32.4610    1.9020 C.2   165  CTN165      0.2346
     10  N3        19.0990  -33.0180    2.9480 N.2   165  CTN165     -0.3024
     11  C2        19.4890  -34.2270    3.4340 C.1   165  CTN165      0.2756
     12  O2        18.8820  -34.6830    4.4240 O.2   165  CTN165     -0.1925
     13  N4        19.3300  -31.2450    1.4360 N.pl3 165  CTN165     -0.0921
     14  C2'       20.8640  -37.3180    2.3270 C.3   165  CTN165      0.2319
     15  O2'       19.6230  -38.0530    2.2520 O.3   165  CTN165     -0.2157
     16  C3'       22.0170  -38.2300    2.6820 C.3   165  CTN165      0.2159
     17  O3'       21.4930  -39.2780    3.5100 O.3   165  CTN165     -0.2175
@<TRIPOS>BOND
     1     8     7    2
     2     8     9    1
     3     1     2    1
     4    13     9    1
     5     7     6    1
     6     9    10    2
     7    15    14    1
     8    14    16    1
     9    14     5    1
    10     2     3    1
    11    16     3    1
    12    16    17    1
    13     6     5    1
    14     6    11   am
    15    10    11    2
    16     5     4    1
    17    11    12    2
    18     3     4    1
