@<TRIPOS>MOLECULE
3qhd_MSR_A_1.pdb
 12 13 0 0 0
SMALL
GASTEIGER

@<TRIPOS>ATOM
      1  C12        5.7310  -28.8570  -17.5290 C.ar  166  MSR166      0.0208
      2  C13        4.6660  -28.9030  -18.4470 C.ar  166  MSR166      0.0435
      3  C14        4.3430  -27.7500  -19.1540 C.ar  166  MSR166      0.1958
      4  O17        3.3090  -27.7240  -20.0520 O.3   166  MSR166     -0.2866
      5  C15        5.0830  -26.5880  -18.9230 C.ar  166  MSR166      0.0435
      6  C16        6.1280  -26.5670  -17.9950 C.ar  166  MSR166      0.0208
      7  C11        6.5100  -27.7080  -17.2690 C.ar  166  MSR166      0.0657
      8  N3         7.5390  -27.7160  -16.3920 N.ar  166  MSR166     -0.2864
      9  C4         8.6120  -26.9000  -16.4430 C.ar  166  MSR166      0.1022
     10  C5         9.3970  -27.2970  -15.3830 C.ar  166  MSR166      0.1196
     11  NFE        8.7720  -28.3400  -14.7670 N.ar  166  MSR166     -0.2220
     12  C2         7.5980  -28.5960  -15.3940 C.ar  166  MSR166      0.1828
@<TRIPOS>BOND
     1     4     3    1
     2     3     5   ar
     3     3     2   ar
     4     5     6   ar
     5     2     1   ar
     6     6     7   ar
     7     1     7   ar
     8     7     8    1
     9     9     8   ar
    10     9    10   ar
    11     8    12   ar
    12    12    11   ar
    13    10    11   ar
