@<TRIPOS>MOLECULE
3qhm_CTT_A_1.pdb
 45 48 0 0 0
SMALL
GASTEIGER

@<TRIPOS>ATOM
      1  O1B       24.7240  -16.9270   41.8300 O.3   2739  CTT2739    -0.1869
      2  C1B       23.5670  -16.5850   42.4360 C.3   2739  CTT2739     0.3023
      3  C2B       23.6150  -15.1440   43.0090 C.3   2739  CTT2739     0.2433
      4  O2B       24.6920  -15.0140   43.9290 O.3   2739  CTT2739    -0.2148
      5  C3B       22.3550  -15.0290   43.8390 C.3   2739  CTT2739     0.2168
      6  O3B       22.2620  -13.7350   44.4640 O.3   2739  CTT2739    -0.2175
      7  O5B       22.5040  -16.7030   41.4780 O.3   2739  CTT2739    -0.3237
      8  C5B       21.2290  -16.5890   42.2400 C.3   2739  CTT2739     0.1804
      9  C6B       20.0010  -16.7170   41.2930 C.3   2739  CTT2739     0.2141
     10  O6B       20.0460  -17.9810   40.6540 O.3   2739  CTT2739    -0.2176
     11  C4B       21.1190  -15.2020   42.9600 C.3   2739  CTT2739     0.1804
     12  O4B       19.8930  -15.1540   43.7750 O.3   2739  CTT2739    -0.3257
     13  C1C       19.2560  -13.9270   43.6090 C.3   2739  CTT2739     0.2695
     14  C2C       17.8020  -14.1390   44.0070 C.3   2739  CTT2739     0.2404
     15  O2C       17.1910  -15.1290   43.1640 O.3   2739  CTT2739    -0.2149
     16  C3C       17.1000  -12.8150   43.8020 C.3   2739  CTT2739     0.2167
     17  O3C       15.7190  -12.9760   44.1710 O.3   2739  CTT2739    -0.2175
     18  O5C       19.8700  -12.9430   44.4960 O.3   2739  CTT2739    -0.3257
     19  C5C       19.2610  -11.6610   44.3300 C.3   2739  CTT2739     0.1803
     20  C6C       19.9130  -10.6560   45.2890 C.3   2739  CTT2739     0.2141
     21  O6C       21.2950  -10.5510   45.0130 O.3   2739  CTT2739    -0.2176
     22  C4C       17.7770  -11.7560   44.7010 C.3   2739  CTT2739     0.1804
     23  O4C       17.1580  -10.4570   44.4900 O.3   2739  CTT2739    -0.3257
     24  C1D       16.1570  -10.2580   45.4460 C.3   2739  CTT2739     0.2695
     25  C2D       16.0180   -8.7220   45.6490 C.3   2739  CTT2739     0.2404
     26  O2D       17.2360   -8.1470   46.1530 O.3   2739  CTT2739    -0.2149
     27  C3D       14.9400   -8.5680   46.7230 C.3   2739  CTT2739     0.2167
     28  O3D       14.7210   -7.1660   47.0110 O.3   2739  CTT2739    -0.2175
     29  O5D       14.9110  -10.7900   44.9150 O.3   2739  CTT2739    -0.3257
     30  C5D       13.9000  -10.6720   45.8910 C.3   2739  CTT2739     0.1803
     31  C6D       12.6200  -11.2820   45.3060 C.3   2739  CTT2739     0.2141
     32  O6D       12.8110  -12.6500   44.9330 O.3   2739  CTT2739    -0.2176
     33  C4D       13.6330   -9.1870   46.2140 C.3   2739  CTT2739     0.1804
     34  O4D       12.6790   -9.0660   47.2830 O.3   2739  CTT2739    -0.3257
     35  C1E       11.3850   -8.7530   46.8700 C.3   2739  CTT2739     0.2695
     36  C2E       10.4120   -9.4000   47.8890 C.3   2739  CTT2739     0.2406
     37  O2E       10.5620  -10.8280   47.8760 O.3   2739  CTT2739    -0.2149
     38  C3E        8.9970   -9.0470   47.4110 C.3   2739  CTT2739     0.2198
     39  O3E        8.0160   -9.6060   48.2880 O.3   2739  CTT2739    -0.2174
     40  C4E        8.8770   -7.5290   47.4260 C.3   2739  CTT2739     0.2144
     41  O4E        7.5780   -7.1450   46.9830 O.3   2739  CTT2739    -0.2176
     42  O5E       11.2600   -7.3400   46.8750 O.3   2739  CTT2739    -0.3256
     43  C5E        9.9450   -6.9780   46.4590 C.3   2739  CTT2739     0.1835
     44  C6E        9.8710   -5.4820   46.4350 C.3   2739  CTT2739     0.2142
     45  O6E       10.9270   -5.0070   45.5820 O.3   2739  CTT2739    -0.2176
@<TRIPOS>BOND
     1    10     9    1
     2     9     8    1
     3     7     8    1
     4     7     2    1
     5     1     2    1
     6     8    11    1
     7     2     3    1
     8    11    12    1
     9    11     5    1
    10     3     5    1
    11     3     4    1
    12    15    14    1
    13    13    12    1
    14    13    14    1
    15    13    18    1
    16    16    14    1
    17    16    17    1
    18    16    22    1
    19     5     6    1
    20    19    18    1
    21    19    22    1
    22    19    20    1
    23    23    22    1
    24    23    24    1
    25    29    24    1
    26    29    30    1
    27    32    31    1
    28    21    20    1
    29    31    30    1
    30    24    25    1
    31    45    44    1
    32    25    26    1
    33    25    27    1
    34    30    33    1
    35    33    27    1
    36    33    34    1
    37    44    43    1
    38    43    42    1
    39    43    40    1
    40    27    28    1
    41    35    42    1
    42    35    34    1
    43    35    36    1
    44    41    40    1
    45    38    40    1
    46    38    36    1
    47    38    39    1
    48    37    36    1
