@<TRIPOS>MOLECULE
3qhm_CBI_C_1.pdb
 23 24 0 0 0
SMALL
GASTEIGER

@<TRIPOS>ATOM
      1  C1        73.8900    7.0200   30.9870 C.3   459  CBI459      0.2695
      2  C2        73.2780    7.1780   29.5940 C.3   459  CBI459      0.2406
      3  C3        72.1040    8.1490   29.6690 C.3   459  CBI459      0.2198
      4  C4        71.0660    7.5710   30.6300 C.3   459  CBI459      0.2144
      5  C5        71.7380    7.3460   31.9860 C.3   459  CBI459      0.1835
      6  C6        70.7220    6.7130   32.9370 C.3   459  CBI459      0.2142
      7  O2        74.2600    7.6650   28.6740 O.3   459  CBI459     -0.2149
      8  O3        71.5240    8.3300   28.3750 O.3   459  CBI459     -0.2174
      9  O4        69.9650    8.4730   30.7520 O.3   459  CBI459     -0.2176
     10  O5        72.8750    6.4760   31.8490 O.3   459  CBI459     -0.3256
     11  O6        71.3530    6.4070   34.1800 O.3   459  CBI459     -0.2176
     12  C1'       78.1990    5.0300   33.2940 C.3   459  CBI459      0.3023
     13  C2'       76.8550    5.1550   34.0050 C.3   459  CBI459      0.2433
     14  C3'       75.7040    5.1970   32.9950 C.3   459  CBI459      0.2168
     15  C4'       75.9620    6.2420   31.9050 C.3   459  CBI459      0.1804
     16  C5'       77.3290    5.9250   31.3190 C.3   459  CBI459      0.1804
     17  C6'       77.6840    6.8290   30.1390 C.3   459  CBI459      0.2141
     18  O1'       79.2680    5.1070   34.2440 O.3   459  CBI459     -0.1869
     19  O2'       76.6790    4.0050   34.8400 O.3   459  CBI459     -0.2148
     20  O3'       74.4970    5.5220   33.6830 O.3   459  CBI459     -0.2175
     21  O4'       74.9860    6.1030   30.8620 O.3   459  CBI459     -0.3257
     22  O5'       78.3210    6.0980   32.3420 O.3   459  CBI459     -0.3237
     23  O6'       77.9420    8.1630   30.5880 O.3   459  CBI459     -0.2176
@<TRIPOS>BOND
     1     8     3    1
     2     7     2    1
     3     2     3    1
     4     2     1    1
     5     3     4    1
     6    17    23    1
     7    17    16    1
     8     4     9    1
     9     4     5    1
    10    21     1    1
    11    21    15    1
    12     1    10    1
    13    16    15    1
    14    16    22    1
    15    10     5    1
    16    15    14    1
    17     5     6    1
    18    22    12    1
    19     6    11    1
    20    14    20    1
    21    14    13    1
    22    12    13    1
    23    12    18    1
    24    13    19    1
