@<TRIPOS>MOLECULE
3qhn_CTT_A_1.pdb
 45 48 0 0 0
SMALL
GASTEIGER

@<TRIPOS>ATOM
      1  O1B       23.5750  -16.8500   41.4550 O.3   2739  CTT2739    -0.1869
      2  C1B       22.5420  -16.3550   42.2830 C.3   2739  CTT2739     0.3023
      3  C2B       22.9080  -14.9160   42.7710 C.3   2739  CTT2739     0.2433
      4  O2B       24.1330  -14.9880   43.5270 O.3   2739  CTT2739    -0.2148
      5  C3B       21.7470  -14.3510   43.5630 C.3   2739  CTT2739     0.2168
      6  O3B       21.9220  -12.9810   43.8040 O.3   2739  CTT2739    -0.2175
      7  O5B       21.3620  -16.2640   41.4950 O.3   2739  CTT2739    -0.3237
      8  C5B       20.2500  -15.8910   42.3180 C.3   2739  CTT2739     0.1804
      9  C6B       19.0160  -16.0410   41.4730 C.3   2739  CTT2739     0.2141
     10  O6B       18.8420  -17.4540   41.2870 O.3   2739  CTT2739    -0.2176
     11  C4B       20.3800  -14.4810   42.8470 C.3   2739  CTT2739     0.1804
     12  O4B       19.2070  -14.3100   43.7340 O.3   2739  CTT2739    -0.3257
     13  C1C       18.6640  -12.9370   43.7100 C.3   2739  CTT2739     0.2695
     14  C2C       17.2620  -12.9910   44.2660 C.3   2739  CTT2739     0.2404
     15  O2C       16.5700  -13.8090   43.3450 O.3   2739  CTT2739    -0.2149
     16  C3C       16.6950  -11.5850   44.2850 C.3   2739  CTT2739     0.2167
     17  O3C       15.3710  -11.4680   44.8080 O.3   2739  CTT2739    -0.2175
     18  O5C       19.4230  -12.1270   44.6010 O.3   2739  CTT2739    -0.3257
     19  C5C       19.0570  -10.6860   44.5250 C.3   2739  CTT2739     0.1803
     20  C6C       20.0410   -9.8340   45.3250 C.3   2739  CTT2739     0.2141
     21  O6C       21.3910  -10.2480   45.0820 O.3   2739  CTT2739    -0.2176
     22  C4C       17.6220  -10.5700   45.0120 C.3   2739  CTT2739     0.1804
     23  O4C       17.0310   -9.2590   44.7420 O.3   2739  CTT2739    -0.3257
     24  C1D       17.2210   -8.2420   45.8340 C.3   2739  CTT2739     0.2695
     25  C2D       16.2730   -7.1540   45.4280 C.3   2739  CTT2739     0.2404
     26  O2D       17.0020   -5.8740   45.2970 O.3   2739  CTT2739    -0.2149
     27  C3D       15.0290   -7.1580   46.3810 C.3   2739  CTT2739     0.2167
     28  O3D       13.9130   -6.4960   45.7060 O.3   2739  CTT2739    -0.2175
     29  O5D       17.0720   -8.6860   47.2980 O.3   2739  CTT2739    -0.3257
     30  C5D       15.7270   -8.8680   47.9110 C.3   2739  CTT2739     0.1803
     31  C6D       15.7230  -10.2340   48.6200 C.3   2739  CTT2739     0.2141
     32  O6D       15.5900  -11.2540   47.6020 O.3   2739  CTT2739    -0.2176
     33  C4D       14.6560   -8.5810   46.9140 C.3   2739  CTT2739     0.1804
     34  O4D       13.4510   -8.5130   47.7120 O.3   2739  CTT2739    -0.3257
     35  C1E       12.2100   -8.7780   47.0510 C.3   2739  CTT2739     0.2695
     36  C2E       11.2600   -9.6430   47.9170 C.3   2739  CTT2739     0.2406
     37  O2E       11.8050  -10.9190   48.0150 O.3   2739  CTT2739    -0.2149
     38  C3E        9.8960   -9.7590   47.2390 C.3   2739  CTT2739     0.2198
     39  O3E        9.0560  -10.6800   47.9560 O.3   2739  CTT2739    -0.2174
     40  C4E        9.3070   -8.3620   47.1010 C.3   2739  CTT2739     0.2144
     41  O4E        8.1030   -8.3900   46.3890 O.3   2739  CTT2739    -0.2176
     42  O5E       11.6380   -7.4350   46.7980 O.3   2739  CTT2739    -0.3256
     43  C5E       10.2960   -7.4730   46.2860 C.3   2739  CTT2739     0.1835
     44  C6E        9.9180   -6.0170   46.3080 C.3   2739  CTT2739     0.2142
     45  O6E       10.8620   -5.3440   45.4820 O.3   2739  CTT2739    -0.2176
@<TRIPOS>BOND
     1    10     9    1
     2     1     2    1
     3     9     8    1
     4     7     2    1
     5     7     8    1
     6     2     3    1
     7     8    11    1
     8     3     4    1
     9     3     5    1
    10    11     5    1
    11    11    12    1
    12    15    14    1
    13     5     6    1
    14    13    12    1
    15    13    14    1
    16    13    18    1
    17    14    16    1
    18    16    17    1
    19    16    22    1
    20    19    18    1
    21    19    22    1
    22    19    20    1
    23    23    22    1
    24    23    24    1
    25    21    20    1
    26    26    25    1
    27    25    24    1
    28    25    27    1
    29    45    44    1
    30    28    27    1
    31    24    29    1
    32    43    44    1
    33    43    42    1
    34    43    40    1
    35    27    33    1
    36    41    40    1
    37    42    35    1
    38    33    34    1
    39    33    30    1
    40    35    34    1
    41    35    36    1
    42    40    38    1
    43    38    36    1
    44    38    39    1
    45    29    30    1
    46    32    31    1
    47    30    31    1
    48    36    37    1
