@<TRIPOS>MOLECULE
3qhn_CBI_C_1.pdb
 23 24 0 0 0
SMALL
GASTEIGER

@<TRIPOS>ATOM
      1  C1        73.6950    6.9450   30.5670 C.3   459  CBI459      0.2695
      2  C2        73.1170    7.0500   29.1620 C.3   459  CBI459      0.2406
      3  C3        71.8920    7.9790   29.1780 C.3   459  CBI459      0.2198
      4  C4        70.8910    7.4070   30.1740 C.3   459  CBI459      0.2144
      5  C5        71.5530    7.2440   31.5380 C.3   459  CBI459      0.1835
      6  C6        70.5330    6.6230   32.5150 C.3   459  CBI459      0.2142
      7  O2        74.0940    7.5540   28.2540 O.3   459  CBI459     -0.2149
      8  O3        71.3060    7.9920   27.8610 O.3   459  CBI459     -0.2174
      9  O4        69.7510    8.2780   30.2720 O.3   459  CBI459     -0.2176
     10  O5        72.7060    6.3970   31.4540 O.3   459  CBI459     -0.3256
     11  O6        71.1550    6.4250   33.7990 O.3   459  CBI459     -0.2176
     12  C1'       78.0380    5.1920   33.0170 C.3   459  CBI459      0.3023
     13  C2'       76.6760    5.3400   33.7060 C.3   459  CBI459      0.2433
     14  C3'       75.5490    5.2870   32.6770 C.3   459  CBI459      0.2168
     15  C4'       75.7960    6.2690   31.5420 C.3   459  CBI459      0.1804
     16  C5'       77.1790    5.9660   30.9820 C.3   459  CBI459      0.1804
     17  C6'       77.4920    6.8570   29.7720 C.3   459  CBI459      0.2141
     18  O1'       79.0850    5.3650   33.9710 O.3   459  CBI459     -0.1869
     19  O2'       76.5160    4.2500   34.6270 O.3   459  CBI459     -0.2148
     20  O3'       74.3090    5.6120   33.3360 O.3   459  CBI459     -0.2175
     21  O4'       74.8460    6.0620   30.4870 O.3   459  CBI459     -0.3257
     22  O5'       78.1670    6.1910   31.9940 O.3   459  CBI459     -0.3237
     23  O6'       77.6480    8.2210   30.2040 O.3   459  CBI459     -0.2176
@<TRIPOS>BOND
     1     8     3    1
     2     7     2    1
     3     2     3    1
     4     2     1    1
     5     3     4    1
     6    17    23    1
     7    17    16    1
     8     4     9    1
     9     4     5    1
    10    21     1    1
    11    21    15    1
    12     1    10    1
    13    16    15    1
    14    16    22    1
    15    10     5    1
    16     5     6    1
    17    15    14    1
    18    22    12    1
    19     6    11    1
    20    14    20    1
    21    14    13    1
    22    12    13    1
    23    12    18    1
    24    13    19    1
