@<TRIPOS>MOLECULE
3qho_CTT_A_1.pdb
 45 48 0 0 0
SMALL
GASTEIGER

@<TRIPOS>ATOM
      1  O1B       16.8630  -28.3130   18.5240 O.3   2739  CTT2739    -0.1869
      2  C1B       17.9980  -27.4170   18.6540 C.3   2739  CTT2739     0.3023
      3  C2B       18.3570  -26.7900   17.2550 C.3   2739  CTT2739     0.2433
      4  O2B       18.7410  -27.8200   16.2910 O.3   2739  CTT2739    -0.2148
      5  C3B       19.3890  -25.6390   17.3970 C.3   2739  CTT2739     0.2168
      6  O3B       19.4720  -24.9080   16.1890 O.3   2739  CTT2739    -0.2175
      7  O5B       17.5740  -26.2730   19.4070 O.3   2739  CTT2739    -0.3237
      8  C5B       18.6370  -25.3300   19.7720 C.3   2739  CTT2739     0.1804
      9  C6B       18.1800  -24.3960   20.9880 C.3   2739  CTT2739     0.2141
     10  O6B       17.0450  -25.0170   21.5920 O.3   2739  CTT2739    -0.2176
     11  C4B       18.9480  -24.5990   18.5150 C.3   2739  CTT2739     0.1804
     12  O4B       19.9270  -23.6900   18.9710 O.3   2739  CTT2739    -0.3257
     13  C1C       20.0260  -22.4100   18.2880 C.3   2739  CTT2739     0.2695
     14  C2C       20.9410  -21.4450   19.1140 C.3   2739  CTT2739     0.2404
     15  O2C       20.2990  -21.0990   20.3180 O.3   2739  CTT2739    -0.2149
     16  C3C       21.1230  -20.1050   18.4330 C.3   2739  CTT2739     0.2167
     17  O3C       22.0040  -19.2280   19.2660 O.3   2739  CTT2739    -0.2175
     18  O5C       20.7390  -22.6160   17.0930 O.3   2739  CTT2739    -0.3257
     19  C5C       20.8970  -21.4090   16.3600 C.3   2739  CTT2739     0.1803
     20  C6C       21.6150  -21.7470   15.1080 C.3   2739  CTT2739     0.2141
     21  O6C       20.7990  -22.7010   14.4220 O.3   2739  CTT2739    -0.2176
     22  C4C       21.7860  -20.3480   17.1110 C.3   2739  CTT2739     0.1804
     23  O4C       21.7740  -18.9980   16.5610 O.3   2739  CTT2739    -0.3257
     24  C1D       22.7550  -18.5100   15.5420 C.3   2739  CTT2739     0.2695
     25  C2D       22.4920  -16.9920   15.3350 C.3   2739  CTT2739     0.2404
     26  O2D       22.3880  -16.6590   13.9490 O.3   2739  CTT2739    -0.2149
     27  C3D       23.5510  -16.0810   15.9850 C.3   2739  CTT2739     0.2167
     28  O3D       22.9520  -14.6740   16.1530 O.3   2739  CTT2739    -0.2175
     29  O5D       24.0890  -18.8350   15.9300 O.3   2739  CTT2739    -0.3257
     30  C5D       24.9250  -17.9070   16.6530 C.3   2739  CTT2739     0.1803
     31  C6D       25.5120  -18.9280   17.6450 C.3   2739  CTT2739     0.2141
     32  O6D       24.4740  -19.1680   18.5890 O.3   2739  CTT2739    -0.2176
     33  C4D       24.1440  -16.7550   17.2400 C.3   2739  CTT2739     0.1804
     34  O4D       25.1970  -16.0200   17.8830 O.3   2739  CTT2739    -0.3257
     35  C1E       24.7510  -15.1070   18.8660 C.3   2739  CTT2739     0.2695
     36  C2E       25.8220  -14.9790   19.9230 C.3   2739  CTT2739     0.2406
     37  O2E       25.8910  -16.2400   20.6530 O.3   2739  CTT2739    -0.2149
     38  C3E       25.5150  -13.8010   20.8660 C.3   2739  CTT2739     0.2198
     39  O3E       26.6310  -13.6180   21.7450 O.3   2739  CTT2739    -0.2174
     40  C4E       25.4100  -12.5370   20.0580 C.3   2739  CTT2739     0.2144
     41  O4E       24.9890  -11.5270   20.9290 O.3   2739  CTT2739    -0.2176
     42  O5E       24.6480  -13.8590   18.1510 O.3   2739  CTT2739    -0.3256
     43  C5E       24.3240  -12.6730   18.9970 C.3   2739  CTT2739     0.1835
     44  C6E       24.1380  -11.4260   18.1400 C.3   2739  CTT2739     0.2142
     45  O6E       23.2750  -11.7500   16.9870 O.3   2739  CTT2739    -0.2176
@<TRIPOS>BOND
     1    26    25    1
     2    21    20    1
     3    20    19    1
     4    25    24    1
     5    25    27    1
     6    24    29    1
     7    24    23    1
     8    29    30    1
     9    27    28    1
    10    27    33    1
    11     6     5    1
    12     4     3    1
    13    19    18    1
    14    19    22    1
    15    23    22    1
    16    30    33    1
    17    30    31    1
    18    45    44    1
    19    18    13    1
    20    22    16    1
    21    33    34    1
    22     3     5    1
    23     3     2    1
    24     5    11    1
    25    31    32    1
    26    34    35    1
    27    44    43    1
    28    42    35    1
    29    42    43    1
    30    13    12    1
    31    13    14    1
    32    16    14    1
    33    16    17    1
    34    11    12    1
    35    11     8    1
    36     1     2    1
    37     2     7    1
    38    35    36    1
    39    43    40    1
    40    14    15    1
    41     7     8    1
    42     8     9    1
    43    36    37    1
    44    36    38    1
    45    40    38    1
    46    40    41    1
    47    38    39    1
    48     9    10    1
