@<TRIPOS>MOLECULE
3qhr_ADP_A_1.pdb
 27 29 0 0 0
SMALL
GASTEIGER

@<TRIPOS>ATOM
      1  PB         9.6400  -46.4830  -30.8080 P.3   297  ADP297      0.5373
      2  O1B        8.1390  -46.4220  -30.9500 O.3   297  ADP297     -0.1143
      3  O2B       10.0610  -46.5060  -29.3650 O.3   297  ADP297     -0.1143
      4  O3B       10.3150  -47.4960  -31.6830 O.2   297  ADP297     -0.2221
      5  PA        11.6260  -44.5430  -31.7500 P.3   297  ADP297      0.2231
      6  O1A       12.5900  -45.6430  -32.1080 O.2   297  ADP297     -0.5169
      7  O2A       12.0720  -43.4750  -30.7850 O.3   297  ADP297     -0.4370
      8  O3A       10.1240  -45.0490  -31.3880 O.3   297  ADP297     -0.2261
      9  O5'       11.2590  -43.8140  -33.1270 O.3   297  ADP297     -0.3111
     10  C5'       10.3280  -44.4290  -34.0120 C.3   297  ADP297      0.1813
     11  C4'       10.7940  -44.1240  -35.4290 C.3   297  ADP297      0.1821
     12  O4'       10.7690  -42.7070  -35.6160 O.3   297  ADP297     -0.3135
     13  C3'       12.2330  -44.5650  -35.6650 C.3   297  ADP297      0.2184
     14  O3'       12.3280  -45.8320  -36.3210 O.3   297  ADP297     -0.2174
     15  C2'       12.8170  -43.4860  -36.5490 C.3   297  ADP297      0.2570
     16  O2'       12.7170  -43.8960  -37.9140 O.3   297  ADP297     -0.2130
     17  C1'       11.9360  -42.2740  -36.3170 C.3   297  ADP297      0.3186
     18  N9        12.6910  -41.3580  -35.4420 N.pl3 297  ADP297     -0.1439
     19  C8        12.8070  -41.4800  -34.1050 C.3   297  ADP297      0.3377
     20  N7        13.5650  -40.4780  -33.5930 N.2   297  ADP297     -0.2095
     21  C5        13.9490  -39.7020  -34.6250 C.2   297  ADP297      0.2526
     22  C6        14.7630  -38.4810  -34.8000 C.2   297  ADP297      0.4393
     23  N6        15.3350  -37.8860  -33.7330 N.pl3 297  ADP297      0.2180
     24  N1        14.9240  -37.9870  -36.0520 N.2   297  ADP297      0.0021
     25  C2        14.3590  -38.5740  -37.1210 C.3   297  ADP297      0.5254
     26  N3        13.6070  -39.6860  -37.0370 N.2   297  ADP297     -0.0055
     27  C4        13.3750  -40.2870  -35.8440 C.2   297  ADP297      0.3518
@<TRIPOS>BOND
     1    16    15    1
     2    25    26    1
     3    25    24    1
     4    26    27    2
     5    15    17    1
     6    15    13    1
     7    14    13    1
     8    17    12    1
     9    17    18    1
    10    24    22    2
    11    27    18    1
    12    27    21    1
    13    13    11    1
    14    12    11    1
    15    18    19    1
    16    11    10    1
    17    22    21    1
    18    22    23    1
    19    21    20    2
    20    19    20    1
    21    10     9    1
    22     9     5    1
    23     6     5    2
    24     5     8    1
    25     5     7    1
    26     4     1    2
    27     8     1    1
    28     2     1    1
    29     1     3    1
