@<TRIPOS>MOLECULE
3qhw_ADP_A_1.pdb
 27 29 0 0 0
SMALL
GASTEIGER

@<TRIPOS>ATOM
      1  PB       -15.1630  -76.6650  -65.7050 P.3   297  ADP297      0.5373
      2  O1B      -14.6370  -77.6220  -66.7440 O.2   297  ADP297     -0.2221
      3  O2B      -14.5890  -76.8290  -64.3270 O.3   297  ADP297     -0.1143
      4  O3B      -16.6680  -76.5400  -65.6690 O.3   297  ADP297     -0.1143
      5  PA       -13.2080  -74.7170  -66.6930 P.3   297  ADP297      0.2231
      6  O1A      -12.3270  -75.8120  -67.1990 O.2   297  ADP297     -0.5169
      7  O2A      -12.5750  -73.6510  -65.8240 O.3   297  ADP297     -0.4370
      8  O3A      -14.6650  -75.1950  -66.1480 O.3   297  ADP297     -0.2261
      9  O5'      -13.7350  -73.9460  -67.9980 O.3   297  ADP297     -0.3111
     10  C5'      -14.4990  -74.6240  -68.9930 C.3   297  ADP297      0.1813
     11  C4'      -13.9820  -74.2430  -70.3820 C.3   297  ADP297      0.1821
     12  O4'      -14.0770  -72.8290  -70.6120 O.3   297  ADP297     -0.3135
     13  C3'      -12.5120  -74.5980  -70.5420 C.3   297  ADP297      0.2184
     14  O3'      -12.3360  -75.9450  -70.9890 O.3   297  ADP297     -0.2174
     15  C2'      -11.9990  -73.5610  -71.5240 C.3   297  ADP297      0.2570
     16  O2'      -12.1060  -74.0290  -72.8730 O.3   297  ADP297     -0.2130
     17  C1'      -12.9140  -72.3620  -71.3020 C.3   297  ADP297      0.3186
     18  N9       -12.1390  -71.4380  -70.4460 N.pl3 297  ADP297     -0.1439
     19  C8       -11.9970  -71.5220  -69.1010 C.3   297  ADP297      0.3377
     20  N7       -11.2050  -70.5230  -68.6250 N.2   297  ADP297     -0.2095
     21  C5       -10.8170  -69.7960  -69.6980 C.2   297  ADP297      0.2526
     22  C6        -9.9650  -68.5980  -69.9130 C.2   297  ADP297      0.4393
     23  N6        -9.3640  -68.0010  -68.8580 N.pl3 297  ADP297      0.2180
     24  N1        -9.8150  -68.1490  -71.1860 N.2   297  ADP297      0.0021
     25  C2       -10.4160  -68.7500  -72.2300 C.3   297  ADP297      0.5254
     26  N3       -11.1910  -69.8490  -72.1080 N.2   297  ADP297     -0.0055
     27  C4       -11.4260  -70.4020  -70.8900 C.2   297  ADP297      0.3518
@<TRIPOS>BOND
     1    16    15    1
     2    25    26    1
     3    25    24    1
     4    26    27    2
     5    15    17    1
     6    15    13    1
     7    17    12    1
     8    17    18    1
     9    24    22    2
    10    14    13    1
    11    27    18    1
    12    27    21    1
    13    12    11    1
    14    13    11    1
    15    18    19    1
    16    11    10    1
    17    22    21    1
    18    22    23    1
    19    21    20    2
    20    19    20    1
    21    10     9    1
    22     9     5    1
    23     6     5    2
    24     2     1    2
    25     5     8    1
    26     5     7    1
    27     8     1    1
    28     1     4    1
    29     1     3    1
