@<TRIPOS>MOLECULE
3qhw_III_L_1.pdb
 31 30 0 0 0
SMALL
GASTEIGER

@<TRIPOS>ATOM
      1  N        -25.5160  -82.7970  -29.6820 N.3     4  ALA4       -0.1231
      2  CA       -26.1540  -81.5110  -29.9470 C.3     4  ALA4        0.1694
      3  C        -26.0940  -80.6070  -28.7090 C.2     4  ALA4        0.2592
      4  O        -26.7150  -80.9050  -27.6840 O.2     4  ALA4       -0.2718
      5  CB       -27.6040  -81.7140  -30.4090 C.3     4  ALA4        0.0304
      6  N        -25.3460  -79.5080  -28.8100 N.am    5  LYS5       -0.1966
      7  CA       -25.1140  -78.6240  -27.6670 C.3     5  LYS5        0.1728
      8  C        -25.1460  -77.1300  -28.0250 C.2     5  LYS5        0.2616
      9  O        -24.4700  -76.6820  -28.9610 O.2     5  LYS5       -0.2715
     10  CB       -23.7720  -78.9700  -27.0150 C.3     5  LYS5        0.0311
     11  CG       -23.4720  -78.2080  -25.7370 C.3     5  LYS5        0.0038
     12  CD       -22.0180  -78.4000  -25.3170 C.3     5  LYS5        0.0206
     13  CE       -21.6350  -79.8730  -25.2990 C.3     5  LYS5        0.1093
     14  NZ       -20.1810  -80.0810  -25.0340 N.3     5  LYS5       -0.1314
     15  N        -25.9400  -76.3650  -27.2800 N.am    6  LYS6       -0.1963
     16  CA       -25.8820  -74.9090  -27.3520 C.3     6  LYS6        0.1728
     17  C        -24.8570  -74.4350  -26.3330 C.2     6  LYS6        0.2616
     18  O        -24.9670  -74.7520  -25.1530 O.2     6  LYS6       -0.2715
     19  CB       -27.2490  -74.2890  -27.0600 C.3     6  LYS6        0.0311
     20  CG       -27.2160  -72.7710  -26.9120 C.3     6  LYS6        0.0038
     21  CD       -28.6130  -72.1700  -26.8870 C.3     6  LYS6        0.0206
     22  CE       -28.5490  -70.6650  -26.6740 C.3     6  LYS6        0.1093
     23  NZ       -29.8990  -70.0420  -26.7840 N.3     6  LYS6       -0.1314
     24  N        -23.8530  -73.6910  -26.7850 N.am    7  LEU7       -0.1977
     25  CA       -22.7640  -73.2690  -25.9010 C.3     7  LEU7        0.1596
     26  C        -23.1630  -72.1010  -25.0020 C.2     7  LEU7        0.2287
     27  O        -23.5790  -71.0510  -25.4930 O.2     7  LEU7       -0.2864
     28  CB       -21.5160  -72.9050  -26.7120 C.3     7  LEU7        0.0297
     29  CG       -20.7440  -74.0910  -27.2870 C.3     7  LEU7        0.0022
     30  CD1      -19.3550  -73.6330  -27.6850 C.3     7  LEU7        0.0001
     31  CD2      -20.6800  -75.2280  -26.2620 C.3     7  LEU7        0.0001
@<TRIPOS>BOND
     1     5     2    1
     2     2     1    1
     3     2     3    1
     4     9     8    2
     5     6     3   am
     6     6     7    1
     7     3     4    2
     8     8     7    1
     9     8    15   am
    10    30    29    1
    11     7    10    1
    12    16    15    1
    13    16    19    1
    14    16    17    1
    15    29    28    1
    16    29    31    1
    17    19    20    1
    18    10    11    1
    19    20    21    1
    20    21    22    1
    21    24    17   am
    22    24    25    1
    23    23    22    1
    24    28    25    1
    25    17    18    2
    26    25    26    1
    27    11    12    1
    28    27    26    2
    29    12    13    1
    30    13    14    1
