@<TRIPOS>MOLECULE
3qhx_EPE_A_1.pdb
 15 15 0 0 0
SMALL
GASTEIGER

@<TRIPOS>ATOM
      1  N1        -0.7960  -34.0300  -38.6040 N.3   390  EPE390     -0.2689
      2  C2        -0.8620  -34.9190  -39.7850 C.3   390  EPE390      0.0897
      3  C3        -1.5210  -36.2280  -39.4180 C.3   390  EPE390      0.0897
      4  N4        -2.8970  -36.0570  -38.8700 N.3   390  EPE390     -0.2681
      5  C5        -2.8210  -35.1830  -37.6880 C.3   390  EPE390      0.0897
      6  C6        -2.2100  -33.8280  -38.0700 C.3   390  EPE390      0.0897
      7  C7        -3.4590  -37.4100  -38.5200 C.3   390  EPE390      0.1081
      8  C8        -4.8220  -37.2890  -37.7420 C.3   390  EPE390      0.1993
      9  O8        -5.5880  -36.5790  -38.6530 O.3   390  EPE390     -0.2189
     10  C9         0.3360  -34.4720  -37.6720 C.3   390  EPE390      0.0939
     11  C10        0.7430  -33.2930  -36.9000 C.3   390  EPE390      0.1225
     12  S          2.3570  -33.5840  -36.2060 S.3   390  EPE390     -0.1946
     13  O1S        2.3390  -34.9060  -35.4660 O.3   390  EPE390     -0.3074
     14  O2S        2.5730  -32.4100  -35.3760 O.3   390  EPE390     -0.3074
     15  O3S        3.2290  -33.6200  -37.3710 O.3   390  EPE390     -0.3074
@<TRIPOS>BOND
     1     2     3    1
     2     2     1    1
     3     3     4    1
     4     4     7    1
     5     4     5    1
     6     9     8    1
     7     1     6    1
     8     1    10    1
     9     7     8    1
    10     6     5    1
    11    10    11    1
    12    15    12    1
    13    11    12    1
    14    12    13    1
    15    12    14    1
