@<TRIPOS>MOLECULE
3qi1_C6A_A_1.pdb
 36 39 0 0 0
SMALL
GASTEIGER

@<TRIPOS>ATOM
      1  C1         4.7970   14.7730  -13.3930 C.ar  401  C6A401      0.0256
      2  C2         4.2110   13.5420  -13.0750 C.ar  401  C6A401     -0.0159
      3  C3         4.9710   12.3710  -13.1780 C.ar  401  C6A401      0.0256
      4  C4         6.3070   12.4130  -13.5780 C.ar  401  C6A401      0.1421
      5  C5         6.9010   13.6130  -13.8820 C.ar  401  C6A401      0.0592
      6  C6         6.1480   14.7680  -13.7620 C.ar  401  C6A401      0.1421
      7  F7         6.7640   15.9010  -14.0600 F     401  C6A401     -0.2041
      8  F8         7.0320   11.2940  -13.6740 F     401  C6A401     -0.2041
      9  C9         2.7600   13.4490  -12.5890 C.3   401  C6A401      0.0508
     10  C10        2.6430   14.2730  -11.2960 C.3   401  C6A401      0.1313
     11  C11        1.2550   14.2230  -10.6820 C.3   401  C6A401      0.1894
     12  C12        1.1110   15.1180   -9.4720 C.3   401  C6A401      0.1236
     13  N13       -0.3040   15.1370   -9.0640 N.3   401  C6A401     -0.2121
     14  C14       -0.7650   16.2590   -8.2730 C.3   401  C6A401      0.1015
     15  C15       -0.3960   17.6300   -8.8040 C.ar  401  C6A401      0.0273
     16  C16        0.1700   18.6920   -7.9210 C.ar  401  C6A401      0.1356
     17  O17        0.3560   18.3570   -6.6090 O.3   401  C6A401     -0.4794
     18  C18       -0.3390   17.2890   -5.9910 C.3   401  C6A401      0.1675
     19  C19       -0.1850   16.0580   -6.8700 C.3   401  C6A401      0.0654
     20  C20       -0.5870   17.9560  -10.1270 C.ar  401  C6A401     -0.0042
     21  C21       -0.2940   19.2090  -10.6280 C.ar  401  C6A401     -0.0223
     22  C22        0.2860   20.2020   -9.8140 C.ar  401  C6A401     -0.0012
     23  C23        0.5230   19.9820   -8.4360 C.ar  401  C6A401      0.0363
     24  C24       -0.5780   19.3680  -12.1280 C.3   401  C6A401      0.0263
     25  C25       -1.8210   20.1890  -12.4860 C.3   401  C6A401      0.0040
     26  C26       -1.7610   20.5230  -13.9960 C.3   401  C6A401      0.0003
     27  C27       -1.8910   21.5070  -11.7260 C.3   401  C6A401      0.0003
     28  C28       -3.0590   19.3540  -12.1280 C.3   401  C6A401      0.0003
     29  C29       -1.7770   17.6960   -5.6800 C.3   401  C6A401      0.0401
     30  C30       -1.8370   18.9600   -4.8330 C.3   401  C6A401      0.0037
     31  C31       -1.9860   17.5950   -4.1660 C.3   401  C6A401      0.0037
     32  O32        0.3090   14.5410  -11.6920 O.3   401  C6A401     -0.2197
     33  N33        3.5440   13.8110  -10.2720 N.am  401  C6A401     -0.2042
     34  C34        4.3300   14.6870   -9.6470 C.2   401  C6A401      0.2419
     35  C35        5.3510   14.0890   -8.7020 C.3   401  C6A401      0.0964
     36  O36        4.2350   15.9010   -9.8770 O.2   401  C6A401     -0.2733
@<TRIPOS>BOND
     1     7     6    1
     2    26    25    1
     3     5     6   ar
     4     5     4   ar
     5     6     1   ar
     6     8     4    1
     7     4     3   ar
     8     1     2   ar
     9     3     2   ar
    10     2     9    1
    11     9    10    1
    12    25    24    1
    13    25    28    1
    14    25    27    1
    15    24    21    1
    16    32    11    1
    17    10    11    1
    18    10    33    1
    19    11    12    1
    20    21    20   ar
    21    21    22   ar
    22    33    34   am
    23    20    15   ar
    24    36    34    2
    25    22    23   ar
    26    34    35    1
    27    12    13    1
    28    13    14    1
    29    15    14    1
    30    15    16   ar
    31    23    16   ar
    32    14    19    1
    33    16    17    1
    34    19    18    1
    35    17    18    1
    36    18    29    1
    37    29    30    1
    38    29    31    1
    39    30    31    1
