@<TRIPOS>MOLECULE
3qi2_GDP_A_1.pdb
 28 30 0 0 0
SMALL
GASTEIGER

@<TRIPOS>ATOM
      1  PB       -28.0040   17.0970   29.6850 P.3   355  GDP355      0.5373
      2  O1B      -26.9020   18.0600   29.3150 O.3   355  GDP355     -0.1143
      3  O2B      -28.6530   16.5570   28.4350 O.2   355  GDP355     -0.2221
      4  O3B      -27.4360   15.9400   30.4680 O.3   355  GDP355     -0.1143
      5  O3A      -29.1040   17.8470   30.5860 O.3   355  GDP355     -0.2261
      6  PA       -28.8070   19.3140   31.1710 P.3   355  GDP355      0.2231
      7  O1A      -28.5760   20.2920   30.0450 O.2   355  GDP355     -0.5169
      8  O2A      -27.6250   19.2960   32.1070 O.3   355  GDP355     -0.4370
      9  O5'      -30.1660   19.6770   31.9500 O.3   355  GDP355     -0.3111
     10  C5'      -31.1540   20.4470   31.2700 C.3   355  GDP355      0.1813
     11  C4'      -31.8510   21.3870   32.2400 C.3   355  GDP355      0.1799
     12  O4'      -32.3150   20.6540   33.3700 O.3   355  GDP355     -0.3326
     13  C3'      -30.8840   22.4410   32.7530 C.3   355  GDP355      0.2158
     14  O3'      -31.1940   23.7130   32.1820 O.3   355  GDP355     -0.2175
     15  C2'      -31.0810   22.4840   34.2520 C.3   355  GDP355      0.2310
     16  O2'      -31.5590   23.7720   34.6440 O.3   355  GDP355     -0.2158
     17  C1'      -32.1270   21.4250   34.5570 C.3   355  GDP355      0.2293
     18  N9       -31.6430   20.5600   35.6570 N.pl3 355  GDP355     -0.2354
     19  C8       -30.6060   19.7040   35.5960 C.3   355  GDP355      0.2246
     20  N7       -30.4320   19.0650   36.7810 N.2   355  GDP355     -0.2322
     21  C5       -31.3810   19.5140   37.6230 C.2   355  GDP355      0.2182
     22  C6       -31.7720   19.2570   39.0270 C.1   355  GDP355      0.2372
     23  O6       -31.1440   18.4330   39.7240 O.2   355  GDP355     -0.2069
     24  N1       -32.8170   19.9340   39.5220 N.2   355  GDP355     -0.2485
     25  C2       -33.5100   20.8270   38.7890 C.1   355  GDP355      0.2531
     26  N2       -34.5550   21.4710   39.3610 N.pl3 355  GDP355     -0.0226
     27  N3       -33.2090   21.1130   37.4970 N.2   355  GDP355     -0.3074
     28  C4       -32.1760   20.4980   36.8760 C.2   355  GDP355      0.2300
@<TRIPOS>BOND
     1     3     1    2
     2     2     1    1
     3     1     4    1
     4     1     5    1
     5     7     6    2
     6     5     6    1
     7     6     9    1
     8     6     8    1
     9    10     9    1
    10    10    11    1
    11    14    13    1
    12    11    13    1
    13    11    12    1
    14    13    15    1
    15    12    17    1
    16    15    17    1
    17    15    16    1
    18    17    18    1
    19    19    18    1
    20    19    20    1
    21    18    28    1
    22    20    21    2
    23    28    27    2
    24    28    21    1
    25    27    25    2
    26    21    22    1
    27    25    26    1
    28    25    24    2
    29    22    24    2
    30    22    23    2
