@<TRIPOS>MOLECULE
3qi3_PDB_A_1.pdb
 24 26 0 0 0
SMALL
GASTEIGER

@<TRIPOS>ATOM
      1  C2        77.7530   49.8720   40.4330 C.ar  600  PDB600     -0.0063
      2  C3        78.3200   49.7770   39.1670 C.ar  600  PDB600     -0.0030
      3  C4        79.5860   50.2980   38.9240 C.ar  600  PDB600     -0.0002
      4  C5        80.2840   50.9180   39.9550 C.ar  600  PDB600      0.0013
      5  F5        71.9380   55.1500   41.7410 F     600  PDB600     -0.1700
      6  C6        79.7160   51.0130   41.2200 C.ar  600  PDB600      0.0165
      7  F6        72.7550   54.3990   39.8150 F     600  PDB600     -0.1700
      8  C7        78.4500   50.4900   41.4690 C.ar  600  PDB600      0.0723
      9  F7        73.4750   56.3280   40.6490 F     600  PDB600     -0.1700
     10  N8        77.9510   50.5690   42.7180 N.pl3 600  PDB600     -0.1647
     11  N9        78.5600   50.1790   43.7440 N.2   600  PDB600     -0.1734
     12  C10       77.8850   50.4810   44.8730 C.2   600  PDB600      0.1180
     13  C11       76.7880   51.1600   43.0810 C.2   600  PDB600      0.2172
     14  C12       76.7260   51.1280   44.4660 C.3   600  PDB600      0.2305
     15  N13       75.7800   51.7450   42.3810 N.2   600  PDB600     -0.3288
     16  C14       74.7170   52.3010   43.0270 C.1   600  PDB600      0.1270
     17  N15       74.6420   52.2830   44.3870 N.2   600  PDB600     -0.2740
     18  C16       75.6460   51.6990   45.1290 C.1   600  PDB600      0.2032
     19  O17       75.6080   51.7390   46.3590 O.2   600  PDB600     -0.2126
     20  C18       73.6240   52.9930   42.2320 C.3   600  PDB600      0.1342
     21  C19       74.1510   54.3360   41.7200 C.3   600  PDB600      0.1121
     22  C20       75.3300   54.0870   40.7780 C.3   600  PDB600      0.0100
     23  C21       73.0470   55.0730   40.9590 C.3   600  PDB600      0.3986
     24  CL1       76.1860   49.2170   40.6950 C.3   600  PDB600      0.0324
@<TRIPOS>BOND
     1     3     2   ar
     2     3     4   ar
     3     2     1   ar
     4     7    23    1
     5     4     6   ar
     6     1    24    1
     7     1     8   ar
     8     9    23    1
     9    22    21    1
    10    23    21    1
    11    23     5    1
    12     6     8   ar
    13     8    10    1
    14    21    20    1
    15    20    16    1
    16    15    16    2
    17    15    13    2
    18    10    13    1
    19    10    11    1
    20    16    17    2
    21    13    14    1
    22    11    12    2
    23    17    18    2
    24    14    12    1
    25    14    18    1
    26    18    19    2
