@<TRIPOS>MOLECULE
3qi4_IBM_A_1.pdb
 16 17 0 0 0
SMALL
GASTEIGER

@<TRIPOS>ATOM
      1  N9        74.1120   52.5470   40.8180 N.2   534  IBM534     -0.2256
      2  C8        73.3110   53.2280   41.7030 C.3   534  IBM534      0.2523
      3  N7        73.7130   53.1470   42.9480 N.2   534  IBM534     -0.2364
      4  C5        74.8550   52.3610   42.8780 C.ar  534  IBM534      0.1681
      5  C4        75.1160   51.9860   41.5720 C.ar  534  IBM534      0.1667
      6  N3        76.1500   51.2380   41.1220 N.ar  534  IBM534     -0.2651
      7  C2        77.0050   50.8120   42.0950 C.ar  534  IBM534      0.3350
      8  N1        76.8240   51.1420   43.4490 N.ar  534  IBM534     -0.2454
      9  C6        75.7510   51.9140   43.8410 C.ar  534  IBM534      0.2846
     10  O6        75.5810   52.1990   45.0320 O.2   534  IBM534     -0.2651
     11  O2        77.9680   50.1260   41.7710 O.2   534  IBM534     -0.2461
     12  C10       77.7840   50.6720   44.4460 C.3   534  IBM534      0.1383
     13  C11       76.3850   50.9560   39.7010 C.3   534  IBM534      0.1119
     14  C12       75.0870   50.5550   38.9930 C.3   534  IBM534      0.0228
     15  C13       75.4040   49.4240   38.0140 C.3   534  IBM534      0.0020
     16  C14       74.4950   51.7320   38.2220 C.3   534  IBM534      0.0020
@<TRIPOS>BOND
     1    15    14    1
     2    16    14    1
     3    14    13    1
     4    13     6    1
     5     1     5    2
     6     1     2    1
     7     6     5   ar
     8     6     7   ar
     9     5     4   ar
    10     2     3    1
    11    11     7    2
    12     7     8   ar
    13     4     3    2
    14     4     9   ar
    15     8     9   ar
    16     8    12    1
    17     9    10    2
