@<TRIPOS>MOLECULE
3qi8_HEM_A_1.pdb
 43 50 0 0 0
SMALL
GASTEIGER

@<TRIPOS>ATOM
      1  CHA      -28.5520  -12.1310  -24.2790 C.2   472  HEM472      0.0000
      2  CHB      -26.6930  -16.5080  -25.4010 C.2   472  HEM472      0.0000
      3  CHC      -26.2900  -17.5810  -20.6880 C.2   472  HEM472      0.0000
      4  CHD      -28.8130  -13.6530  -19.5150 C.2   472  HEM472      0.0000
      5  C1A      -28.0850  -13.1890  -25.0540 C.ar  472  HEM472      0.0000
      6  C2A      -27.9500  -13.3220  -26.5090 C.ar  472  HEM472      0.0000
      7  C3A      -27.4390  -14.5230  -26.7690 C.ar  472  HEM472      0.0000
      8  C4A      -27.2160  -15.2350  -25.5290 C.ar  472  HEM472      0.0000
      9  CMA      -27.1430  -15.0510  -28.1830 C.3   472  HEM472      0.0000
     10  CAA      -28.2790  -12.3960  -27.7070 C.3   472  HEM472      0.0000
     11  CBA      -28.4120  -10.8860  -27.5110 C.3   472  HEM472      0.0000
     12  CGA      -28.8180  -10.3600  -28.8800 C.2   472  HEM472      0.0000
     13  O1A      -29.7860  -10.9250  -29.4750 O.co2 472  HEM472      0.0000
     14  O2A      -28.1910   -9.3850  -29.3820 O.co2 472  HEM472      0.0000
     15  C1B      -26.4380  -17.1750  -24.2310 C.2   472  HEM472      0.0000
     16  C2B      -25.9320  -18.5310  -24.0840 C.2   472  HEM472      0.0000
     17  C3B      -25.8410  -18.7880  -22.7660 C.2   472  HEM472      0.0000
     18  C4B      -26.2590  -17.6290  -22.0600 C.2   472  HEM472      0.0000
     19  CMB      -25.5830  -19.4660  -25.2690 C.3   472  HEM472      0.0000
     20  CAB      -25.3660  -20.0010  -21.9610 C.2   472  HEM472      0.0000
     21  CBB      -24.6310  -20.9520  -22.5200 C.2   472  HEM472      0.0000
     22  C1C      -26.9210  -16.6100  -19.9550 C.ar  472  HEM472      0.0000
     23  C2C      -26.9580  -16.5390  -18.5210 C.ar  472  HEM472      0.0000
     24  C3C      -27.6310  -15.4550  -18.1780 C.ar  472  HEM472      0.0000
     25  C4C      -28.0770  -14.7970  -19.3880 C.ar  472  HEM472      0.0000
     26  CMC      -26.3020  -17.5300  -17.5460 C.3   472  HEM472      0.0000
     27  CAC      -27.8800  -15.0380  -16.7260 C.2   472  HEM472      0.0000
     28  CBC      -27.9100  -13.7330  -16.4860 C.2   472  HEM472      0.0000
     29  C1D      -28.9330  -12.8990  -20.6700 C.2   472  HEM472      0.0000
     30  C2D      -29.5690  -11.6130  -20.6920 C.2   472  HEM472      0.0000
     31  C3D      -29.4870  -11.1260  -22.1440 C.2   472  HEM472      0.0000
     32  C4D      -28.8120  -12.1660  -22.8980 C.2   472  HEM472      0.0000
     33  CMD      -30.1870  -10.8950  -19.4750 C.3   472  HEM472      0.0000
     34  CAD      -30.0280   -9.7930  -22.6810 C.3   472  HEM472      0.0000
     35  CBD      -28.8380   -9.0120  -23.2200 C.3   472  HEM472      0.0000
     36  CGD      -29.3320   -7.9710  -24.1850 C.2   472  HEM472      0.0000
     37  O1D      -28.4810   -7.4350  -24.9470 O.co2 472  HEM472      0.0000
     38  O2D      -30.5690   -7.7010  -24.1930 O.co2 472  HEM472      0.0000
     39  NA       -27.6260  -14.3900  -24.5080 N.ar  472  HEM472      0.0000
     40  NB       -26.6260  -16.6520  -22.9740 N.2   472  HEM472      0.0000
     41  NC       -27.6290  -15.5340  -20.4580 N.ar  472  HEM472      0.0000
     42  ND       -28.5130  -13.1860  -21.9770 N.2   472  HEM472      0.0000
     43 FE        -27.8120  -14.9710  -22.5100 Fe    472  HEM472      0.0000
@<TRIPOS>BOND
     1    13    12   ar
     2    14    12   ar
     3    12    11    1
     4     9     7    1
     5    10    11    1
     6    10     6    1
     7     7     6   ar
     8     7     8   ar
     9     6     5   ar
    10     8     2    2
    11     8    39   ar
    12     2    15    1
    13    19    16    1
    14     5    39   ar
    15     5     1    2
    16    37    36   ar
    17    39    43    1
    18     1    32    1
    19    15    16    1
    20    15    40    2
    21    38    36   ar
    22    36    35    1
    23    16    17    2
    24    35    34    1
    25    40    43    1
    26    40    18    1
    27    32    31    1
    28    32    42    2
    29    17    18    1
    30    17    20    1
    31    34    31    1
    32    21    20    2
    33    43    42    1
    34    43    41    1
    35    31    30    2
    36    18     3    2
    37    42    29    1
    38    30    29    1
    39    30    33    1
    40     3    22    1
    41    29     4    2
    42    41    22   ar
    43    41    25   ar
    44    22    23   ar
    45     4    25    1
    46    25    24   ar
    47    23    24   ar
    48    23    26    1
    49    24    27    1
    50    27    28    2
