@<TRIPOS>MOLECULE
3qib_FUC_B_1.pdb
 10 10 0 0 0
SMALL
GASTEIGER

@<TRIPOS>ATOM
      1  C1       -13.9580   77.0820  -23.2790 C.3   203  FUC203      0.1776
      2  C2       -14.0870   75.6660  -23.7370 C.3   203  FUC203      0.2141
      3  C3       -12.7170   75.2660  -24.2630 C.3   203  FUC203      0.2172
      4  C4       -11.7250   75.1310  -23.1100 C.3   203  FUC203      0.2116
      5  C5       -11.8280   76.3500  -22.1810 C.3   203  FUC203      0.1483
      6  C6       -11.9440   76.0220  -20.6900 C.3   203  FUC203      0.0349
      7  O2       -15.0670   75.5710  -24.7490 O.3   203  FUC203     -0.2176
      8  O3       -12.7370   74.1150  -25.0890 O.3   203  FUC203     -0.2175
      9  O4       -12.0310   73.9810  -22.3720 O.3   203  FUC203     -0.2177
     10  O5       -12.8270   77.2960  -22.4970 O.3   203  FUC203     -0.3508
@<TRIPOS>BOND
     1     8     3    1
     2     7     2    1
     3     3     2    1
     4     3     4    1
     5     2     1    1
     6     1    10    1
     7     4     9    1
     8     4     5    1
     9    10     5    1
    10     5     6    1
