@<TRIPOS>MOLECULE
3qib_BMA_C_1.pdb
 11 11 0 0 0
SMALL
GASTEIGER

@<TRIPOS>ATOM
      1  C1        20.5370   84.5660   20.8710 C.3   207  BMA207      0.1777
      2  C2        21.3340   85.2910   19.8100 C.3   207  BMA207      0.2141
      3  C3        20.5670   86.3010   18.9750 C.3   207  BMA207      0.2173
      4  C4        19.6400   87.1530   19.8640 C.3   207  BMA207      0.2142
      5  C5        19.2740   86.4150   21.1540 C.3   207  BMA207      0.1810
      6  C6        18.0920   86.9820   22.0070 C.3   207  BMA207      0.2141
      7  O2        22.0170   84.3850   18.9580 O.3   207  BMA207     -0.2176
      8  O3        19.9470   85.6480   17.8650 O.3   207  BMA207     -0.2175
      9  O4        20.3430   88.3260   20.2640 O.3   207  BMA207     -0.2176
     10  O5        19.2350   85.0440   20.7720 O.3   207  BMA207     -0.3481
     11  O6        17.7620   86.0400   23.0540 O.3   207  BMA207     -0.2176
@<TRIPOS>BOND
     1     8     3    1
     2     7     2    1
     3     3     2    1
     4     3     4    1
     5     2     1    1
     6     4     9    1
     7     4     5    1
     8    10     1    1
     9    10     5    1
    10     5     6    1
    11     6    11    1
