@<TRIPOS>MOLECULE
3qic_GLC_A_1.pdb
 12 12 0 0 0
SMALL
GASTEIGER

@<TRIPOS>ATOM
      1  C1        39.0680   15.2260   80.7020 C.3   500  GLC500      0.3024
      2  C2        39.9100   14.5300   81.7590 C.3   500  GLC500      0.2434
      3  C3        41.3510   14.4720   81.3020 C.3   500  GLC500      0.2199
      4  C4        41.3690   13.6930   80.0010 C.3   500  GLC500      0.2144
      5  C5        40.5020   14.4050   78.9470 C.3   500  GLC500      0.1836
      6  C6        40.5080   13.6300   77.5950 C.3   500  GLC500      0.2142
      7  O1        39.5690   16.5350   80.4930 O.3   500  GLC500     -0.1869
      8  O2        39.9150   15.2960   82.9550 O.3   500  GLC500     -0.2148
      9  O3        42.1230   13.8050   82.2800 O.3   500  GLC500     -0.2174
     10  O4        42.7110   13.6010   79.5330 O.3   500  GLC500     -0.2176
     11  O5        39.1460   14.4970   79.4460 O.3   500  GLC500     -0.3236
     12  O6        39.9710   12.3140   77.7690 O.3   500  GLC500     -0.2176
@<TRIPOS>BOND
     1     6    12    1
     2     6     5    1
     3     5    11    1
     4     5     4    1
     5    11     1    1
     6    10     4    1
     7     4     3    1
     8     7     1    1
     9     1     2    1
    10     3     2    1
    11     3     9    1
    12     2     8    1
