@<TRIPOS>MOLECULE
3qih_FG7_A_1.pdb
 12 12 0 0 0
SMALL
GASTEIGER

@<TRIPOS>ATOM
      1  C1       -13.4700   20.4340   -8.3600 C.ar  100  FG7100      0.0893
      2  N2       -13.0220   19.5300   -7.4580 N.pl3 100  FG7100     -0.1281
      3  C3       -12.7440   21.5950   -8.5770 C.ar  100  FG7100      0.0245
      4  C4       -13.2020   22.5260   -9.4990 C.ar  100  FG7100      0.0770
      5  C5       -12.4210   23.7760   -9.7320 C.2   100  FG7100      0.3412
      6  O6       -12.9700   24.8100  -10.5830 O.3   100  FG7100     -0.4454
      7  C7       -12.1150   25.8650  -11.0210 C.3   100  FG7100      0.2089
      8  C8       -12.9640   26.9790  -11.5850 C.3   100  FG7100      0.0513
      9  C9       -14.3800   22.3050  -10.2050 C.ar  100  FG7100      0.0065
     10  C10      -15.1070   21.1390   -9.9870 C.ar  100  FG7100      0.0016
     11  C11      -14.6500   20.2060   -9.0610 C.ar  100  FG7100      0.0181
     12  O12      -11.3370   23.9520   -9.2020 O.2   100  FG7100     -0.2449
@<TRIPOS>BOND
     1     8     7    1
     2     7     6    1
     3     6     5    1
     4     9    10   ar
     5     9     4   ar
     6    10    11   ar
     7     5     4    1
     8     5    12    2
     9     4     3   ar
    10    11     1   ar
    11     3     1   ar
    12     1     2    1
