@<TRIPOS>MOLECULE
3qih_NI7_B_1.pdb
 27 30 0 0 0
SMALL
GASTEIGER

@<TRIPOS>ATOM
      1  C1       -15.6560   20.0440   -5.6100 C.3   100  NI7100      0.1129
      2  C2       -17.0030   19.4950   -5.1650 C.3   100  NI7100      0.1129
      3  N3       -18.0070   19.9140   -6.1360 N.am  100  NI7100     -0.2668
      4  C5       -19.1360   19.0040   -6.3390 C.3   100  NI7100      0.1207
      5  C6       -19.0210   17.9610   -7.4400 C.ar  100  NI7100      0.0009
      6  C7       -19.8330   16.8320   -7.3550 C.ar  100  NI7100      0.0394
      7  C8       -19.8000   15.8310   -8.3200 C.ar  100  NI7100      0.1955
      8  O9       -20.6020   14.7250   -8.1940 O.3   100  NI7100     -0.2866
      9  C10      -18.9320   15.9570   -9.4000 C.ar  100  NI7100      0.0420
     10  C11      -18.1230   17.0870   -9.4980 C.ar  100  NI7100      0.0030
     11  C12      -18.1580   18.0910   -8.5260 C.ar  100  NI7100     -0.0024
     12  C13      -17.8840   21.1520   -6.6230 C.2   100  NI7100      0.3032
     13  O14      -18.5530   21.5640   -7.5550 O.2   100  NI7100     -0.2649
     14  C15      -16.9150   22.0380   -5.9730 C.2   100  NI7100      0.3032
     15  O16      -17.1660   23.2270   -5.8450 O.2   100  NI7100     -0.2649
     16  N17      -15.7560   21.5060   -5.5830 N.am  100  NI7100     -0.2668
     17  C18      -14.5250   22.2540   -5.2970 C.3   100  NI7100      0.1207
     18  C19      -14.3360   22.8220   -3.8990 C.ar  100  NI7100      0.0009
     19  C20      -13.1280   23.4570   -3.6070 C.ar  100  NI7100      0.0394
     20  C21      -12.8850   23.9960   -2.3490 C.ar  100  NI7100      0.1955
     21  O22      -11.6920   24.6080   -2.0710 O.3   100  NI7100     -0.2866
     22  C23      -13.8670   23.8970   -1.3700 C.ar  100  NI7100      0.0420
     23  C24      -15.0780   23.2720   -1.6570 C.ar  100  NI7100      0.0030
     24  C25      -15.3190   22.7300   -2.9200 C.ar  100  NI7100     -0.0024
     25  C26      -16.7180   18.0010   -5.0460 C.3   100  NI7100      0.1102
     26  N27      -15.3710   18.0570   -4.4640 N.3   100  NI7100     -0.2144
     27  C28      -14.7310   19.3710   -4.5980 C.3   100  NI7100      0.1102
@<TRIPOS>BOND
     1    10     9   ar
     2    10    11   ar
     3     9     7   ar
     4    11     5   ar
     5     7     8    1
     6     7     6   ar
     7    13    12    2
     8     5     6   ar
     9     5     4    1
    10    12     3   am
    11    12    14    1
    12     4     3    1
    13     3     2    1
    14    14    15    2
    15    14    16   am
    16     1    16    1
    17     1     2    1
    18     1    27    1
    19    16    17    1
    20    17    18    1
    21     2    25    1
    22    25    26    1
    23    27    26    1
    24    18    19   ar
    25    18    24   ar
    26    19    20   ar
    27    24    23   ar
    28    20    21    1
    29    20    22   ar
    30    23    22   ar
