@<TRIPOS>MOLECULE
3qin_P1Y_A_1.pdb
 21 22 0 0 0
SMALL
GASTEIGER

@<TRIPOS>ATOM
      1  C01        3.8530    4.3630   34.5790 C.ar  700  P1Y700      0.0066
      2  C02        4.8930    4.6250   35.4530 C.ar  700  P1Y700      0.0682
      3  C03        6.2310    4.5410   35.0710 C.ar  700  P1Y700      0.1448
      4  C04        6.5470    4.1880   33.7560 C.ar  700  P1Y700      0.0371
      5  C05        5.5170    3.8940   32.8690 C.ar  700  P1Y700     -0.0000
      6  C06        4.1750    3.9840   33.2740 C.ar  700  P1Y700     -0.0045
      7  C07        3.0750    3.6690   32.3000 C.3   700  P1Y700      0.1520
      8  C08        3.0480    4.6030   31.1240 C.1   700  P1Y700      0.1300
      9  N09        3.3190    4.0600   29.9290 N.2   700  P1Y700     -0.3363
     10  C10        3.2920    4.9190   28.8760 C.2   700  P1Y700      0.2476
     11  C11        2.9930    6.2550   28.9990 C.3   700  P1Y700      0.3273
     12  C12        2.7420    6.6720   30.2850 C.1   700  P1Y700      0.2278
     13  N13        2.7560    5.8810   31.3800 N.2   700  P1Y700     -0.2717
     14  O14        2.9850    7.1300   27.9580 O.3   700  P1Y700     -0.1956
     15  O15        2.4370    7.9610   30.5340 O.2   700  P1Y700     -0.2104
     16  C16        3.5790    4.3020   27.5650 C.2   700  P1Y700      0.4173
     17  O17        3.8710    2.9980   27.7150 O.co2 700  P1Y700     -0.2379
     18  O18        3.5330    4.8460   26.4770 O.co2 700  P1Y700     -0.2379
     19 BR19        4.4990    5.0980   37.2490 Br    700  P1Y700     -0.0459
     20  O20        7.1640    4.8560   36.0250 O.3   700  P1Y700     -0.4709
     21  C21        8.5400    4.7060   35.6810 C.3   700  P1Y700      0.2525
@<TRIPOS>BOND
     1    18    16   ar
     2    16    17   ar
     3    16    10    1
     4    14    11    1
     5    10    11    1
     6    10     9    2
     7    11    12    1
     8     9     8    2
     9    12    15    2
    10    12    13    2
    11     8    13    2
    12     8     7    1
    13     7     6    1
    14     5     6   ar
    15     5     4   ar
    16     6     1   ar
    17     4     3   ar
    18     1     2   ar
    19     3     2   ar
    20     3    20    1
    21     2    19    1
    22    21    20    1
