@<TRIPOS>MOLECULE
3qio_QID_A_1.pdb
 22 24 0 0 0
SMALL
GASTEIGER

@<TRIPOS>ATOM
      1  C01      -11.1250  -10.5270   -9.8370 C.2   700  QID700      0.1068
      2  C02      -12.3510  -10.8620  -10.3310 C.2   700  QID700      0.0001
      3  C03      -13.2510   -9.8450  -10.7070 C.3   700  QID700      0.0878
      4  C04      -12.8600   -8.4810  -10.5520 C.2   700  QID700      0.1409
      5  C05      -11.5860   -8.1530  -10.0300 C.2   700  QID700      0.1352
      6  C06      -10.7150   -9.1220   -9.6550 C.2   700  QID700      0.0303
      7  C07      -11.1880   -6.7010   -9.8760 C.2   700  QID700      0.4337
      8  N08      -13.8050   -7.4290  -10.9440 N.2   700  QID700     -0.2855
      9  N09      -12.1100   -5.6940  -10.2690 N.am  700  QID700     -0.0587
     10  O10      -10.0770   -6.3880   -9.4720 O.2   700  QID700     -0.2124
     11  C11      -13.4280   -6.0350  -10.7910 C.1   700  QID700      0.4595
     12  O12      -14.1930   -5.1490  -11.1010 O.2   700  QID700     -0.1452
     13  O13      -11.7820   -4.4550  -10.1100 O.co2 700  QID700     -0.5418
     14  S14      -10.0320  -11.7930   -9.3280 S.O2  700  QID700      0.0271
     15  C15       -8.8350  -11.9700  -10.6000 C.ar  700  QID700      0.1103
     16  O16       -9.4270  -11.4460   -8.0650 O.2   700  QID700     -0.1643
     17  O17      -10.7680  -13.0090   -9.0710 O.2   700  QID700     -0.1643
     18  C18       -7.5730  -11.4910  -10.3840 C.ar  700  QID700      0.0187
     19  C19       -6.5870  -11.6310  -11.3810 C.ar  700  QID700      0.0013
     20  C20       -6.9090  -12.2890  -12.6120 C.ar  700  QID700      0.0001
     21  C21       -8.2090  -12.7950  -12.8320 C.ar  700  QID700      0.0013
     22  C22       -9.1700  -12.6620  -11.8650 C.ar  700  QID700      0.0187
@<TRIPOS>UNITY_ATOM_ATTR
9 1
charge 1
13 1
charge -1
@<TRIPOS>BOND
     1    21    20   ar
     2    21    22   ar
     3    20    19   ar
     4    22    15   ar
     5    19    18   ar
     6    12    11    2
     7     8    11    2
     8     8     4    2
     9    11     9    1
    10     3     4    1
    11     3     2    1
    12    15    18   ar
    13    15    14    1
    14     4     5    1
    15     2     1    2
    16     9    13    1
    17     9     7    1
    18     5     7    1
    19     5     6    2
    20     7    10    2
    21     1     6    1
    22     1    14    1
    23    14    17    2
    24    14    16    2
