@<TRIPOS>MOLECULE
3qip_P4Y_A_1.pdb
 27 30 0 0 0
SMALL
GASTEIGER

@<TRIPOS>ATOM
      1  C01        2.2000   74.9470   37.9960 C.2   900  P4Y900     -0.0044
      2  C02        2.8230   76.0990   37.5120 C.2   900  P4Y900     -0.0187
      3  C03        2.8310   76.4040   36.1480 C.3   900  P4Y900      0.0846
      4  C04        2.1830   75.5040   35.2960 C.2   900  P4Y900      0.1094
      5  C05        1.5470   74.3400   35.7420 C.2   900  P4Y900      0.0110
      6  C06        1.5590   74.0550   37.1240 C.2   900  P4Y900     -0.0020
      7  N07        2.0370   75.5520   33.9370 N.2   900  P4Y900     -0.4102
      8  C08        1.3140   74.4660   33.4810 C.2   900  P4Y900      0.1133
      9  C09        0.9870   73.6600   34.6050 C.3   900  P4Y900      0.0937
     10  C10        1.1170   74.3430   32.0310 C.ar  900  P4Y900      0.0257
     11  C11        0.2500   72.3540   34.7460 C.3   900  P4Y900      0.1371
     12  C12       -1.2380   72.4890   34.5210 C.1   900  P4Y900      0.1263
     13  C13        1.4150   75.4280   31.1860 C.ar  900  P4Y900      0.0022
     14  C14        1.2740   75.2980   29.7990 C.ar  900  P4Y900      0.0001
     15  C15        0.8680   74.0800   29.2420 C.ar  900  P4Y900      0.0000
     16  C16        0.5960   72.9850   30.0670 C.ar  900  P4Y900      0.0001
     17  C17        0.7370   73.1130   31.4550 C.ar  900  P4Y900      0.0022
     18  N18       -1.7740   71.5200   33.7500 N.2   900  P4Y900     -0.3366
     19  C19       -3.0950   71.5790   33.5050 C.2   900  P4Y900      0.2476
     20  C20       -3.9010   72.5760   34.0210 C.3   900  P4Y900      0.3273
     21  C21       -3.2630   73.5240   34.8010 C.1   900  P4Y900      0.2278
     22  N22       -1.9380   73.5100   35.0800 N.2   900  P4Y900     -0.2720
     23  C23       -3.5390   70.4670   32.6500 C.2   900  P4Y900      0.4173
     24  O24       -5.2290   72.6570   33.7940 O.3   900  P4Y900     -0.1956
     25  O25       -4.0060   74.5540   35.3410 O.2   900  P4Y900     -0.2104
     26  O26       -2.8800   69.5640   32.1750 O.co2 900  P4Y900     -0.2379
     27  O27       -4.8340   70.5230   32.4160 O.co2 900  P4Y900     -0.2379
@<TRIPOS>BOND
     1    15    14   ar
     2    15    16   ar
     3    14    13   ar
     4    16    17   ar
     5    13    10   ar
     6    17    10   ar
     7    10     8    1
     8    26    23   ar
     9    27    23   ar
    10    23    19    1
    11     8     7    2
    12     8     9    1
    13    19    18    2
    14    19    20    1
    15    18    12    2
    16    24    20    1
    17     7     4    2
    18    20    21    1
    19    12    11    1
    20    12    22    2
    21     9    11    1
    22     9     5    1
    23    21    22    2
    24    21    25    2
    25     4     5    1
    26     4     3    1
    27     5     6    2
    28     3     2    1
    29     6     1    1
    30     2     1    2
