@<TRIPOS>MOLECULE
3qip_NVP_A_1.pdb
 20 23 0 0 0
SMALL
GASTEIGER

@<TRIPOS>ATOM
      1  N1        11.6390   13.6770   16.5190 N.pl3 561  NVP561     -0.1562
      2  CA        12.6940   13.7420   15.4840 C.3   561  NVP561      0.1667
      3  CB        14.0580   13.1600   15.7540 C.3   561  NVP561      0.0512
      4  CC        13.1170   12.4530   14.8180 C.3   561  NVP561      0.0512
      5  N3        12.4060   15.7420   17.4280 N.2   561  NVP561     -0.0337
      6  C4        12.5070   16.5930   18.4750 C.2   561  NVP561      0.2316
      7  C5        12.0020   16.3280   19.7220 C.2   561  NVP561      0.0313
      8  C6        11.3430   15.1270   19.9320 C.3   561  NVP561      0.0868
      9  CD        10.7930   14.8140   21.2940 C.3   561  NVP561      0.0126
     10  C2        11.7630   14.5610   17.6160 C.2   561  NVP561      0.3559
     11  C7        11.2170   14.2230   18.8550 C.2   561  NVP561      0.2076
     12  N8        10.5450   13.0140   19.0840 N.2   561  NVP561     -0.3293
     13  C9         9.6250   12.3710   18.2990 C.1   561  NVP561      0.2096
     14  OE         9.0320   11.3730   18.7420 O.2   561  NVP561     -0.2091
     15  C10        9.4390   12.7100   16.8740 C.ar  561  NVP561      0.1506
     16  C15       10.3870   13.2910   16.0470 C.ar  561  NVP561      0.2365
     17  C11        8.1920   12.3740   16.3170 C.ar  561  NVP561      0.0194
     18  C12        7.9380   12.6460   14.9830 C.ar  561  NVP561      0.0217
     19  C13        8.9300   13.2180   14.2400 C.ar  561  NVP561      0.1025
     20  N14       10.1440   13.5470   14.7350 N.ar  561  NVP561     -0.2068
@<TRIPOS>BOND
     1    19    20   ar
     2    19    18   ar
     3    20    16   ar
     4     4     2    1
     5     4     3    1
     6    18    17   ar
     7     2     3    1
     8     2     1    1
     9    16     1    1
    10    16    15   ar
    11    17    15   ar
    12     1    10    1
    13    15    13    1
    14     5    10    2
    15     5     6    1
    16    10    11    1
    17    13    14    2
    18    13    12    2
    19     6     7    2
    20    11    12    2
    21    11     8    1
    22     7     8    1
    23     8     9    1
