@<TRIPOS>MOLECULE
3qiy_QI1_A_1.pdb
 24 25 0 0 0
SMALL
GASTEIGER

@<TRIPOS>ATOM
      1  O1       -17.9760   33.2180   -5.9740 O.3   432  QI1432     -0.4026
      2  N1       -19.1450   33.8030   -5.5880 N.am  432  QI1432     -0.2030
      3  C1       -19.2260   35.1270   -5.6100 C.2   432  QI1432      0.0869
      4  O2       -18.2940   35.8480   -5.9490 O.2   432  QI1432     -0.5396
      5  C2       -20.5650   35.7250   -5.1650 C.3   432  QI1432      0.0526
      6  C3       -21.2340   36.5250   -6.2940 C.3   432  QI1432      0.0240
      7  C4       -20.6150   37.9200   -6.4950 C.3   432  QI1432      0.0731
      8  N2       -21.6400   38.9800   -6.3950 N.3   432  QI1432     -0.2652
      9  C5       -22.8250   38.7070   -7.2430 C.3   432  QI1432      0.0994
     10  C6       -23.1230   39.7710   -8.3140 C.ar  432  QI1432     -0.0061
     11  C7       -22.7120   39.5600   -9.6310 C.ar  432  QI1432     -0.0021
     12  C8       -23.0140   40.5020  -10.6150 C.ar  432  QI1432      0.0111
     13  C9       -21.0440   40.3280   -6.5090 C.3   432  QI1432      0.0994
     14  C10      -23.8680   40.9110   -7.9900 C.ar  432  QI1432     -0.0021
     15  C11      -24.1580   41.8590   -8.9740 C.ar  432  QI1432      0.0111
     16  C12      -23.7270   41.6550  -10.2860 C.ar  432  QI1432      0.0577
     17 CL1       -24.0840   42.8210  -11.5120 Cl    432  QI1432     -0.0822
     18  C13      -21.3480   41.0950   -5.2210 C.ar  432  QI1432     -0.0061
     19  C14      -22.2070   42.1940   -5.2620 C.ar  432  QI1432     -0.0021
     20  C15      -22.5050   42.8930   -4.0920 C.ar  432  QI1432      0.0111
     21  C16      -20.7990   40.6820   -4.0030 C.ar  432  QI1432     -0.0021
     22  C17      -21.1000   41.3830   -2.8320 C.ar  432  QI1432      0.0111
     23  C18      -21.9560   42.4880   -2.8750 C.ar  432  QI1432      0.0577
     24 CL2       -22.3330   43.3600   -1.4300 Cl    432  QI1432     -0.0822
@<TRIPOS>BOND
     1    17    16    1
     2    12    16   ar
     3    12    11   ar
     4    16    15   ar
     5    11    10   ar
     6    15    14   ar
     7    10    14   ar
     8    10     9    1
     9     9     8    1
    10    13     8    1
    11    13    18    1
    12     7     8    1
    13     7     6    1
    14     6     5    1
    15     1     2    1
    16     4     3    2
    17     3     2   am
    18     3     5    1
    19    19    18   ar
    20    19    20   ar
    21    18    21   ar
    22    20    23   ar
    23    21    22   ar
    24    23    22   ar
    25    23    24    1
