@<TRIPOS>MOLECULE
3qiz_QI2_A_1.pdb
 31 32 0 0 0
SMALL
GASTEIGER

@<TRIPOS>ATOM
      1  OAA      -11.6740   33.3320  -15.0120 O.3   432  QI2432     -0.4026
      2  NAB      -10.4880   33.6850  -15.4160 N.am  432  QI2432     -0.2026
      3  CAC      -10.2110   35.0390  -15.7730 C.2   432  QI2432      0.0906
      4  OAD      -11.0030   35.9550  -15.7270 O.2   432  QI2432     -0.5392
      5  CAE       -8.8520   35.4810  -16.2400 C.3   432  QI2432      0.0712
      6  CAF       -8.5370   36.8630  -15.6940 C.3   432  QI2432      0.0449
      7  CAG       -8.6640   37.0080  -14.1110 C.3   432  QI2432      0.1382
      8  CAH       -7.9880   38.3530  -13.6500 C.ar  432  QI2432      0.0047
      9  CAI       -8.7030   39.5010  -13.6470 C.ar  432  QI2432      0.0004
     10  CAJ       -8.0490   40.6790  -13.2930 C.ar  432  QI2432      0.0294
     11  CAK       -9.2730   35.6540  -17.6910 C.2   432  QI2432     -0.0039
     12  OAL       -8.1770   35.8080  -13.3500 O.3   432  QI2432     -0.3492
     13  CAM       -6.6320   38.3040  -13.3510 C.ar  432  QI2432      0.0004
     14  CAN       -5.9900   39.4800  -12.9870 C.ar  432  QI2432      0.0294
     15  CAO       -6.6920   40.6430  -12.9700 C.ar  432  QI2432      0.1401
     16  FAP       -6.0660   41.7740  -12.6300 F     432  QI2432     -0.2042
     17  CAQ       -8.2810   35.6040  -18.8230 C.2   432  QI2432      0.0612
     18  CAR       -8.6440   35.6210  -12.0360 C.3   432  QI2432      0.1745
     19  CAS       -8.9950   34.4310  -20.7560 C.3   432  QI2432      0.1173
     20  NAT       -8.8520   35.7620  -20.1710 N.pl3 432  QI2432     -0.2837
     21  CAU      -10.1720   36.4230  -20.1210 C.2   432  QI2432      0.0611
     22  CAV      -10.2770   37.9470  -20.1560 C.2   432  QI2432     -0.0053
     23  CAW       -9.0290   38.7560  -19.9300 C.3   432  QI2432      0.0536
     24  CAX       -9.0740   40.1600  -19.3070 C.ar  432  QI2432     -0.0179
     25  CAY       -9.2950   41.2970  -20.1160 C.ar  432  QI2432     -0.0060
     26  CAZ       -9.2890   42.5730  -19.5620 C.ar  432  QI2432      0.0053
     27  CBA       -9.5420   43.7880  -20.4330 C.3   432  QI2432      0.0334
     28  CBB       -8.8320   40.3270  -17.9390 C.ar  432  QI2432     -0.0017
     29  CBC       -8.8240   41.6100  -17.3730 C.ar  432  QI2432      0.0290
     30  CBD       -9.0550   42.7410  -18.1770 C.ar  432  QI2432      0.1361
     31  FBE       -9.0330   43.9610  -17.6250 F     432  QI2432     -0.2045
@<TRIPOS>BOND
     1    19    20    1
     2    27    26    1
     3    20    21    1
     4    20    17    1
     5    22    21    2
     6    22    23    1
     7    25    26   ar
     8    25    24   ar
     9    23    24    1
    10    26    30   ar
    11    24    28   ar
    12    17    11    2
    13    30    31    1
    14    30    29   ar
    15    28    29   ar
    16    11     5    1
    17     5     3    1
    18     5     6    1
    19     3     4    2
    20     3     2   am
    21     6     7    1
    22     2     1    1
    23     7     8    1
    24     7    12    1
    25     8     9   ar
    26     8    13   ar
    27     9    10   ar
    28    13    14   ar
    29    12    18    1
    30    10    15   ar
    31    14    15   ar
    32    15    16    1
