@<TRIPOS>MOLECULE
3qj0_QI3_A_1.pdb
 27 29 0 0 0
SMALL
GASTEIGER

@<TRIPOS>ATOM
      1  C1       -19.5130   35.1510   -5.3980 C.2   432  QI3432      0.1030
      2  N1       -21.8870   35.4460   -5.7760 N.3   432  QI3432     -0.1471
      3  O1       -18.6060   35.9580   -5.4120 O.2   432  QI3432     -0.5381
      4  C2       -20.7510   35.8220   -5.0040 C.3   432  QI3432      0.1281
      5  C3       -21.0430   35.4800   -3.5790 C.3   432  QI3432      0.0692
      6  C4       -22.4940   35.3060   -3.6200 C.3   432  QI3432      0.1853
      7  O2       -18.2080   33.2220   -6.0710 O.3   432  QI3432     -0.4026
      8  N2       -19.3640   33.7510   -5.7240 N.am  432  QI3432     -0.2016
      9  C5       -22.5460   37.6720   -3.2240 C.ar  432  QI3432      0.1385
     10  C6       -22.2050   38.7260   -4.0910 C.ar  432  QI3432      0.0378
     11  C7       -21.6450   39.9310   -3.5490 C.ar  432  QI3432      0.0145
     12  C8       -22.3850   37.8050   -1.8320 C.ar  432  QI3432      0.0378
     13  C9       -21.8250   39.0090   -1.2870 C.ar  432  QI3432      0.0145
     14  C10      -21.4670   40.0560   -2.1450 C.ar  432  QI3432      0.0579
     15 CL1       -20.7920   41.5100   -1.4490 Cl    432  QI3432     -0.0822
     16  O3       -20.9240   35.6640   -8.1520 O.2   432  QI3432     -0.1528
     17  S1       -22.2130   35.6380   -7.3520 S.O2  432  QI3432      0.0637
     18  C11      -23.1410   37.1680   -7.5310 C.ar  432  QI3432      0.1223
     19  C12      -24.4790   37.0980   -7.3440 C.ar  432  QI3432      0.0208
     20  C13      -25.2930   38.2490   -7.4350 C.ar  432  QI3432      0.0128
     21  O4       -23.1030   34.5220   -7.7130 O.2   432  QI3432     -0.1528
     22  C14      -22.5430   38.4250   -7.8140 C.ar  432  QI3432      0.0208
     23  C15      -23.3470   39.5920   -7.9060 C.ar  432  QI3432      0.0128
     24  C16      -24.7030   39.5000   -7.7190 C.ar  432  QI3432      0.0578
     25 CL2       -25.7250   40.8680   -7.8160 Cl    432  QI3432     -0.0822
     26  O5       -23.1440   36.5150   -3.7520 O.3   432  QI3432     -0.4776
     27  C17      -22.7370   34.6560   -4.9310 C.3   432  QI3432      0.1396
@<TRIPOS>BOND
     1    16    17    2
     2    23    22   ar
     3    23    24   ar
     4    25    24    1
     5    22    18   ar
     6    24    20   ar
     7    21    17    2
     8    18    17    1
     9    18    19   ar
    10    20    19   ar
    11    17     2    1
    12     7     8    1
    13     2     4    1
    14     2    27    1
    15     8     1   am
    16     3     1    2
    17     1     4    1
    18     4     5    1
    19    27     6    1
    20    10    11   ar
    21    10     9   ar
    22    26     6    1
    23    26     9    1
    24     6     5    1
    25    11    14   ar
    26     9    12   ar
    27    14    15    1
    28    14    13   ar
    29    12    13   ar
