@<TRIPOS>MOLECULE
3qj5_NAD_A_1.pdb
 44 48 0 0 0
SMALL
GASTEIGER

@<TRIPOS>ATOM
      1  PA        58.9980    9.1660    1.7540 P.3   500  NAD500      0.2189
      2  O1A       57.7160    8.4640    1.5170 O.3   500  NAD500     -0.4371
      3  O2A       60.0420    8.7370    0.7920 O.2   500  NAD500     -0.5170
      4  O5B       59.4850    8.8510    3.2500 O.3   500  NAD500     -0.3112
      5  C5B       58.5690    8.7330    4.3190 C.3   500  NAD500      0.1813
      6  C4B       59.0660    7.6230    5.2400 C.3   500  NAD500      0.1821
      7  O4B       58.2890    7.5840    6.4170 O.3   500  NAD500     -0.3135
      8  C3B       58.9650    6.2370    4.6030 C.3   500  NAD500      0.2184
      9  O3B       60.2700    5.7040    4.5330 O.3   500  NAD500     -0.2174
     10  C2B       58.0500    5.4420    5.5260 C.3   500  NAD500      0.2570
     11  O2B       58.4100    4.0830    5.6990 O.3   500  NAD500     -0.2130
     12  C1B       58.1700    6.2370    6.8210 C.3   500  NAD500      0.3186
     13  N9A       57.0240    6.0920    7.7250 N.pl3 500  NAD500     -0.1439
     14  C8A       55.6930    6.0350    7.4000 C.3   500  NAD500      0.3377
     15  N7A       54.9820    5.9050    8.5440 N.2   500  NAD500     -0.2095
     16  C5A       55.8410    5.8920    9.5880 C.2   500  NAD500      0.2526
     17  C6A       55.6470    5.7870   10.9560 C.2   500  NAD500      0.4393
     18  N6A       54.4240    5.5570   11.4390 N.pl3 500  NAD500      0.2180
     19  N1A       56.7430    5.7960   11.7970 N.2   500  NAD500      0.0021
     20  C2A       58.0270    5.9180   11.2850 C.3   500  NAD500      0.5254
     21  N3A       58.2110    6.0220    9.9190 N.2   500  NAD500     -0.0055
     22  C4A       57.1330    6.0060    9.0870 C.2   500  NAD500      0.3518
     23  O3        58.6930   10.7470    1.7080 O.3   500  NAD500     -0.2703
     24  PN        59.7510   11.9610    1.6040 P.3   500  NAD500      0.2189
     25  O1N       59.9780   12.3460    0.1990 O.2   500  NAD500     -0.5170
     26  O2N       60.9040   11.6880    2.4930 O.3   500  NAD500     -0.4371
     27  O5D       58.8570   13.1310    2.2670 O.3   500  NAD500     -0.3112
     28  C5D       58.4560   13.0480    3.6190 C.3   500  NAD500      0.1813
     29  C4D       57.4030   14.1050    3.9710 C.3   500  NAD500      0.1799
     30  O4D       57.9750   15.3930    3.8590 O.3   500  NAD500     -0.3327
     31  C3D       56.1720   14.0990    3.0740 C.3   500  NAD500      0.2158
     32  O3D       55.0400   14.2830    3.8920 O.3   500  NAD500     -0.2175
     33  C2D       56.3600   15.3230    2.2000 C.3   500  NAD500      0.2309
     34  O2D       55.1320   15.8520    1.7540 O.3   500  NAD500     -0.2158
     35  C1D       57.0930   16.2480    3.1680 C.3   500  NAD500      0.2263
     36  N1N       57.8250   17.3710    2.5600 N.pl3 500  NAD500     -0.2787
     37  C2N       57.6910   18.6000    3.1450 C.3   500  NAD500      0.1244
     38  C3N       58.3610   19.7000    2.6210 C.2   500  NAD500      0.0544
     39  C7N       58.2940   21.0150    3.3360 C.2   500  NAD500      0.2818
     40  O7N       58.7620   22.1510    2.6620 O.2   500  NAD500     -0.2670
     41  N7N       57.8000   21.0750    4.5770 N.am  500  NAD500     -0.0839
     42  C4N       59.1700   19.5530    1.4930 C.2   500  NAD500      0.0033
     43  C5N       59.3100   18.2930    0.9170 C.2   500  NAD500      0.0157
     44  C6N       58.6310   17.2090    1.4610 C.2   500  NAD500      0.0633
@<TRIPOS>BOND
     1    25    24    2
     2     3     1    2
     3    43    44    2
     4    43    42    1
     5    44    36    1
     6    42    38    2
     7     2     1    1
     8    24    23    1
     9    24    27    1
    10    24    26    1
    11    23     1    1
    12     1     4    1
    13    34    33    1
    14    33    31    1
    15    33    35    1
    16    27    28    1
    17    36    37    1
    18    36    35    1
    19    38    37    1
    20    38    39    1
    21    40    39    2
    22    31    32    1
    23    31    29    1
    24    35    30    1
    25     4     5    1
    26    39    41   am
    27    28    29    1
    28    30    29    1
    29     5     6    1
    30     9     8    1
    31     8     6    1
    32     8    10    1
    33     6     7    1
    34    10    11    1
    35    10    12    1
    36     7    12    1
    37    12    13    1
    38    14    13    1
    39    14    15    1
    40    13    22    1
    41    15    16    2
    42    22    16    1
    43    22    21    2
    44    16    17    1
    45    21    20    1
    46    17    18    1
    47    17    19    2
    48    20    19    1
