@<TRIPOS>MOLECULE
3qj5_022_A_1.pdb
 31 34 0 0 0
SMALL
GASTEIGER

@<TRIPOS>ATOM
      1  C1        56.8640   19.6520   -1.4630 C.ar  374  022374      0.1828
      2  N2        55.9720   19.6740   -0.4810 N.ar  374  022374     -0.2864
      3  C3        55.6040   18.4870   -0.0230 C.ar  374  022374      0.1022
      4  C4        56.3270   17.6140   -0.8030 C.ar  374  022374      0.1196
      5  N5        57.0880   18.3350   -1.6660 N.ar  374  022374     -0.2220
      6  C11       55.4980   20.8180    0.0220 C.ar  374  022374      0.0655
      7  C13       56.3520   21.8200    0.4910 C.ar  374  022374      0.0176
      8  C14       55.8940   23.0210    1.0270 C.ar  374  022374      0.0029
      9  C15       54.5260   23.2550    1.1030 C.ar  374  022374      0.0162
     10  C16       53.6340   22.2880    0.6530 C.ar  374  022374      0.0029
     11  C17       54.1260   21.0960    0.1190 C.ar  374  022374      0.0176
     12  C24       54.0350   24.5340    1.6770 C.ar  374  022374      0.0637
     13  C26       54.3370   25.0230    2.9410 C.ar  374  022374      0.0187
     14  C27       53.6920   26.2360    3.0800 C.ar  374  022374      0.0146
     15  C28       52.9920   26.4890    1.9050 C.ar  374  022374      0.0419
     16  N29       53.2160   25.4310    1.1130 N.ar  374  022374     -0.3102
     17  C35       52.1480   27.7080    1.6310 C.3   374  022374      0.0559
     18  C37       53.0800   28.7920    1.1130 C.3   374  022374      0.1203
     19  C38       52.4190   30.1470    1.1730 C.2   374  022374      0.3653
     20  O41       53.1140   31.1370    0.8530 O.co2 374  022374     -0.2456
     21  O43       51.2190   30.2270    1.5320 O.co2 374  022374     -0.2456
     22  C45       52.7280   25.3770   -0.1420 C.ar  374  022374      0.0597
     23  C47       53.5070   25.7440   -1.2420 C.ar  374  022374     -0.0056
     24  C48       53.0370   25.7000   -2.5450 C.ar  374  022374      0.0018
     25  C49       51.7480   25.2740   -2.8130 C.ar  374  022374      0.0564
     26  C50       50.9290   24.8910   -1.7430 C.ar  374  022374      0.0061
     27  C51       51.4200   24.9390   -0.4250 C.ar  374  022374      0.0173
     28  C58       51.3150   25.2560   -4.2570 C.2   374  022374      0.2842
     29  O59       51.9300   25.9550   -5.0490 O.2   374  022374     -0.2667
     30  N62       50.2970   24.4920   -4.6530 N.am  374  022374     -0.0837
     31  C64       54.9150   26.2180   -1.0460 C.3   374  022374      0.0326
@<TRIPOS>BOND
     1    29    28    2
     2    30    28   am
     3    28    25    1
     4    25    24   ar
     5    25    26   ar
     6    24    23   ar
     7    26    27   ar
     8     5     1   ar
     9     5     4   ar
    10     1     2   ar
    11    23    31    1
    12    23    22   ar
    13     4     3   ar
    14     2     3   ar
    15     2     6    1
    16    27    22   ar
    17    22    16    1
    18     6    11   ar
    19     6     7   ar
    20    11    10   ar
    21     7     8   ar
    22    10     9   ar
    23    20    19   ar
    24     8     9   ar
    25     9    12    1
    26    16    12   ar
    27    16    15   ar
    28    18    19    1
    29    18    17    1
    30    19    21   ar
    31    17    15    1
    32    12    13   ar
    33    15    14   ar
    34    13    14   ar
