@<TRIPOS>MOLECULE
3qj6_III_T_1.pdb
 45 45 0 0 0
SMALL
GASTEIGER

@<TRIPOS>ATOM
      1  N         21.7440   13.8240    4.2530 N.3    76  GLN76      -0.1231
      2  CA        21.2780   14.2710    2.9040 C.3    76  GLN76       0.1698
      3  C         20.2640   13.3050    2.3440 C.2    76  GLN76       0.2592
      4  O         20.5380   12.1290    2.2100 O.2    76  GLN76      -0.2718
      5  CB        22.4380   14.3600    1.9370 C.3    76  GLN76       0.0381
      6  CG        23.4960   15.3580    2.3290 C.3    76  GLN76       0.0905
      7  CD        24.7450   15.1960    1.4980 C.2    76  GLN76       0.2608
      8  OE1       25.2390   14.0880    1.3350 O.2    76  GLN76      -0.2717
      9  NE2       25.2580   16.3020    0.9500 N.am   76  GLN76      -0.0878
     10  N         19.0900   13.8170    2.0200 N.am   77  ASP77      -0.1960
     11  CA        18.0380   13.0360    1.4050 C.3    77  ASP77       0.1840
     12  C         17.8610   13.6140    0.0060 C.2    77  ASP77       0.2622
     13  O         17.2200   14.6620   -0.1740 O.2    77  ASP77      -0.2715
     14  CB        16.7520   13.1720    2.2320 C.3    77  ASP77       0.1450
     15  CG        15.7110   12.1120    1.9060 C.2    77  ASP77       0.3671
     16  OD1       15.4450   11.8540    0.7030 O.co2  77  ASP77      -0.2456
     17  OD2       15.1410   11.5580    2.8770 O.co2  77  ASP77      -0.2456
     18  N         18.4280   12.9210   -0.9810 N.am   78  PHE78      -0.1960
     19  CA        18.5480   13.4590   -2.3350 C.3    78  PHE78       0.1771
     20  C         17.2180   13.4810   -3.0740 C.2    78  PHE78       0.2619
     21  O         16.4760   12.5090   -3.0550 O.2    78  PHE78      -0.2715
     22  CB        19.6010   12.6810   -3.1160 C.3    78  PHE78       0.0574
     23  CG        20.9580   12.6990   -2.4650 C.ar   78  PHE78      -0.0200
     24  CD1       21.7610   13.8280   -2.5410 C.ar   78  PHE78      -0.0042
     25  CD2       21.4200   11.6000   -1.7600 C.ar   78  PHE78      -0.0042
     26  CE1       23.0130   13.8560   -1.9290 C.ar   78  PHE78      -0.0003
     27  CE2       22.6740   11.6200   -1.1460 C.ar   78  PHE78      -0.0003
     28  CZ        23.4680   12.7500   -1.2330 C.ar   78  PHE78      -0.0000
     29  N         16.9170   14.6130   -3.7020 N.am   79  LYS79      -0.1963
     30  CA        15.6690   14.7920   -4.4240 C.3    79  LYS79       0.1728
     31  CB        15.3660   16.2840   -4.5420 C.3    79  LYS79       0.0310
     32  CG        13.9740   16.5470   -5.0910 C.3    79  LYS79       0.0001
     33  CD        13.4490   17.9320   -4.7210 C.3    79  LYS79      -0.0222
     34  CE        11.9640   17.9880   -5.0800 C.3    79  LYS79      -0.0733
     35  NZ        11.2770   19.2560   -4.7800 N.4    79  LYS79       0.3857
     36  C         15.8210   14.1940   -5.7840 C.2    79  LYS79       0.2616
     37  O         16.8250   14.4530   -6.4470 O.2    79  LYS79      -0.2715
     38  CM1       11.4670   19.6420   -3.3700 C.3    79  LYS79      -0.0960
     39  CM2        9.8470   19.0700   -5.0430 C.3    79  LYS79      -0.0960
     40  CM3       11.7280   20.3210   -5.6720 C.3    79  LYS79      -0.0960
     41  N         14.8390   13.3850   -6.2150 N.am   80  THR80      -0.1977
     42  CA        14.8890   12.7130   -7.5370 C.3    80  THR80       0.1597
     43  C         14.3970   13.6350   -8.6560 C.2    80  THR80       0.2287
     44  O         15.1610   14.0030   -9.5560 O.2    80  THR80      -0.2864
     45  CB        14.0540   11.4010   -7.5540 C.3    80  THR80       0.0319
@<TRIPOS>BOND
     1    44    43    2
     2    43    42    1
     3    45    42    1
     4    42    41    1
     5    37    36    2
     6    41    36   am
     7    36    30    1
     8    40    35    1
     9    32    33    1
    10    32    31    1
    11    34    35    1
    12    34    33    1
    13    39    35    1
    14    35    38    1
    15    31    30    1
    16    30    29    1
    17    29    20   am
    18    22    23    1
    19    22    19    1
    20    20    21    2
    21    20    19    1
    22    24    23   ar
    23    24    26   ar
    24    23    25   ar
    25    19    18    1
    26    26    28   ar
    27    25    27   ar
    28    28    27   ar
    29    18    12   am
    30    13    12    2
    31    12    11    1
    32    16    15   ar
    33     9     7   am
    34     8     7    2
    35    11    10    1
    36    11    14    1
    37     7     6    1
    38    15    14    1
    39    15    17   ar
    40     5     6    1
    41     5     2    1
    42    10     3   am
    43     4     3    2
    44     3     2    1
    45     2     1    1
