@<TRIPOS>MOLECULE
3qj7_UMP_A_1.pdb
 20 21 0 0 0
SMALL
GASTEIGER

@<TRIPOS>ATOM
      1  N1        58.8600   11.8390   -2.1560 N.am  600  UMP600     -0.1790
      2  C2        58.2740   12.5220   -1.1100 C.1   600  UMP600      0.2844
      3  N3        57.2570   11.9520   -0.3780 N.2   600  UMP600     -0.2452
      4  C4        56.8220   10.6870   -0.7100 C.1   600  UMP600      0.2182
      5  C5        57.4020   10.0000   -1.7740 C.2   600  UMP600      0.1242
      6  C6        58.4270   10.5850   -2.5060 C.2   600  UMP600      0.0928
      7  O2        58.6650   13.6340   -0.8180 O.2   600  UMP600     -0.1918
      8  O4        55.9200   10.1710   -0.0560 O.2   600  UMP600     -0.2085
      9  C1'       59.9290   12.4720   -2.9460 C.3   600  UMP600      0.2090
     10  C2'       61.2710   12.5320   -2.2420 C.3   600  UMP600      0.0874
     11  C3'       62.2270   12.3940   -3.4120 C.3   600  UMP600      0.1857
     12  C4'       61.4690   11.5720   -4.4440 C.3   600  UMP600      0.1774
     13  O3'       62.4450   13.6590   -3.9740 O.3   600  UMP600     -0.2203
     14  O4'       60.1000   11.7350   -4.1440 O.3   600  UMP600     -0.3339
     15  C5'       61.8530   10.0920   -4.4360 C.3   600  UMP600      0.1858
     16  O5'       63.2040   10.0300   -4.8160 O.3   600  UMP600     -0.2675
     17  P         64.2890    9.0660   -4.1160 P.3   600  UMP600      0.5327
     18  OP1       64.6430    9.6030   -2.7490 O.3   600  UMP600     -0.1145
     19  OP2       63.7990    7.6540   -3.9550 O.3   600  UMP600     -0.1145
     20  OP3       65.4810    9.0880   -5.0250 O.2   600  UMP600     -0.2224
@<TRIPOS>BOND
     1    20    17    2
     2    16    15    1
     3    16    17    1
     4    12    15    1
     5    12    14    1
     6    12    11    1
     7    14     9    1
     8    17    19    1
     9    17    18    1
    10    13    11    1
    11    11    10    1
    12     9    10    1
    13     9     1    1
    14     6     1    1
    15     6     5    2
    16     1     2   am
    17     5     4    1
    18     2     7    2
    19     2     3    2
    20     4     3    2
    21     4     8    2
