@<TRIPOS>MOLECULE
3qj9_QJ9_A_1.pdb
 33 38 0 0 0
SMALL
GASTEIGER

@<TRIPOS>ATOM
      1  N1       -17.2830    0.2050   -4.8380 N.2   600  QJ9600     -0.3343
      2  N3       -15.5840   -1.4580   -4.9530 N.pl3 600  QJ9600     -0.2417
      3  C4       -16.6030   -0.7910   -4.2350 C.1   600  QJ9600      0.1481
      4  C5       -18.9330    1.9020   -4.8700 C.ar  600  QJ9600      0.1757
      5  C6       -18.9550    2.1340   -6.1850 C.ar  600  QJ9600      0.0432
      6  C7       -20.1810    3.6830   -5.1950 C.ar  600  QJ9600      0.1454
      7  C8       -19.7090    3.2060   -6.4240 C.ar  600  QJ9600      0.0377
      8  C10      -20.8750    4.9840   -7.5680 C.ar  600  QJ9600      0.0002
      9  C13      -14.6900   -2.4490   -4.2810 C.3   600  QJ9600      0.1248
     10  C15      -12.9920   -1.9500   -6.1070 C.3   600  QJ9600      0.0263
     11  C17      -15.3820   -1.1500   -6.4000 C.3   600  QJ9600      0.1023
     12  C20      -11.2260   -5.0730   -3.6660 C.ar  600  QJ9600      0.0797
     13  C21      -10.8020   -6.3770   -3.9260 C.ar  600  QJ9600      0.0188
     14  C22      -11.2750   -7.0510   -5.0520 C.ar  600  QJ9600      0.0016
     15  C24      -12.5880   -5.1210   -5.6600 C.ar  600  QJ9600      0.0188
     16  C26       -8.6270   -3.9570   -1.8220 C.3   600  QJ9600      0.0266
     17  C25      -10.0430   -4.4620   -1.5500 C.3   600  QJ9600      0.1106
     18  N5       -10.9440   -4.2040   -2.6950 N.ar  600  QJ9600     -0.2799
     19  C18      -11.6230   -3.0820   -2.9170 C.ar  600  QJ9600      0.3315
     20  O2       -11.5970   -2.0750   -2.2080 O.2   600  QJ9600     -0.2463
     21  C23      -12.1650   -6.4190   -5.9240 C.ar  600  QJ9600      0.0016
     22  C19      -12.1190   -4.4410   -4.5330 C.ar  600  QJ9600      0.0797
     23  N4       -12.3360   -3.2160   -4.0340 N.ar  600  QJ9600     -0.2801
     24  C14      -13.2120   -2.1490   -4.5870 C.3   600  QJ9600      0.1104
     25  C16      -13.9010   -0.8590   -6.6870 C.3   600  QJ9600      0.0242
     26  N2       -16.9000   -1.1330   -2.9620 N.2   600  QJ9600     -0.1698
     27  C1       -17.8570   -0.5040   -2.2890 C.2   600  QJ9600      0.1145
     28  C2       -18.5730    0.5280   -2.8930 C.2   600  QJ9600      0.0577
     29  C3       -18.2590    0.8770   -4.2030 C.2   600  QJ9600      0.1799
     30  C9       -20.0550    3.8580   -7.6110 C.ar  600  QJ9600      0.0031
     31  C11      -21.3470    5.4560   -6.3420 C.ar  600  QJ9600      0.0031
     32  C12      -21.0050    4.8100   -5.1520 C.ar  600  QJ9600      0.0375
     33  O1       -19.6870    2.8550   -4.2220 O.2   600  QJ9600     -0.4509
@<TRIPOS>BOND
     1    30     8   ar
     2    30     7   ar
     3     8    31   ar
     4    25    11    1
     5    25    10    1
     6     7     5   ar
     7     7     6   ar
     8    11     2    1
     9    31    32   ar
    10     5     4   ar
    11    10    24    1
    12    21    15   ar
    13    21    14   ar
    14    15    22   ar
    15     6    32   ar
    16     6    33   ar
    17    14    13   ar
    18     2     9    1
    19     2     3    1
    20     4    33   ar
    21     4    29    1
    22     1     3    2
    23     1    29    2
    24    24     9    1
    25    24    23    1
    26    22    23   ar
    27    22    12   ar
    28     3    26    2
    29    29    28    1
    30    23    19   ar
    31    13    12   ar
    32    12    18   ar
    33    26    27    1
    34    19    18   ar
    35    19    20    2
    36    28    27    2
    37    18    17    1
    38    16    17    1
