@<TRIPOS>MOLECULE
3qjb_HEM_A_1.pdb
 43 50 0 0 0
SMALL
GASTEIGER

@<TRIPOS>ATOM
      1  CHA       42.7070   28.1930   17.3160 C.2   142  HEM142      0.0000
      2  CHB       40.8580   32.5170   16.0500 C.2   142  HEM142      0.0000
      3  CHC       37.5460   30.3650   13.2110 C.2   142  HEM142      0.0000
      4  CHD       39.3220   26.0110   14.5370 C.2   142  HEM142      0.0000
      5  C1A       42.4750   29.5550   17.2440 C.2   142  HEM142      0.0000
      6  C2A       43.1910   30.5860   17.9710 C.2   142  HEM142      0.0000
      7  C3A       42.6730   31.7730   17.6180 C.2   142  HEM142      0.0000
      8  C4A       41.6140   31.5390   16.6580 C.2   142  HEM142      0.0000
      9  CMA       43.1020   33.1810   18.1230 C.3   142  HEM142      0.0000
     10  CAA       44.3430   30.3440   18.9780 C.3   142  HEM142      0.0000
     11  CBA       45.6560   30.2640   18.2060 C.3   142  HEM142      0.0000
     12  CGA       46.8010   29.9050   19.1230 C.2   142  HEM142      0.0000
     13  O1A       46.5500   29.3900   20.2400 O.co2 142  HEM142      0.0000
     14  O2A       47.9750   30.1180   18.7200 O.co2 142  HEM142      0.0000
     15  C1B       39.7960   32.3050   15.1910 C.ar  142  HEM142      0.0000
     16  C2B       38.9220   33.3330   14.6640 C.ar  142  HEM142      0.0000
     17  C3B       38.0230   32.7340   13.8690 C.ar  142  HEM142      0.0000
     18  C4B       38.2780   31.3130   13.9000 C.ar  142  HEM142      0.0000
     19  CMB       39.0700   34.8420   14.9570 C.3   142  HEM142      0.0000
     20  CAB       36.8560   33.3420   13.0650 C.2   142  HEM142      0.0000
     21  CBB       36.2870   34.5030   13.4110 C.2   142  HEM142      0.0000
     22  C1C       37.7170   29.0020   13.3810 C.2   142  HEM142      0.0000
     23  C2C       36.8490   27.9690   12.8440 C.2   142  HEM142      0.0000
     24  C3C       37.3570   26.7750   13.1960 C.2   142  HEM142      0.0000
     25  C4C       38.5380   27.0110   13.9890 C.2   142  HEM142      0.0000
     26  CMC       35.6020   28.2660   11.9850 C.3   142  HEM142      0.0000
     27  CAC       36.8090   25.3510   12.9100 C.2   142  HEM142      0.0000
     28  CBC       35.4940   25.0990   12.8470 C.2   142  HEM142      0.0000
     29  C1D       40.3850   26.1940   15.3830 C.ar  142  HEM142      0.0000
     30  C2D       41.1550   25.1190   15.9620 C.ar  142  HEM142      0.0000
     31  C3D       42.2090   25.7960   16.8220 C.ar  142  HEM142      0.0000
     32  C4D       41.9740   27.2160   16.6900 C.ar  142  HEM142      0.0000
     33  CMD       40.9530   23.6010   15.7490 C.3   142  HEM142      0.0000
     34  CAD       43.2890   25.1000   17.6720 C.3   142  HEM142      0.0000
     35  CBD       42.7550   24.9080   19.0940 C.3   142  HEM142      0.0000
     36  CGD       43.7870   24.1750   19.9130 C.2   142  HEM142      0.0000
     37  O1D       44.2280   24.7060   20.9620 O.co2 142  HEM142      0.0000
     38  O2D       44.1770   23.0600   19.4960 O.co2 142  HEM142      0.0000
     39  NA        41.5190   30.1660   16.4510 N.2   142  HEM142      0.0000
     40  NB        39.3660   31.0780   14.7070 N.ar  142  HEM142      0.0000
     41  NC        38.7310   28.3850   14.0850 N.2   142  HEM142      0.0000
     42  ND        40.8960   27.4100   15.8290 N.ar  142  HEM142      0.0000
     43 FE         40.1450   29.2600   15.2700 Fe    142  HEM142      0.0000
@<TRIPOS>BOND
     1    26    23    1
     2    23    24    2
     3    23    22    1
     4    28    27    2
     5    27    24    1
     6    20    21    2
     7    20    17    1
     8    24    25    1
     9     3    22    2
    10     3    18    1
    11    22    41    1
    12    17    18   ar
    13    17    16   ar
    14    18    40   ar
    15    25    41    2
    16    25     4    1
    17    41    43    1
    18     4    29    2
    19    16    19    1
    20    16    15   ar
    21    40    15   ar
    22    40    43    1
    23    15     2    1
    24    43    42    1
    25    43    39    1
    26    29    42   ar
    27    29    30   ar
    28    33    30    1
    29    42    32   ar
    30    30    31   ar
    31     2     8    2
    32    39     8    1
    33    39     5    2
    34     8     7    1
    35    32    31   ar
    36    32     1    2
    37    31    34    1
    38     5     1    1
    39     5     6    1
    40     7     6    2
    41     7     9    1
    42    34    35    1
    43     6    10    1
    44    11    10    1
    45    11    12    1
    46    14    12   ar
    47    35    36    1
    48    12    13   ar
    49    38    36   ar
    50    36    37   ar
