@<TRIPOS>MOLECULE
3qjc_HEM_A_1.pdb
 43 50 0 0 0
SMALL
GASTEIGER

@<TRIPOS>ATOM
      1  CHA       43.0630   28.4350   17.4620 C.2   142  HEM142      0.0000
      2  CHB       41.0530   32.7580   16.4280 C.2   142  HEM142      0.0000
      3  CHC       37.8340   30.5090   13.5300 C.2   142  HEM142      0.0000
      4  CHD       39.4760   26.1700   14.9720 C.2   142  HEM142      0.0000
      5  C1A       42.7950   29.7920   17.4330 C.2   142  HEM142      0.0000
      6  C2A       43.4870   30.8150   18.1940 C.2   142  HEM142      0.0000
      7  C3A       42.9430   32.0010   17.9090 C.2   142  HEM142      0.0000
      8  C4A       41.8680   31.7850   16.9590 C.2   142  HEM142      0.0000
      9  CMA       43.3730   33.3710   18.4890 C.3   142  HEM142      0.0000
     10  CAA       44.6660   30.5590   19.1540 C.3   142  HEM142      0.0000
     11  CBA       45.9550   30.6760   18.3500 C.3   142  HEM142      0.0000
     12  CGA       47.1380   30.6050   19.2830 C.2   142  HEM142      0.0000
     13  O1A       46.9380   30.3430   20.5030 O.co2 142  HEM142      0.0000
     14  O2A       48.2820   30.8160   18.7990 O.co2 142  HEM142      0.0000
     15  C1B       39.9990   32.5330   15.5570 C.ar  142  HEM142      0.0000
     16  C2B       39.1360   33.5320   14.9550 C.ar  142  HEM142      0.0000
     17  C3B       38.2640   32.9000   14.1590 C.ar  142  HEM142      0.0000
     18  C4B       38.5300   31.4800   14.2260 C.ar  142  HEM142      0.0000
     19  CMB       39.2280   35.0540   15.1770 C.3   142  HEM142      0.0000
     20  CAB       37.1310   33.4890   13.2930 C.2   142  HEM142      0.0000
     21  CBB       36.7860   34.7770   13.3140 C.2   142  HEM142      0.0000
     22  C1C       37.9710   29.1520   13.7160 C.2   142  HEM142      0.0000
     23  C2C       37.0920   28.1330   13.1690 C.2   142  HEM142      0.0000
     24  C3C       37.5650   26.9430   13.5620 C.2   142  HEM142      0.0000
     25  C4C       38.7350   27.1650   14.3800 C.2   142  HEM142      0.0000
     26  CMC       35.8530   28.4050   12.2660 C.3   142  HEM142      0.0000
     27  CAC       36.9840   25.5420   13.2770 C.2   142  HEM142      0.0000
     28  CBC       35.6920   25.3890   12.9540 C.2   142  HEM142      0.0000
     29  C1D       40.5720   26.3770   15.7760 C.ar  142  HEM142      0.0000
     30  C2D       41.3110   25.3160   16.3950 C.ar  142  HEM142      0.0000
     31  C3D       42.4330   26.0000   17.1690 C.ar  142  HEM142      0.0000
     32  C4D       42.2660   27.4250   16.9460 C.ar  142  HEM142      0.0000
     33  CMD       41.0180   23.8080   16.2910 C.3   142  HEM142      0.0000
     34  CAD       43.4860   25.2740   18.0220 C.3   142  HEM142      0.0000
     35  CBD       43.0100   25.3870   19.4660 C.3   142  HEM142      0.0000
     36  CGD       43.9380   24.5830   20.3440 C.2   142  HEM142      0.0000
     37  O1D       44.1570   24.9780   21.5180 O.co2 142  HEM142      0.0000
     38  O2D       44.4710   23.5590   19.8550 O.co2 142  HEM142      0.0000
     39  NA        41.8020   30.4200   16.6960 N.2   142  HEM142      0.0000
     40  NB        39.5870   31.2970   15.0920 N.ar  142  HEM142      0.0000
     41  NC        38.9680   28.5260   14.4430 N.2   142  HEM142      0.0000
     42  ND        41.1580   27.5960   16.1160 N.ar  142  HEM142      0.0000
     43 FE         40.3560   29.4670   15.5520 Fe    142  HEM142      0.0000
@<TRIPOS>BOND
     1    26    23    1
     2    28    27    2
     3    23    24    2
     4    23    22    1
     5    27    24    1
     6    20    21    2
     7    20    17    1
     8     3    22    2
     9     3    18    1
    10    24    25    1
    11    22    41    1
    12    17    18   ar
    13    17    16   ar
    14    18    40   ar
    15    25    41    2
    16    25     4    1
    17    41    43    1
    18    16    19    1
    19    16    15   ar
    20     4    29    2
    21    40    43    1
    22    40    15   ar
    23    43    42    1
    24    43    39    1
    25    15     2    1
    26    29    42   ar
    27    29    30   ar
    28    42    32   ar
    29    33    30    1
    30    30    31   ar
    31     2     8    2
    32    39     8    1
    33    39     5    2
    34    32    31   ar
    35    32     1    2
    36     8     7    1
    37    31    34    1
    38     5     1    1
    39     5     6    1
    40     7     6    2
    41     7     9    1
    42    34    35    1
    43     6    10    1
    44    11    10    1
    45    11    12    1
    46    14    12   ar
    47    12    13   ar
    48    35    36    1
    49    38    36   ar
    50    36    37   ar
