@<TRIPOS>MOLECULE
3qjd_HEM_A_1.pdb
 43 50 0 0 0
SMALL
GASTEIGER

@<TRIPOS>ATOM
      1  CHA       18.9100   18.4050   20.0790 C.2   142  HEM142      0.0000
      2  CHB       20.9990   20.5680   23.9180 C.2   142  HEM142      0.0000
      3  CHC       18.4650   17.7260   26.9420 C.2   142  HEM142      0.0000
      4  CHD       16.5840   15.3370   23.1530 C.2   142  HEM142      0.0000
      5  C1A       19.7220   19.2160   20.8450 C.2   142  HEM142      0.0000
      6  C2A       20.7240   20.1520   20.3480 C.2   142  HEM142      0.0000
      7  C3A       21.3000   20.7450   21.4100 C.2   142  HEM142      0.0000
      8  C4A       20.6900   20.2120   22.6160 C.2   142  HEM142      0.0000
      9  CMA       22.4170   21.8090   21.3710 C.3   142  HEM142      0.0000
     10  CAA       21.0750   20.4090   18.8600 C.3   142  HEM142      0.0000
     11  CBA       20.2250   21.5480   18.2920 C.3   142  HEM142      0.0000
     12  CGA       20.4380   21.7610   16.8080 C.2   142  HEM142      0.0000
     13  O1A       21.1470   20.9640   16.1510 O.co2 142  HEM142      0.0000
     14  O2A       19.8720   22.7420   16.2610 O.co2 142  HEM142      0.0000
     15  C1B       20.5160   19.9670   25.0670 C.ar  142  HEM142      0.0000
     16  C2B       20.9700   20.2330   26.4170 C.ar  142  HEM142      0.0000
     17  C3B       20.2540   19.4690   27.2490 C.ar  142  HEM142      0.0000
     18  C4B       19.3510   18.6620   26.4550 C.ar  142  HEM142      0.0000
     19  CMB       22.0570   21.2650   26.7750 C.3   142  HEM142      0.0000
     20  CAB       20.3560   19.3480   28.7800 C.2   142  HEM142      0.0000
     21  CBB       21.5120   19.5880   29.4120 C.2   142  HEM142      0.0000
     22  C1C       17.8140   16.7790   26.1760 C.2   142  HEM142      0.0000
     23  C2C       17.1770   15.5800   26.6680 C.2   142  HEM142      0.0000
     24  C3C       16.6390   14.9290   25.6240 C.2   142  HEM142      0.0000
     25  C4C       16.9520   15.6790   24.4310 C.2   142  HEM142      0.0000
     26  CMC       17.1030   15.1590   28.1520 C.3   142  HEM142      0.0000
     27  CAC       15.8890   13.5830   25.6010 C.2   142  HEM142      0.0000
     28  CBC       16.1170   12.6210   26.5130 C.2   142  HEM142      0.0000
     29  C1D       17.0290   15.9330   22.0000 C.ar  142  HEM142      0.0000
     30  C2D       16.7130   15.4670   20.6660 C.ar  142  HEM142      0.0000
     31  C3D       17.4240   16.4170   19.7190 C.ar  142  HEM142      0.0000
     32  C4D       18.1280   17.3630   20.5500 C.ar  142  HEM142      0.0000
     33  CMD       15.8220   14.2890   20.2150 C.3   142  HEM142      0.0000
     34  CAD       17.3830   16.3240   18.1840 C.3   142  HEM142      0.0000
     35  CBD       18.5440   15.4240   17.7350 C.3   142  HEM142      0.0000
     36  CGD       18.5200   15.3420   16.2230 C.2   142  HEM142      0.0000
     37  O1D       19.4240   15.9210   15.5700 O.co2 142  HEM142      0.0000
     38  O2D       17.5850   14.7100   15.6740 O.co2 142  HEM142      0.0000
     39  NA        19.7270   19.2830   22.2220 N.2   142  HEM142      0.0000
     40  NB        19.5330   18.9940   25.1300 N.ar  142  HEM142      0.0000
     41  NC        17.6470   16.8140   24.7970 N.2   142  HEM142      0.0000
     42  ND        17.8670   17.0460   21.8850 N.ar  142  HEM142      0.0000
     43 FE         18.4140   18.2810   23.5170 Fe    142  HEM142      0.0000
@<TRIPOS>BOND
     1    37    36   ar
     2    38    36   ar
     3    13    12   ar
     4    36    35    1
     5    14    12   ar
     6    12    11    1
     7    35    34    1
     8    34    31    1
     9    11    10    1
    10    10     6    1
    11    31    32   ar
    12    31    30   ar
    13     1    32    2
    14     1     5    1
    15    33    30    1
    16     6     5    1
    17     6     7    2
    18    32    42   ar
    19    30    29   ar
    20     5    39    2
    21     9     7    1
    22     7     8    1
    23    42    29   ar
    24    42    43    1
    25    29     4    2
    26    39     8    1
    27    39    43    1
    28     8     2    2
    29     4    25    1
    30    43    41    1
    31    43    40    1
    32     2    15    1
    33    25    41    2
    34    25    24    1
    35    41    22    1
    36    15    40   ar
    37    15    16   ar
    38    40    18   ar
    39    27    24    1
    40    27    28    2
    41    24    23    2
    42    22    23    1
    43    22     3    2
    44    16    19    1
    45    16    17   ar
    46    18     3    1
    47    18    17   ar
    48    23    26    1
    49    17    20    1
    50    20    21    2
