@<TRIPOS>MOLECULE
3qje_HEM_A_1.pdb
 43 50 0 0 0
SMALL
GASTEIGER

@<TRIPOS>ATOM
      1  CHA       18.5280   19.3500   20.0310 C.2   142  HEM142      0.0000
      2  CHB       20.8600   21.4010   23.7460 C.2   142  HEM142      0.0000
      3  CHC       18.3040   18.5000   26.7730 C.2   142  HEM142      0.0000
      4  CHD       16.4340   16.0900   23.0550 C.2   142  HEM142      0.0000
      5  C1A       19.4130   20.1430   20.7310 C.2   142  HEM142      0.0000
      6  C2A       20.3950   21.0630   20.1790 C.2   142  HEM142      0.0000
      7  C3A       21.0480   21.6340   21.2000 C.2   142  HEM142      0.0000
      8  C4A       20.4990   21.0940   22.4420 C.2   142  HEM142      0.0000
      9  CMA       22.1790   22.6780   21.0840 C.3   142  HEM142      0.0000
     10  CAA       20.6350   21.3240   18.6730 C.3   142  HEM142      0.0000
     11  CBA       20.0750   22.7000   18.3220 C.3   142  HEM142      0.0000
     12  CGA       20.0110   22.8960   16.8260 C.2   142  HEM142      0.0000
     13  O1A       20.6020   22.0780   16.0760 O.co2 142  HEM142      0.0000
     14  O2A       19.3610   23.8810   16.3850 O.co2 142  HEM142      0.0000
     15  C1B       20.3840   20.7760   24.8970 C.ar  142  HEM142      0.0000
     16  C2B       20.8190   21.0140   26.2670 C.ar  142  HEM142      0.0000
     17  C3B       20.1020   20.2150   27.0850 C.ar  142  HEM142      0.0000
     18  C4B       19.1980   19.4340   26.2720 C.ar  142  HEM142      0.0000
     19  CMB       21.9100   22.0270   26.6850 C.3   142  HEM142      0.0000
     20  CAB       20.1780   20.0610   28.6200 C.2   142  HEM142      0.0000
     21  CBB       21.1200   20.6360   29.3720 C.2   142  HEM142      0.0000
     22  C1C       17.6440   17.5440   26.0450 C.2   142  HEM142      0.0000
     23  C2C       16.9930   16.3500   26.5500 C.2   142  HEM142      0.0000
     24  C3C       16.4760   15.6970   25.5050 C.2   142  HEM142      0.0000
     25  C4C       16.8000   16.4500   24.3180 C.2   142  HEM142      0.0000
     26  CMC       16.8980   15.9150   28.0320 C.3   142  HEM142      0.0000
     27  CAC       15.7110   14.3530   25.4710 C.2   142  HEM142      0.0000
     28  CBC       15.8560   13.4370   26.4390 C.2   142  HEM142      0.0000
     29  C1D       16.8390   16.7420   21.9150 C.ar  142  HEM142      0.0000
     30  C2D       16.4990   16.3040   20.5840 C.ar  142  HEM142      0.0000
     31  C3D       17.1480   17.3200   19.6550 C.ar  142  HEM142      0.0000
     32  C4D       17.8170   18.2720   20.5140 C.ar  142  HEM142      0.0000
     33  CMD       15.6570   15.0770   20.1880 C.3   142  HEM142      0.0000
     34  CAD       17.1260   17.3060   18.1170 C.3   142  HEM142      0.0000
     35  CBD       18.3390   16.4630   17.7300 C.3   142  HEM142      0.0000
     36  CGD       18.4420   16.2880   16.2430 C.2   142  HEM142      0.0000
     37  O1D       19.5540   16.5110   15.7090 O.co2 142  HEM142      0.0000
     38  O2D       17.4210   15.9400   15.5980 O.co2 142  HEM142      0.0000
     39  NA        19.5020   20.1950   22.0960 N.2   142  HEM142      0.0000
     40  NB        19.3950   19.8070   24.9500 N.ar  142  HEM142      0.0000
     41  NC        17.5110   17.5720   24.6680 N.2   142  HEM142      0.0000
     42  ND        17.6050   17.9000   21.8470 N.ar  142  HEM142      0.0000
     43 FE         18.1190   19.1320   23.4020 Fe    142  HEM142      0.0000
@<TRIPOS>BOND
     1    38    36   ar
     2    37    36   ar
     3    13    12   ar
     4    36    35    1
     5    14    12   ar
     6    12    11    1
     7    35    34    1
     8    34    31    1
     9    11    10    1
    10    10     6    1
    11    31    32   ar
    12    31    30   ar
    13     1    32    2
    14     1     5    1
    15     6     5    1
    16     6     7    2
    17    33    30    1
    18    32    42   ar
    19    30    29   ar
    20     5    39    2
    21     9     7    1
    22     7     8    1
    23    42    29   ar
    24    42    43    1
    25    29     4    2
    26    39     8    1
    27    39    43    1
    28     8     2    2
    29     4    25    1
    30    43    41    1
    31    43    40    1
    32     2    15    1
    33    25    41    2
    34    25    24    1
    35    41    22    1
    36    15    40   ar
    37    15    16   ar
    38    40    18   ar
    39    27    24    1
    40    27    28    2
    41    24    23    2
    42    22    23    1
    43    22     3    2
    44    16    19    1
    45    16    17   ar
    46    18     3    1
    47    18    17   ar
    48    23    26    1
    49    17    20    1
    50    20    21    2
