@<TRIPOS>MOLECULE
3qjg_FMN_A_1.pdb
 31 33 0 0 0
SMALL
GASTEIGER

@<TRIPOS>ATOM
      1  N1        19.1260  122.6290   62.5600 N.2   501  FMN501     -0.2887
      2  C2        19.0350  122.8390   63.9120 C.1   501  FMN501      0.3669
      3  O2        18.4070  122.0460   64.6040 O.2   501  FMN501     -0.1744
      4  N3        19.5980  123.9360   64.4800 N.2   501  FMN501     -0.2300
      5  C4        20.2700  124.8490   63.7270 C.1   501  FMN501      0.2513
      6  O4        20.7240  125.7990   64.3200 O.2   501  FMN501     -0.2057
      7  C4A       20.3770  124.6800   62.3490 C.2   501  FMN501      0.2703
      8  N5        21.0560  125.5710   61.5430 N.2   501  FMN501     -0.3882
      9  C5A       21.1830  125.3200   60.2140 C.2   501  FMN501      0.1277
     10  C6        21.8220  126.2450   59.4000 C.3   501  FMN501      0.0820
     11  C7        21.9500  125.9940   58.0490 C.2   501  FMN501     -0.0408
     12  C7M       22.6640  126.9420   57.1300 C.3   501  FMN501      0.0265
     13  C8        21.4050  124.8210   57.5130 C.2   501  FMN501     -0.0280
     14  C8M       21.4590  124.5130   56.0360 C.3   501  FMN501      0.0304
     15  C9        20.7230  123.9270   58.3120 C.2   501  FMN501      0.0123
     16  C9A       20.6050  124.1660   59.6730 C.2   501  FMN501      0.0793
     17  N10       19.8950  123.2680   60.4690 N.pl3 501  FMN501     -0.2545
     18  C10       19.7990  123.5330   61.7910 C.2   501  FMN501      0.2449
     19  C1'       19.2500  122.0060   59.9570 C.3   501  FMN501      0.1336
     20  C2'       20.0980  120.7860   60.3070 C.3   501  FMN501      0.2048
     21  O2'       21.4610  120.9920   59.8890 O.3   501  FMN501     -0.2185
     22  C3'       19.4200  119.6160   59.6940 C.3   501  FMN501      0.2165
     23  O3'       18.1240  119.3790   60.2940 O.3   501  FMN501     -0.2175
     24  C4'       20.2890  118.3620   59.7920 C.3   501  FMN501      0.2147
     25  O4'       19.5750  117.2280   59.3280 O.3   501  FMN501     -0.2176
     26  C5'       20.6740  118.0200   61.1930 C.3   501  FMN501      0.1892
     27  O5'       21.6440  116.9940   61.0870 O.3   501  FMN501     -0.2674
     28  P         22.5820  116.6000   62.3320 P.3   501  FMN501      0.5327
     29  O1P       23.0560  115.2020   62.0840 O.2   501  FMN501     -0.2224
     30  O2P       21.7750  116.6960   63.5860 O.3   501  FMN501     -0.1145
     31  O3P       23.8560  117.3240   62.4610 O.3   501  FMN501     -0.1145
@<TRIPOS>BOND
     1    14    13    1
     2    12    11    1
     3    13    11    2
     4    13    15    1
     5    11    10    1
     6    15    16    2
     7    25    24    1
     8    10     9    1
     9    16     9    1
    10    16    17    1
    11    22    24    1
    12    22    23    1
    13    22    20    1
    14    24    26    1
    15    21    20    1
    16    19    20    1
    17    19    17    1
    18     9     8    2
    19    17    18    1
    20    27    26    1
    21    27    28    1
    22     8     7    2
    23    18     7    1
    24    18     1    2
    25    29    28    2
    26    28    31    1
    27    28    30    1
    28     7     5    1
    29     1     2    2
    30     5     6    2
    31     5     4    2
    32     2     4    2
    33     2     3    2
