@<TRIPOS>MOLECULE
3qji_MGP_A_1.pdb
 33 35 0 0 0
SMALL
GASTEIGER

@<TRIPOS>ATOM
      1  PA       -15.5990  -16.1420   -4.9010 P.3   247  MGP247      0.2189
      2  O1A      -15.5150  -17.6210   -4.5260 O.2   247  MGP247     -0.5170
      3  O2A      -14.8620  -15.0580   -4.1690 O.3   247  MGP247     -0.4371
      4  O3A      -17.1930  -15.8310   -4.9760 O.3   247  MGP247     -0.2700
      5  O5'      -15.2820  -16.0420   -6.4630 O.3   247  MGP247     -0.3112
      6  PB       -18.2110  -15.4580   -3.7970 P.3   247  MGP247      0.2277
      7  O1B      -17.5460  -15.3500   -2.4360 O.3   247  MGP247     -0.4368
      8  O2B      -18.9460  -14.2570   -4.3370 O.2   247  MGP247     -0.5168
      9  O3B      -19.2060  -16.7260   -3.7120 O.3   247  MGP247     -0.2258
     10  PC       -20.7010  -16.9060   -4.3340 P.3   247  MGP247      0.5373
     11  O1C      -20.9720  -18.3200   -3.8480 O.3   247  MGP247     -0.1143
     12  O2C      -20.5330  -16.8100   -5.8580 O.2   247  MGP247     -0.2221
     13  O3C      -21.7380  -15.9530   -3.7320 O.3   247  MGP247     -0.1143
     14  C5'      -15.2110  -14.7720   -7.1190 C.3   247  MGP247      0.1813
     15  C4'      -16.2770  -14.7690   -8.1800 C.3   247  MGP247      0.1799
     16  O4'      -15.9480  -15.7310   -9.1830 O.3   247  MGP247     -0.3326
     17  C3'      -17.5380  -15.3240   -7.5250 C.3   247  MGP247      0.2158
     18  O3'      -18.3250  -14.2680   -7.0040 O.3   247  MGP247     -0.2175
     19  C2'      -18.1930  -16.0890   -8.6090 C.3   247  MGP247      0.2310
     20  O2'      -18.5720  -14.9690   -9.4760 O.3   247  MGP247     -0.2158
     21  C1'      -16.9580  -16.7350   -9.2120 C.3   247  MGP247      0.2287
     22  N9       -16.3800  -17.9700   -8.5960 N.pl3 247  MGP247     -0.2454
     23  C8       -16.6500  -18.6400   -7.4530 C.3   247  MGP247      0.1735
     24  N7       -15.8350  -19.7150   -7.3320 N.3   247  MGP247     -0.2343
     25  CM7      -15.8330  -20.6910   -6.1860 C.3   247  MGP247      0.0924
     26  C5       -15.0560  -19.7070   -8.4290 C.3   247  MGP247      0.2475
     27  C6       -13.9720  -20.6140   -8.9100 C.1   247  MGP247      0.2145
     28  O6       -13.5510  -21.7060   -8.2120 O.2   247  MGP247     -0.2115
     29  N1       -13.3780  -20.3120  -10.1070 N.2   247  MGP247     -0.2526
     30  C2       -13.7570  -19.2220  -10.8330 C.1   247  MGP247      0.2525
     31  N2       -13.1690  -18.9310  -12.0060 N.pl3 247  MGP247     -0.0226
     32  N3       -14.7350  -18.4180  -10.3910 N.2   247  MGP247     -0.3118
     33  C4       -15.3910  -18.6270   -9.2080 C.2   247  MGP247      0.2086
@<TRIPOS>BOND
     1    31    30    1
     2    30    32    2
     3    30    29    2
     4    32    33    2
     5    29    27    2
     6    20    19    1
     7    21    16    1
     8    21    19    1
     9    21    22    1
    10    33    22    1
    11    33    26    1
    12    16    15    1
    13    27    26    1
    14    27    28    2
    15    19    17    1
    16    22    23    1
    17    26    24    1
    18    15    17    1
    19    15    14    1
    20    17    18    1
    21    23    24    1
    22    24    25    1
    23    14     5    1
    24     5     1    1
    25    12    10    2
    26     4     1    1
    27     4     6    1
    28     1     2    2
    29     1     3    1
    30     8     6    2
    31    10    11    1
    32    10    13    1
    33    10     9    1
    34     6     9    1
    35     6     7    1
