@<TRIPOS>MOLECULE
3qjm_III_C_1.pdb
 40 39 0 0 0
SMALL
GASTEIGER

@<TRIPOS>ATOM
      1  N         -0.6630    0.8950  -41.7220 N.3   642  ASP642     -0.1225
      2  CA        -1.5080   -0.2880  -41.5940 C.3   642  ASP642      0.1805
      3  C         -1.0860   -1.2420  -42.7060 C.2   642  ASP642      0.2598
      4  O         -0.2870   -0.8680  -43.5640 O.2   642  ASP642     -0.2718
      5  CB        -2.9870    0.1040  -41.7120 C.3   642  ASP642      0.1424
      6  CG        -3.9430   -1.0350  -41.3720 C.2   642  ASP642      0.3668
      7  OD1       -3.5060   -2.0740  -40.8210 O.co2 642  ASP642     -0.2456
      8  OD2       -5.1520   -0.8720  -41.6430 O.co2 642  ASP642     -0.2456
      9  N         -1.6090   -2.4650  -42.6700 N.am  643  GLU643     -0.1965
     10  CA        -1.2490   -3.5270  -43.5960 C.3   643  GLU643      0.1733
     11  C         -2.4990   -4.3110  -43.9180 C.2   643  GLU643      0.2617
     12  O         -3.3650   -4.4640  -43.0710 O.2   643  GLU643     -0.2715
     13  CB        -0.2550   -4.4980  -42.9490 C.3   643  GLU643      0.0429
     14  CG         0.9890   -3.8660  -42.3780 C.3   643  GLU643      0.1163
     15  CD         1.8280   -4.8630  -41.5990 C.2   643  GLU643      0.3649
     16  OE1        2.5830   -5.6220  -42.2450 O.co2 643  GLU643     -0.2457
     17  OE2        1.7220   -4.9000  -40.3470 O.co2 643  GLU643     -0.2457
     18  N         -2.5810   -4.8450  -45.1280 N.am  644  THR644     -0.1937
     19  CA        -3.7390   -5.6260  -45.5310 C.3   644  THR644      0.2028
     20  C         -3.3310   -6.5930  -46.6270 C.2   644  THR644      0.2642
     21  O         -2.7240   -6.2020  -47.6180 O.2   644  THR644     -0.2714
     22  CB        -4.8680   -4.7150  -46.0650 C.3   644  THR644      0.1808
     23  OG1       -5.1070   -3.6600  -45.1360 O.3   644  THR644     -0.2208
     24  CG2       -6.1600   -5.4980  -46.2690 C.3   644  THR644      0.0379
     25  N         -3.6660   -7.8580  -46.4350 N.am  645  ASN645     -0.1957
     26  CA        -3.4200   -8.8980  -47.4150 C.3   645  ASN645      0.1819
     27  C         -4.5820   -8.9190  -48.4190 C.2   645  ASN645      0.2621
     28  O         -5.7340   -9.1380  -48.0490 O.2   645  ASN645     -0.2715
     29  CB        -3.2670  -10.2350  -46.6760 C.3   645  ASN645      0.1195
     30  CG        -3.0850  -11.4250  -47.6100 C.2   645  ASN645      0.2630
     31  OD1       -3.6400  -12.4990  -47.3680 O.2   645  ASN645     -0.2716
     32  ND2       -2.3010  -11.2470  -48.6660 N.am  645  ASN645     -0.0877
     33  N         -4.2890   -8.6450  -49.6850 N.am  646  LEU646     -0.1977
     34  CA        -5.3420   -8.5420  -50.6900 C.3   646  LEU646      0.1596
     35  C         -5.1840   -9.6090  -51.7660 C.2   646  LEU646      0.2287
     36  O         -6.0580   -9.7700  -52.6150 O.2   646  LEU646     -0.2864
     37  CB        -5.3580   -7.1400  -51.3130 C.3   646  LEU646      0.0297
     38  CG        -5.6670   -5.9960  -50.3440 C.3   646  LEU646      0.0022
     39  CD1       -5.1370   -4.6810  -50.8480 C.3   646  LEU646      0.0001
     40  CD2       -7.1630   -5.9030  -50.0850 C.3   646  LEU646      0.0001
@<TRIPOS>BOND
     1    36    35    2
     2    35    34    1
     3    37    34    1
     4    37    38    1
     5    39    38    1
     6    34    33    1
     7    38    40    1
     8    33    27   am
     9    32    30   am
    10    27    28    2
    11    27    26    1
    12    21    20    2
    13    30    31    2
    14    30    29    1
    15    26    29    1
    16    26    25    1
    17    20    25   am
    18    20    19    1
    19    24    22    1
    20    22    19    1
    21    22    23    1
    22    19    18    1
    23    18    11   am
    24    11    10    1
    25    11    12    2
    26    10    13    1
    27    10     9    1
    28     4     3    2
    29    13    14    1
    30     3     9   am
    31     3     2    1
    32    14    15    1
    33    16    15   ar
    34     1     2    1
    35     5     2    1
    36     5     6    1
    37     8     6   ar
    38    15    17   ar
    39     6     7   ar
