@<TRIPOS>MOLECULE
3qjn_III_I_1.pdb
 40 39 0 0 0
SMALL
GASTEIGER

@<TRIPOS>ATOM
      1  N         36.1380  108.5270   89.4450 N.3   642  ASP642     -0.1226
      2  CA        34.7110  108.2080   89.3680 C.3   642  ASP642      0.1756
      3  C         34.2940  106.9800   90.2260 C.2   642  ASP642      0.2596
      4  O         34.8880  105.9040   90.1300 O.2   642  ASP642     -0.2718
      5  CB        34.2560  108.0470   87.9120 C.3   642  ASP642      0.0808
      6  CG        32.7580  108.1940   87.6520 C.2   642  ASP642      0.0979
      7  OD1       31.9940  108.4750   88.6260 O.co2 642  ASP642     -0.3083
      8  OD2       32.3510  108.0680   86.4760 O.co2 642  ASP642     -0.8471
      9  N         33.2210  107.1740   91.0350 N.am  643  GLU643     -0.1965
     10  CA        32.6710  106.2420   92.0180 C.3   643  GLU643      0.1731
     11  C         31.2470  105.8170   91.6870 C.2   643  GLU643      0.2617
     12  O         30.5340  106.5270   90.9620 O.2   643  GLU643     -0.2715
     13  CB        32.6530  106.9080   93.4150 C.3   643  GLU643      0.0370
     14  CG        33.9800  107.4620   93.8610 C.3   643  GLU643      0.0440
     15  CD        33.9790  108.4420   95.0230 C.2   643  GLU643      0.0504
     16  OE1       32.9940  109.1970   95.1860 O.co2 643  GLU643     -0.5492
     17  OE2       35.0220  108.5250   95.7090 O.co2 643  GLU643     -0.5492
     18  N         30.8070  104.6820   92.2810 N.am  644  THR644     -0.1937
     19  CA        29.4440  104.1510   92.1720 C.3   644  THR644      0.2028
     20  C         29.0790  103.4290   93.4500 C.2   644  THR644      0.2642
     21  O         29.8880  102.6600   93.9700 O.2   644  THR644     -0.2714
     22  CB        29.2790  103.2430   90.9450 C.3   644  THR644      0.1808
     23  OG1       29.6950  103.9620   89.7760 O.3   644  THR644     -0.2208
     24  CG2       27.8400  102.7180   90.7890 C.3   644  THR644      0.0379
     25  N         27.8620  103.6640   93.9490 N.am  645  ASN645     -0.1957
     26  CA        27.3780  103.0100   95.1590 C.3   645  ASN645      0.1819
     27  C         26.6440  101.7470   94.7390 C.2   645  ASN645      0.2621
     28  O         25.7000  101.8070   93.9340 O.2   645  ASN645     -0.2715
     29  CB        26.4900  103.9440   95.9730 C.3   645  ASN645      0.1195
     30  CG        26.5270  103.6840   97.4540 C.2   645  ASN645      0.2630
     31  OD1       26.2970  102.5520   97.9420 O.2   645  ASN645     -0.2716
     32  ND2       26.7690  104.7500   98.2020 N.am  645  ASN645     -0.0877
     33  N         27.1400  100.5910   95.2110 N.am  646  LEU646     -0.1977
     34  CA        26.5760   99.3130   94.8510 C.3   646  LEU646      0.1596
     35  C         26.0540   98.5160   96.0370 C.2   646  LEU646      0.2287
     36  O         25.1530   97.6890   95.8360 O.2   646  LEU646     -0.2864
     37  CB        27.5420   98.4930   93.9680 C.3   646  LEU646      0.0297
     38  CG        27.8790   99.0660   92.5930 C.3   646  LEU646      0.0022
     39  CD1       29.2780   98.7100   92.1880 C.3   646  LEU646      0.0001
     40  CD2       26.9350   98.5800   91.5550 C.3   646  LEU646      0.0001
@<TRIPOS>UNITY_ATOM_ATTR
8 1
charge -1
17 1
charge -1
@<TRIPOS>BOND
     1     8     6   ar
     2     6     5    1
     3     6     7   ar
     4     5     2    1
     5     2     1    1
     6     2     3    1
     7    23    22    1
     8     4     3    2
     9     3     9   am
    10    24    22    1
    11    22    19    1
    12    12    11    2
    13     9    10    1
    14    40    38    1
    15    11    10    1
    16    11    18   am
    17    10    13    1
    18    19    18    1
    19    19    20    1
    20    39    38    1
    21    38    37    1
    22    13    14    1
    23    20    25   am
    24    20    21    2
    25    14    15    1
    26    28    27    2
    27    25    26    1
    28    37    34    1
    29    27    26    1
    30    27    33   am
    31    34    33    1
    32    34    35    1
    33    15    16   ar
    34    15    17   ar
    35    26    29    1
    36    36    35    2
    37    29    30    1
    38    30    31    2
    39    30    32   am
