@<TRIPOS>MOLECULE
3qjq_HEM_A_1.pdb
 43 50 0 0 0
SMALL
GASTEIGER

@<TRIPOS>ATOM
      1  CHA       19.5710  -33.4450    6.2100 C.2   800  HEM800      0.0000
      2  CHB       17.9880  -37.6430    4.4630 C.2   800  HEM800      0.0000
      3  CHC       21.8760  -39.7590    6.3400 C.2   800  HEM800      0.0000
      4  CHD       23.8680  -35.4390    7.1080 C.2   800  HEM800      0.0000
      5  C1A       18.8620  -34.3940    5.5310 C.ar  800  HEM800      0.0000
      6  C2A       17.7450  -34.1080    4.6420 C.ar  800  HEM800      0.0000
      7  C3A       17.3090  -35.2670    4.1500 C.ar  800  HEM800      0.0000
      8  C4A       18.1300  -36.3180    4.7200 C.ar  800  HEM800      0.0000
      9  CMA       16.1490  -35.4430    3.1650 C.3   800  HEM800      0.0000
     10  CAA       17.1980  -32.7060    4.3060 C.3   800  HEM800      0.0000
     11  CBA       16.0030  -32.3550    5.1680 C.3   800  HEM800      0.0000
     12  CGA       15.8090  -30.8610    5.1680 C.2   800  HEM800      0.0000
     13  O1A       15.4930  -30.3230    6.2640 O.co2 800  HEM800      0.0000
     14  O2A       15.9660  -30.2150    4.0960 O.co2 800  HEM800      0.0000
     15  C1B       18.8790  -38.5940    4.8620 C.2   800  HEM800      0.0000
     16  C2B       18.7210  -40.0410    4.6920 C.2   800  HEM800      0.0000
     17  C3B       19.8030  -40.6020    5.2040 C.2   800  HEM800      0.0000
     18  C4B       20.6690  -39.5530    5.7220 C.2   800  HEM800      0.0000
     19  CMB       17.5520  -40.8340    4.0400 C.3   800  HEM800      0.0000
     20  CAB       20.0240  -42.1220    5.2490 C.2   800  HEM800      0.0000
     21  CBB       19.4000  -42.7920    6.2240 C.2   800  HEM800      0.0000
     22  C1C       22.7660  -38.7840    6.7040 C.ar  800  HEM800      0.0000
     23  C2C       24.1050  -38.9860    7.2720 C.ar  800  HEM800      0.0000
     24  C3C       24.6500  -37.7790    7.4730 C.ar  800  HEM800      0.0000
     25  C4C       23.6710  -36.7920    7.0420 C.ar  800  HEM800      0.0000
     26  CMC       24.7720  -40.3410    7.5740 C.3   800  HEM800      0.0000
     27  CAC       26.0280  -37.4070    8.0710 C.2   800  HEM800      0.0000
     28  CBC       27.1380  -38.1450    7.9570 C.2   800  HEM800      0.0000
     29  C1D       22.8940  -34.4910    6.9970 C.2   800  HEM800      0.0000
     30  C2D       23.0920  -33.0960    7.2740 C.2   800  HEM800      0.0000
     31  C3D       21.7400  -32.4240    6.9970 C.2   800  HEM800      0.0000
     32  C4D       20.8860  -33.5220    6.5640 C.2   800  HEM800      0.0000
     33  CMD       24.4200  -32.4840    7.7370 C.3   800  HEM800      0.0000
     34  CAD       21.3760  -30.9320    7.1270 C.3   800  HEM800      0.0000
     35  CBD       20.4120  -30.7460    8.2910 C.3   800  HEM800      0.0000
     36  CGD       20.1820  -29.2750    8.5710 C.2   800  HEM800      0.0000
     37  O1D       20.3420  -28.8160    9.7740 O.co2 800  HEM800      0.0000
     38  O2D       19.8260  -28.5890    7.5620 O.co2 800  HEM800      0.0000
     39  NA        19.0700  -35.7570    5.5720 N.ar  800  HEM800      0.0000
     40  NB        20.0730  -38.3260    5.4970 N.2   800  HEM800      0.0000
     41  NC        22.5260  -37.4240    6.5720 N.ar  800  HEM800      0.0000
     42  ND        21.5920  -34.7110    6.5800 N.2   800  HEM800      0.0000
     43 FE         20.7840  -36.4360    6.0430 Fe    800  HEM800      0.0000
@<TRIPOS>BOND
     1     9     7    1
     2    19    16    1
     3    14    12   ar
     4     7     6   ar
     5     7     8   ar
     6    10     6    1
     7    10    11    1
     8     2     8    2
     9     2    15    1
    10     6     5   ar
    11    16    15    1
    12    16    17    2
    13     8    39   ar
    14    15    40    2
    15    11    12    1
    16    12    13   ar
    17    17    20    1
    18    17    18    1
    19    20    21    2
    20    40    18    1
    21    40    43    1
    22     5    39   ar
    23     5     1    2
    24    39    43    1
    25    18     3    2
    26    43    41    1
    27    43    42    1
    28     1    32    1
    29     3    22    1
    30    32    42    2
    31    32    31    1
    32    41    22   ar
    33    41    25   ar
    34    42    29    1
    35    22    23   ar
    36    29     4    2
    37    29    30    1
    38    31    34    1
    39    31    30    2
    40    25     4    1
    41    25    24   ar
    42    34    35    1
    43    23    24   ar
    44    23    26    1
    45    30    33    1
    46    24    27    1
    47    38    36   ar
    48    28    27    2
    49    35    36    1
    50    36    37   ar
