@<TRIPOS>MOLECULE
3qjr_HEM_A_1.pdb
 43 50 0 0 0
SMALL
GASTEIGER

@<TRIPOS>ATOM
      1  CHA       19.5160  -33.4290    6.2020 C.2   800  HEM800      0.0000
      2  CHB       18.0140  -37.6070    4.4060 C.2   800  HEM800      0.0000
      3  CHC       21.9700  -39.6750    6.1800 C.2   800  HEM800      0.0000
      4  CHD       23.7040  -35.4010    7.5010 C.2   800  HEM800      0.0000
      5  C1A       18.8030  -34.3620    5.4820 C.ar  800  HEM800      0.0000
      6  C2A       17.6950  -34.0810    4.5590 C.ar  800  HEM800      0.0000
      7  C3A       17.2980  -35.2540    4.0770 C.ar  800  HEM800      0.0000
      8  C4A       18.1290  -36.2820    4.6640 C.ar  800  HEM800      0.0000
      9  CMA       16.1630  -35.5070    3.0690 C.3   800  HEM800      0.0000
     10  CAA       17.0910  -32.7000    4.2090 C.3   800  HEM800      0.0000
     11  CBA       16.2370  -32.2760    5.3970 C.3   800  HEM800      0.0000
     12  CGA       15.8400  -30.8230    5.3230 C.2   800  HEM800      0.0000
     13  O1A       14.8370  -30.4450    5.9860 O.co2 800  HEM800      0.0000
     14  O2A       16.5170  -30.0390    4.6070 O.co2 800  HEM800      0.0000
     15  C1B       18.9370  -38.5300    4.7790 C.2   800  HEM800      0.0000
     16  C2B       18.7980  -39.9650    4.5740 C.2   800  HEM800      0.0000
     17  C3B       19.8990  -40.5400    5.0700 C.2   800  HEM800      0.0000
     18  C4B       20.7510  -39.4750    5.5980 C.2   800  HEM800      0.0000
     19  CMB       17.6110  -40.7070    3.9130 C.3   800  HEM800      0.0000
     20  CAB       20.2070  -42.0620    5.0750 C.2   800  HEM800      0.0000
     21  CBB       19.6900  -42.8520    6.0180 C.2   800  HEM800      0.0000
     22  C1C       22.7930  -38.6980    6.6570 C.ar  800  HEM800      0.0000
     23  C2C       24.1180  -38.9090    7.2100 C.ar  800  HEM800      0.0000
     24  C3C       24.5910  -37.7140    7.5760 C.ar  800  HEM800      0.0000
     25  C4C       23.5700  -36.7430    7.2580 C.ar  800  HEM800      0.0000
     26  CMC       24.8020  -40.2810    7.3250 C.3   800  HEM800      0.0000
     27  CAC       25.9440  -37.2970    8.2100 C.2   800  HEM800      0.0000
     28  CBC       26.8230  -38.1470    8.7440 C.2   800  HEM800      0.0000
     29  C1D       22.7410  -34.4590    7.3200 C.2   800  HEM800      0.0000
     30  C2D       22.8630  -33.0880    7.7230 C.2   800  HEM800      0.0000
     31  C3D       21.5420  -32.4750    7.3230 C.2   800  HEM800      0.0000
     32  C4D       20.7820  -33.5450    6.7140 C.2   800  HEM800      0.0000
     33  CMD       24.0460  -32.4070    8.4120 C.3   800  HEM800      0.0000
     34  CAD       21.1330  -31.0100    7.4760 C.3   800  HEM800      0.0000
     35  CBD       20.3500  -30.7080    8.7270 C.3   800  HEM800      0.0000
     36  CGD       20.3100  -29.2080    8.7180 C.2   800  HEM800      0.0000
     37  O1D       20.5200  -28.6580    9.8320 O.co2 800  HEM800      0.0000
     38  O2D       20.0890  -28.6090    7.6130 O.co2 800  HEM800      0.0000
     39  NA        19.0460  -35.7210    5.5260 N.ar  800  HEM800      0.0000
     40  NB        20.1410  -38.2510    5.4090 N.2   800  HEM800      0.0000
     41  NC        22.4800  -37.3610    6.6970 N.ar  800  HEM800      0.0000
     42  ND        21.5140  -34.7060    6.7310 N.2   800  HEM800      0.0000
     43 FE         20.8070  -36.4750    6.2240 Fe    800  HEM800      0.0000
@<TRIPOS>BOND
     1     9     7    1
     2    19    16    1
     3     7     6   ar
     4     7     8   ar
     5    10     6    1
     6    10    11    1
     7     2     8    2
     8     2    15    1
     9     6     5   ar
    10    16    15    1
    11    16    17    2
    12    14    12   ar
    13     8    39   ar
    14    15    40    2
    15    17    20    1
    16    17    18    1
    17    20    21    2
    18    12    11    1
    19    12    13   ar
    20    40    18    1
    21    40    43    1
    22     5    39   ar
    23     5     1    2
    24    39    43    1
    25    18     3    2
    26     3    22    1
    27     1    32    1
    28    43    41    1
    29    43    42    1
    30    22    41   ar
    31    22    23   ar
    32    41    25   ar
    33    32    42    2
    34    32    31    1
    35    42    29    1
    36    23    26    1
    37    23    24   ar
    38    25     4    1
    39    25    24   ar
    40    29     4    2
    41    29    30    1
    42    31    34    1
    43    31    30    2
    44    34    35    1
    45    24    27    1
    46    38    36   ar
    47    30    33    1
    48    27    28    2
    49    36    35    1
    50    36    37   ar
