@<TRIPOS>MOLECULE
3qjs_HEM_A_1.pdb
 43 50 0 0 0
SMALL
GASTEIGER

@<TRIPOS>ATOM
      1  CHA      -37.4560   18.5490    4.0400 C.2   800  HEM800      0.0000
      2  CHB      -39.7880   14.6820    2.2330 C.2   800  HEM800      0.0000
      3  CHC      -35.5070   12.4320    2.0350 C.2   800  HEM800      0.0000
      4  CHD      -33.1460   16.5500    3.2040 C.2   800  HEM800      0.0000
      5  C1A      -38.4280   17.7390    3.4480 C.ar  800  HEM800      0.0000
      6  C2A      -39.7590   18.1390    3.0430 C.ar  800  HEM800      0.0000
      7  C3A      -40.4170   17.0870    2.5300 C.ar  800  HEM800      0.0000
      8  C4A      -39.5210   15.9780    2.6030 C.ar  800  HEM800      0.0000
      9  CMA      -41.8530   17.0550    1.9530 C.3   800  HEM800      0.0000
     10  CAA      -40.3020   19.5680    3.1760 C.3   800  HEM800      0.0000
     11  CBA      -40.9140   19.6950    4.5470 C.3   800  HEM800      0.0000
     12  CGA      -40.8700   21.1350    5.0280 C.2   800  HEM800      0.0000
     13  O1A      -41.6520   21.4350    5.9870 O.co2 800  HEM800      0.0000
     14  O2A      -40.0760   21.9740    4.4590 O.co2 800  HEM800      0.0000
     15  C1B      -38.8500   13.6910    2.1040 C.2   800  HEM800      0.0000
     16  C2B      -39.1390   12.3450    1.7390 C.2   800  HEM800      0.0000
     17  C3B      -37.9480   11.7130    1.6800 C.2   800  HEM800      0.0000
     18  C4B      -36.8770   12.6480    2.0130 C.2   800  HEM800      0.0000
     19  CMB      -40.5710   11.8150    1.4710 C.3   800  HEM800      0.0000
     20  CAB      -37.7130   10.2480    1.3260 C.3   800  HEM800      0.0000
     21  CBB      -36.9810    9.6110    2.2170 C.3   800  HEM800      0.0000
     22  C1C      -34.5130   13.3710    2.2830 C.ar  800  HEM800      0.0000
     23  C2C      -33.0580   13.1710    2.2710 C.ar  800  HEM800      0.0000
     24  C3C      -32.4540   14.3220    2.5830 C.ar  800  HEM800      0.0000
     25  C4C      -33.4720   15.2900    2.8110 C.ar  800  HEM800      0.0000
     26  CMC      -32.3010   11.8810    1.9380 C.3   800  HEM800      0.0000
     27  CAC      -30.9570   14.7040    2.7350 C.2   800  HEM800      0.0000
     28  CBC      -29.9530   13.9550    2.2940 C.2   800  HEM800      0.0000
     29  C1D      -34.0620   17.4500    3.6320 C.2   800  HEM800      0.0000
     30  C2D      -33.7440   18.7360    4.2040 C.2   800  HEM800      0.0000
     31  C3D      -35.1040   19.4020    4.4700 C.2   800  HEM800      0.0000
     32  C4D      -36.0770   18.4000    4.0150 C.2   800  HEM800      0.0000
     33  CMD      -32.3430   19.3120    4.4400 C.3   800  HEM800      0.0000
     34  CAD      -35.3520   20.8190    5.0590 C.3   800  HEM800      0.0000
     35  CBD      -35.1010   20.9890    6.5480 C.3   800  HEM800      0.0000
     36  CGD      -35.6620   22.3180    7.0090 C.2   800  HEM800      0.0000
     37  O1D      -35.4360   22.6060    8.2100 O.co2 800  HEM800      0.0000
     38  O2D      -36.3100   23.0570    6.2040 O.co2 800  HEM800      0.0000
     39  NA       -38.3320   16.4120    3.1430 N.ar  800  HEM800      0.0000
     40  NB       -37.4940   13.8410    2.2850 N.2   800  HEM800      0.0000
     41  NC       -34.7200   14.7000    2.6370 N.ar  800  HEM800      0.0000
     42  ND       -35.4230   17.2610    3.5470 N.2   800  HEM800      0.0000
     43 FE        -36.5070   15.5700    2.9860 Fe    800  HEM800      0.0000
@<TRIPOS>BOND
     1    20    17    1
     2    20    21    1
     3    19    16    1
     4    17    16    2
     5    17    18    1
     6    16    15    1
     7    26    23    1
     8     9     7    1
     9    18     3    2
    10    18    40    1
    11     3    22    1
    12    15     2    1
    13    15    40    2
    14     2     8    2
    15    23    22   ar
    16    23    24   ar
    17    22    41   ar
    18    40    43    1
    19    28    27    2
    20     7     8   ar
    21     7     6   ar
    22    24    27    1
    23    24    25   ar
    24     8    39   ar
    25    41    25   ar
    26    41    43    1
    27    25     4    1
    28    43    39    1
    29    43    42    1
    30     6    10    1
    31     6     5   ar
    32    39     5   ar
    33    10    11    1
    34     4    29    2
    35     5     1    2
    36    42    29    1
    37    42    32    2
    38    29    30    1
    39    32     1    1
    40    32    31    1
    41    30    33    1
    42    30    31    2
    43    14    12   ar
    44    31    34    1
    45    11    12    1
    46    12    13   ar
    47    34    35    1
    48    38    36   ar
    49    35    36    1
    50    36    37   ar
