@<TRIPOS>MOLECULE
3qjt_HEM_A_1.pdb
 43 50 0 0 0
SMALL
GASTEIGER

@<TRIPOS>ATOM
      1  CHA      -37.6730   18.7320    3.9720 C.2   800  HEM800      0.0000
      2  CHB      -40.0740   15.0140    2.0950 C.2   800  HEM800      0.0000
      3  CHC      -35.9740   12.4820    1.6360 C.2   800  HEM800      0.0000
      4  CHD      -33.4280   16.2790    3.1410 C.2   800  HEM800      0.0000
      5  C1A      -38.6930   17.9940    3.4090 C.ar  800  HEM800      0.0000
      6  C2A      -40.0260   18.4330    3.0560 C.ar  800  HEM800      0.0000
      7  C3A      -40.6890   17.3990    2.5490 C.ar  800  HEM800      0.0000
      8  C4A      -39.7820   16.2770    2.5530 C.ar  800  HEM800      0.0000
      9  CMA      -42.1500   17.3830    2.0250 C.3   800  HEM800      0.0000
     10  CAA      -40.5960   19.8470    3.2620 C.3   800  HEM800      0.0000
     11  CBA      -40.9240   19.9930    4.7420 C.3   800  HEM800      0.0000
     12  CGA      -41.4590   21.3600    5.0120 C.2   800  HEM800      0.0000
     13  O1A      -42.1540   21.5290    6.0500 O.co2 800  HEM800      0.0000
     14  O2A      -41.1820   22.2760    4.1970 O.co2 800  HEM800      0.0000
     15  C1B      -39.1970   13.9800    1.8530 C.2   800  HEM800      0.0000
     16  C2B      -39.5510   12.6330    1.4390 C.2   800  HEM800      0.0000
     17  C3B      -38.4200   11.9490    1.3190 C.2   800  HEM800      0.0000
     18  C4B      -37.3100   12.8290    1.6520 C.2   800  HEM800      0.0000
     19  CMB      -40.9610   12.0610    1.1860 C.3   800  HEM800      0.0000
     20  CAB      -38.3080   10.4630    0.8970 C.2   800  HEM800      0.0000
     21  CBB      -38.1390    9.5110    1.8190 C.2   800  HEM800      0.0000
     22  C1C      -34.9050   13.2800    1.9590 C.ar  800  HEM800      0.0000
     23  C2C      -33.5040   12.9190    1.8520 C.ar  800  HEM800      0.0000
     24  C3C      -32.7830   13.9630    2.2700 C.ar  800  HEM800      0.0000
     25  C4C      -33.7110   15.0200    2.6450 C.ar  800  HEM800      0.0000
     26  CMC      -32.9380   11.5610    1.3420 C.3   800  HEM800      0.0000
     27  CAC      -31.2330   13.9850    2.3270 C.2   800  HEM800      0.0000
     28  CBC      -30.4930   14.6560    1.4310 C.2   800  HEM800      0.0000
     29  C1D      -34.3290   17.2770    3.5140 C.2   800  HEM800      0.0000
     30  C2D      -33.9660   18.5720    4.0440 C.2   800  HEM800      0.0000
     31  C3D      -35.2570   19.3590    4.3150 C.2   800  HEM800      0.0000
     32  C4D      -36.3090   18.4410    3.9050 C.2   800  HEM800      0.0000
     33  CMD      -32.5510   19.0990    4.2860 C.3   800  HEM800      0.0000
     34  CAD      -35.3860   20.8170    4.8430 C.3   800  HEM800      0.0000
     35  CBD      -35.4950   20.9370    6.3580 C.3   800  HEM800      0.0000
     36  CGD      -36.0660   22.2760    6.8010 C.2   800  HEM800      0.0000
     37  O1D      -35.5750   22.8330    7.8220 O.co2 800  HEM800      0.0000
     38  O2D      -37.0280   22.7900    6.1610 O.co2 800  HEM800      0.0000
     39  NA       -38.5760   16.6680    3.0840 N.ar  800  HEM800      0.0000
     40  NB       -37.8240   14.0670    1.9900 N.2   800  HEM800      0.0000
     41  NC       -34.9940   14.5590    2.4390 N.ar  800  HEM800      0.0000
     42  ND       -35.7150   17.2430    3.4460 N.2   800  HEM800      0.0000
     43 FE        -36.7280   15.6650    2.8980 Fe    800  HEM800      0.0000
@<TRIPOS>BOND
     1    20    17    1
     2    20    21    2
     3    19    16    1
     4    17    16    2
     5    17    18    1
     6    26    23    1
     7    28    27    2
     8    16    15    1
     9     3    18    2
    10     3    22    1
    11    18    40    1
    12    23    22   ar
    13    23    24   ar
    14    15    40    2
    15    15     2    1
    16    22    41   ar
    17    40    43    1
    18     9     7    1
    19     2     8    2
    20    24    27    1
    21    24    25   ar
    22    41    25   ar
    23    41    43    1
    24     7     8   ar
    25     7     6   ar
    26     8    39   ar
    27    25     4    1
    28    43    39    1
    29    43    42    1
    30     6    10    1
    31     6     5   ar
    32    39     5   ar
    33     4    29    2
    34    10    11    1
    35     5     1    2
    36    42    29    1
    37    42    32    2
    38    29    30    1
    39    32     1    1
    40    32    31    1
    41    30    33    1
    42    30    31    2
    43    14    12   ar
    44    31    34    1
    45    11    12    1
    46    34    35    1
    47    12    13   ar
    48    38    36   ar
    49    35    36    1
    50    36    37   ar
