@<TRIPOS>MOLECULE
3qju_HEM_A_1.pdb
 43 50 0 0 0
SMALL
GASTEIGER

@<TRIPOS>ATOM
      1  CHA       19.5050  -33.9090    6.0880 C.2   800  HEM800      0.0000
      2  CHB       17.8030  -38.2240    4.8650 C.2   800  HEM800      0.0000
      3  CHC       21.8390  -40.2480    6.5860 C.2   800  HEM800      0.0000
      4  CHD       23.6890  -35.8580    7.4220 C.2   800  HEM800      0.0000
      5  C1A       18.7680  -34.9030    5.4900 C.ar  800  HEM800      0.0000
      6  C2A       17.6450  -34.7010    4.5790 C.ar  800  HEM800      0.0000
      7  C3A       17.1710  -35.8990    4.2590 C.ar  800  HEM800      0.0000
      8  C4A       17.9740  -36.8790    4.9420 C.ar  800  HEM800      0.0000
      9  CMA       15.9900  -36.2150    3.3200 C.3   800  HEM800      0.0000
     10  CAA       17.0880  -33.3490    4.1150 C.3   800  HEM800      0.0000
     11  CBA       15.9550  -33.0640    5.0810 C.3   800  HEM800      0.0000
     12  CGA       15.5830  -31.6160    5.1220 C.2   800  HEM800      0.0000
     13  O1A       14.5530  -31.2760    5.7620 O.co2 800  HEM800      0.0000
     14  O2A       16.2860  -30.7800    4.5180 O.co2 800  HEM800      0.0000
     15  C1B       18.7720  -39.1290    5.1930 C.2   800  HEM800      0.0000
     16  C2B       18.7270  -40.5280    4.8020 C.2   800  HEM800      0.0000
     17  C3B       19.8470  -41.0820    5.2750 C.2   800  HEM800      0.0000
     18  C4B       20.6170  -40.0590    5.9790 C.2   800  HEM800      0.0000
     19  CMB       17.6010  -41.2380    3.9910 C.3   800  HEM800      0.0000
     20  CAB       20.2030  -42.5680    5.1270 C.2   800  HEM800      0.0000
     21  CBB       19.5790  -43.3920    5.9710 C.2   800  HEM800      0.0000
     22  C1C       22.7050  -39.2450    6.9610 C.ar  800  HEM800      0.0000
     23  C2C       24.0140  -39.3990    7.5850 C.ar  800  HEM800      0.0000
     24  C3C       24.5130  -38.1720    7.8080 C.ar  800  HEM800      0.0000
     25  C4C       23.5190  -37.2250    7.3480 C.ar  800  HEM800      0.0000
     26  CMC       24.6960  -40.7400    7.9110 C.3   800  HEM800      0.0000
     27  CAC       25.8640  -37.7180    8.4360 C.2   800  HEM800      0.0000
     28  CBC       27.0130  -38.3620    8.2630 C.2   800  HEM800      0.0000
     29  C1D       22.7260  -34.9210    7.2340 C.2   800  HEM800      0.0000
     30  C2D       22.8250  -33.5320    7.5990 C.2   800  HEM800      0.0000
     31  C3D       21.5130  -32.8920    7.1980 C.2   800  HEM800      0.0000
     32  C4D       20.7570  -34.0040    6.6210 C.2   800  HEM800      0.0000
     33  CMD       23.9920  -32.7980    8.2490 C.3   800  HEM800      0.0000
     34  CAD       21.1440  -31.4020    7.3670 C.3   800  HEM800      0.0000
     35  CBD       20.1380  -31.2280    8.5010 C.3   800  HEM800      0.0000
     36  CGD       19.9960  -29.7690    8.8760 C.2   800  HEM800      0.0000
     37  O1D       20.1130  -29.4070   10.0760 O.co2 800  HEM800      0.0000
     38  O2D       19.7660  -28.9570    7.9550 O.co2 800  HEM800      0.0000
     39  NA        18.9510  -36.2570    5.6950 N.ar  800  HEM800      0.0000
     40  NB        19.9270  -38.8640    5.9180 N.2   800  HEM800      0.0000
     41  NC        22.4290  -37.9040    6.8350 N.ar  800  HEM800      0.0000
     42  ND        21.4960  -35.1830    6.6630 N.2   800  HEM800      0.0000
     43 FE         20.7960  -37.0820    6.2470 Fe    800  HEM800      0.0000
@<TRIPOS>BOND
     1     9     7    1
     2    19    16    1
     3    10     6    1
     4    10    11    1
     5     7     6   ar
     6     7     8   ar
     7    14    12   ar
     8     6     5   ar
     9    16    15    1
    10    16    17    2
    11     2     8    2
    12     2    15    1
    13     8    39   ar
    14    11    12    1
    15    12    13   ar
    16    20    17    1
    17    20    21    2
    18    15    40    2
    19    17    18    1
    20     5    39   ar
    21     5     1    2
    22    39    43    1
    23    40    18    1
    24    40    43    1
    25    18     3    2
    26     1    32    1
    27    43    42    1
    28    43    41    1
    29     3    22    1
    30    32    42    2
    31    32    31    1
    32    42    29    1
    33    41    22   ar
    34    41    25   ar
    35    22    23   ar
    36    31    34    1
    37    31    30    2
    38    29     4    2
    39    29    30    1
    40    25     4    1
    41    25    24   ar
    42    34    35    1
    43    23    24   ar
    44    23    26    1
    45    30    33    1
    46    24    27    1
    47    38    36   ar
    48    28    27    2
    49    35    36    1
    50    36    37   ar
