@<TRIPOS>MOLECULE
3qjv_HEM_A_1.pdb
 43 50 0 0 0
SMALL
GASTEIGER

@<TRIPOS>ATOM
      1  CHA       19.7280  -33.9880    5.9990 C.2   800  HEM800      0.0000
      2  CHB       18.2930  -38.1690    4.2200 C.2   800  HEM800      0.0000
      3  CHC       22.2110  -40.1810    6.3020 C.2   800  HEM800      0.0000
      4  CHD       23.9600  -35.8580    7.3510 C.2   800  HEM800      0.0000
      5  C1A       19.0220  -34.8890    5.2760 C.ar  800  HEM800      0.0000
      6  C2A       17.8780  -34.5950    4.4050 C.ar  800  HEM800      0.0000
      7  C3A       17.4750  -35.7840    3.9280 C.ar  800  HEM800      0.0000
      8  C4A       18.3560  -36.8110    4.4740 C.ar  800  HEM800      0.0000
      9  CMA       16.3110  -36.0480    2.9650 C.3   800  HEM800      0.0000
     10  CAA       17.2390  -33.2020    4.1160 C.3   800  HEM800      0.0000
     11  CBA       16.4430  -32.7110    5.3320 C.3   800  HEM800      0.0000
     12  CGA       15.8960  -31.3130    5.1430 C.2   800  HEM800      0.0000
     13  O1A       14.8910  -30.9210    5.8050 O.co2 800  HEM800      0.0000
     14  O2A       16.4550  -30.5470    4.3170 O.co2 800  HEM800      0.0000
     15  C1B       19.2160  -39.0730    4.6970 C.2   800  HEM800      0.0000
     16  C2B       19.0930  -40.5140    4.6160 C.2   800  HEM800      0.0000
     17  C3B       20.1800  -41.0250    5.2010 C.2   800  HEM800      0.0000
     18  C4B       21.0090  -39.9550    5.6650 C.2   800  HEM800      0.0000
     19  CMB       17.9280  -41.3390    3.9790 C.3   800  HEM800      0.0000
     20  CAB       20.5250  -42.5090    5.3980 C.2   800  HEM800      0.0000
     21  CBB       19.7050  -43.2400    6.1680 C.2   800  HEM800      0.0000
     22  C1C       23.0680  -39.2040    6.6780 C.ar  800  HEM800      0.0000
     23  C2C       24.4240  -39.3820    7.1240 C.ar  800  HEM800      0.0000
     24  C3C       24.9130  -38.1630    7.4110 C.ar  800  HEM800      0.0000
     25  C4C       23.8610  -37.2080    7.1500 C.ar  800  HEM800      0.0000
     26  CMC       25.1710  -40.7330    7.2580 C.3   800  HEM800      0.0000
     27  CAC       26.3330  -37.7960    7.9360 C.2   800  HEM800      0.0000
     28  CBC       27.2150  -38.6860    8.4180 C.2   800  HEM800      0.0000
     29  C1D       22.9480  -34.9630    7.2140 C.2   800  HEM800      0.0000
     30  C2D       22.9190  -33.6070    7.7170 C.2   800  HEM800      0.0000
     31  C3D       21.5860  -33.0160    7.2760 C.2   800  HEM800      0.0000
     32  C4D       20.9700  -34.1220    6.5650 C.2   800  HEM800      0.0000
     33  CMD       23.9800  -32.8550    8.5070 C.3   800  HEM800      0.0000
     34  CAD       20.9740  -31.6060    7.4770 C.3   800  HEM800      0.0000
     35  CBD       20.7100  -31.1020    8.9070 C.3   800  HEM800      0.0000
     36  CGD       20.1830  -29.6530    8.8140 C.2   800  HEM800      0.0000
     37  O1D       19.8050  -29.0430    9.8660 O.co2 800  HEM800      0.0000
     38  O2D       20.1220  -29.1020    7.6560 O.co2 800  HEM800      0.0000
     39  NA        19.3020  -36.2220    5.3100 N.ar  800  HEM800      0.0000
     40  NB        20.3950  -38.7540    5.3440 N.2   800  HEM800      0.0000
     41  NC        22.7410  -37.8770    6.7040 N.ar  800  HEM800      0.0000
     42  ND        21.7880  -35.2500    6.5490 N.2   800  HEM800      0.0000
     43 FE         21.0570  -37.0400    6.0230 Fe    800  HEM800      0.0000
@<TRIPOS>BOND
     1     9     7    1
     2     7     6   ar
     3     7     8   ar
     4    19    16    1
     5    10     6    1
     6    10    11    1
     7     2     8    2
     8     2    15    1
     9    14    12   ar
    10     6     5   ar
    11     8    39   ar
    12    16    15    1
    13    16    17    2
    14    15    40    2
    15    12    11    1
    16    12    13   ar
    17    17    20    1
    18    17    18    1
    19     5    39   ar
    20     5     1    2
    21    39    43    1
    22    40    18    1
    23    40    43    1
    24    20    21    2
    25    18     3    2
    26     1    32    1
    27    43    42    1
    28    43    41    1
    29     3    22    1
    30    42    32    2
    31    42    29    1
    32    32    31    1
    33    22    41   ar
    34    22    23   ar
    35    41    25   ar
    36    23    26    1
    37    23    24   ar
    38    25     4    1
    39    25    24   ar
    40    29     4    2
    41    29    30    1
    42    31    34    1
    43    31    30    2
    44    24    27    1
    45    34    35    1
    46    38    36   ar
    47    30    33    1
    48    27    28    2
    49    36    35    1
    50    36    37   ar
