@<TRIPOS>MOLECULE
3qjz_QJZ_A_1.pdb
 21 23 0 0 0
SMALL
GASTEIGER

@<TRIPOS>ATOM
      1  C4        18.9300   13.9370   22.5280 C.2     1  QJZ1        0.0591
      2  C5        18.6890   12.9440   23.4950 C.2     1  QJZ1        0.1392
      3  C6        19.7450   12.1060   23.8600 C.2     1  QJZ1        0.0288
      4  C8        16.6290   13.8770   23.4510 C.2     1  QJZ1        0.2371
      5  C10       22.4830   13.3650   21.7110 C.2     1  QJZ1        0.1302
      6  C13       13.0650   14.8050   23.7370 C.3     1  QJZ1        0.0969
      7  C15       23.6010   12.6580   22.1660 C.2     1  QJZ1        0.0506
      8  C21       22.3130   15.9890   18.2390 C.3     1  QJZ1        0.0861
      9  C12       14.4930   14.8620   23.1950 C.2     1  QJZ1        0.2486
     10  O14       14.7850   15.6470   22.2930 O.2     1  QJZ1       -0.2729
     11  N11       15.3440   14.0160   23.7810 N.am    1  QJZ1       -0.1434
     12  N9        17.4230   12.9400   23.9650 N.2     1  QJZ1       -0.3782
     13  S7        17.4960   14.7690   22.3300 S.3     1  QJZ1       -0.0360
     14  C3        20.1830   14.0830   21.9400 C.2     1  QJZ1       -0.0058
     15  C1        21.0020   12.2420   23.2730 C.2     1  QJZ1       -0.0123
     16  C2        21.2270   13.2310   22.3110 C.3     1  QJZ1        0.0978
     17  N19       22.6250   14.1780   20.6480 N.2     1  QJZ1       -0.3480
     18  C16       24.8190   12.8370   21.5120 C.2     1  QJZ1        0.1133
     19  N17       24.8990   13.6620   20.4780 N.2     1  QJZ1       -0.1770
     20  C18       23.8180   14.3320   20.0410 C.1     1  QJZ1        0.1154
     21  S20       23.9520   15.4190   18.6670 S.3     1  QJZ1       -0.0295
@<TRIPOS>BOND
     1     8    21    1
     2    21    20    1
     3    20    19    2
     4    20    17    2
     5    19    18    1
     6    17     5    2
     7    18     7    2
     8     5     7    1
     9     5    16    1
    10    14    16    1
    11    14     1    2
    12    10     9    2
    13    16    15    1
    14    13     1    1
    15    13     4    1
    16     1     2    1
    17     9     6    1
    18     9    11   am
    19    15     3    2
    20     4    11    1
    21     4    12    2
    22     2     3    1
    23     2    12    2
