@<TRIPOS>MOLECULE
3qk0_QK0_A_1.pdb
 31 34 0 0 0
SMALL
GASTEIGER

@<TRIPOS>ATOM
      1  C4        20.5040   12.7750   23.9330 C.2   1103  QK01103     0.1392
      2  C5        20.8980   13.7940   23.0430 C.2   1103  QK01103     0.0591
      3  C6        22.2000   13.8610   22.5390 C.2   1103  QK01103    -0.0085
      4  C8        18.5130   13.8730   23.8250 C.2   1103  QK01103     0.2371
      5  C13       14.9600   14.9730   24.0960 C.3   1103  QK01103     0.0969
      6  C15       24.7190   13.3920   21.1370 C.ar  1103  QK01103     0.0184
      7  C17       27.0310   12.8050   21.4400 C.ar  1103  QK01103     0.1549
      8  C26       26.2920   16.9900   19.8950 C.ar  1103  QK01103     0.0226
      9  C28       24.8110   18.6810   20.7830 C.ar  1103  QK01103     0.1402
     10  C12       16.4010   15.0090   23.5690 C.2   1103  QK01103     0.2486
     11  O14       16.7240   15.8470   22.7240 O.2   1103  QK01103    -0.2729
     12  N10       17.2130   14.0850   24.1100 N.am  1103  QK01103    -0.1434
     13  N7        19.2140   12.8500   24.3290 N.2   1103  QK01103    -0.3782
     14  S9        19.5410   14.7620   22.8010 S.3   1103  QK01103    -0.0360
     15  C3        21.4560   11.8320   24.2970 C.2   1103  QK01103     0.0287
     16  C2        22.7530   11.8970   23.7970 C.2   1103  QK01103    -0.0150
     17  C1        23.1440   12.9110   22.9240 C.3   1103  QK01103     0.0683
     18  C11       24.4500   12.9100   22.4210 C.ar  1103  QK01103     0.0062
     19  C19       25.5050   12.3630   23.1530 C.ar  1103  QK01103     0.0963
     20  N18       26.7380   12.3320   22.6660 N.ar  1103  QK01103    -0.2314
     21 CL20       28.6700   12.7250   20.8740 Cl    1103  QK01103    -0.0599
     22  C16       26.0260   13.3570   20.6360 C.ar  1103  QK01103     0.1191
     23  N21       26.3440   13.8160   19.4130 N.pl3 1103  QK01103    -0.0941
     24  S22       25.4320   14.8280   18.5050 S.O2  1103  QK01103     0.0929
     25  O23       24.1030   14.2050   18.1750 O.2   1103  QK01103    -0.1483
     26  O24       26.1760   15.1370   17.2390 O.2   1103  QK01103    -0.1483
     27  C25       25.1850   16.3140   19.3770 C.ar  1103  QK01103     0.1272
     28  C27       26.1040   18.1790   20.6000 C.ar  1103  QK01103     0.0310
     29  F31       24.6350   19.8290   21.4660 F     1103  QK01103    -0.2042
     30  C29       23.7020   18.0040   20.2650 C.ar  1103  QK01103     0.0310
     31  C30       23.8900   16.8140   19.5570 C.ar  1103  QK01103     0.0226
@<TRIPOS>BOND
     1    26    24    2
     2    25    24    2
     3    24    27    1
     4    24    23    1
     5    27    31   ar
     6    27     8   ar
     7    23    22    1
     8    31    30   ar
     9     8    28   ar
    10    30     9   ar
    11    28     9   ar
    12    22     6   ar
    13    22     7   ar
    14     9    29    1
    15    21     7    1
    16     6    18   ar
    17     7    20   ar
    18    18    17    1
    19    18    19   ar
    20     3    17    1
    21     3     2    2
    22    20    19   ar
    23    11    10    2
    24    14     2    1
    25    14     4    1
    26    17    16    1
    27     2     1    1
    28    10     5    1
    29    10    12   am
    30    16    15    2
    31     4    12    1
    32     4    13    2
    33     1    15    1
    34     1    13    2
