@<TRIPOS>MOLECULE
3qk5_QK5_A_1.pdb
 34 39 0 0 0
SMALL
GASTEIGER

@<TRIPOS>ATOM
      1  N1       -10.8370   -6.8350   -4.3690 N.ar  600  QK5600     -0.2267
      2  N3       -15.3230   -1.5840   -4.7880 N.pl3 600  QK5600     -0.2433
      3  C4       -12.0070   -4.8020   -4.7260 C.ar  600  QK5600      0.0314
      4  C5       -12.5040   -5.2980   -5.9340 C.ar  600  QK5600      0.0043
      5  C6       -11.4030   -3.6950   -2.8810 C.ar  600  QK5600      0.0359
      6  C7       -12.1490   -3.5990   -4.0430 C.ar  600  QK5600     -0.0062
      7  C8       -12.9840   -2.3760   -4.4740 C.3   600  QK5600      0.0441
      8  C10      -15.1200   -1.1980   -6.2190 C.3   600  QK5600      0.1022
      9  C13      -11.2820   -2.5930   -1.8220 C.3   600  QK5600      0.0497
     10  C15      -18.0070    0.6900   -3.9510 C.2   600  QK5600      0.1516
     11  C17      -17.5050   -0.6530   -2.0420 C.2   600  QK5600      0.1144
     12  C20      -20.0780    3.4560   -5.0740 C.ar  600  QK5600      0.0066
     13  C21      -19.5980    3.2240   -6.3830 C.ar  600  QK5600      0.0295
     14  C22      -20.9920    4.4990   -4.8860 C.ar  600  QK5600      0.0005
     15  C24      -20.9300    5.0440   -7.2430 C.ar  600  QK5600      0.0005
     16  C26       -9.9390   -5.4250   -1.7860 C.3   600  QK5600      0.2137
     17  C19      -19.5690    2.6040   -4.1520 C.ar  600  QK5600      0.0096
     18  C23      -21.4190    5.2870   -5.9580 C.ar  600  QK5600      0.0000
     19  C25      -20.0160    4.0130   -7.4580 C.ar  600  QK5600      0.0065
     20  S1       -18.5250    1.9280   -6.2820 S.2   600  QK5600     -0.0843
     21  C18      -18.7050    1.6890   -4.6200 C.ar  600  QK5600      0.0600
     22  N4       -17.0400    0.0330   -4.6130 N.2   600  QK5600     -0.3370
     23  C16      -18.2690    0.3590   -2.6260 C.2   600  QK5600      0.0550
     24  N5       -16.5590   -1.2700   -2.7410 N.2   600  QK5600     -0.1698
     25  C14      -16.3180   -0.9380   -4.0280 C.1   600  QK5600      0.1480
     26  C9       -14.4700   -2.6480   -4.1950 C.3   600  QK5600      0.1065
     27  C11      -13.6350   -0.9040   -6.4780 C.3   600  QK5600      0.0226
     28  C12      -12.7470   -2.0450   -5.9670 C.3   600  QK5600      0.0079
     29  C1       -12.1400   -6.5770   -6.3340 C.ar  600  QK5600      0.0208
     30  C2       -11.2970   -7.3260   -5.5140 C.ar  600  QK5600      0.1005
     31  C3       -11.1620   -5.5960   -3.9480 C.ar  600  QK5600      0.1440
     32  N2       -10.8210   -4.9000   -2.8560 N.ar  600  QK5600     -0.3032
     33  C27       -8.7510   -4.5830   -1.5700 C.1   600  QK5600      0.0986
     34  N6        -7.8280   -3.9350   -1.4090 N.1   600  QK5600     -0.1938
@<TRIPOS>BOND
     1    19    15   ar
     2    19    13   ar
     3    15    18   ar
     4    27     8    1
     5    27    28    1
     6    13    20   ar
     7    13    12   ar
     8    29     4   ar
     9    29    30   ar
    10    20    21   ar
    11     8     2    1
    12    28     7    1
    13    18    14   ar
    14     4     3   ar
    15    30     1   ar
    16    12    14   ar
    17    12    17   ar
    18     2    26    1
    19     2    25    1
    20     3     6   ar
    21     3    31   ar
    22    21    17   ar
    23    21    10    1
    24    22    25    2
    25    22    10    2
    26     7    26    1
    27     7     6    1
    28     1    31   ar
    29     6     5   ar
    30    25    24    2
    31    10    23    1
    32    31    32   ar
    33     5    32   ar
    34     5     9    1
    35    32    16    1
    36    24    11    1
    37    23    11    2
    38    16    33    1
    39    33    34    3
