@<TRIPOS>MOLECULE
3qke_GCO_A_1.pdb
 13 12 0 0 0
SMALL
GASTEIGER

@<TRIPOS>ATOM
      1  C1         6.9870    0.2840 -105.0720 C.2   406  GCO406      0.3973
      2  C2         7.3420   -0.4910 -106.3190 C.3   406  GCO406      0.2865
      3  C3         6.3490   -0.2040 -107.4500 C.3   406  GCO406      0.2260
      4  C4         6.6630   -1.1860 -108.5800 C.3   406  GCO406      0.2180
      5  C5         5.3570   -1.6530 -109.2230 C.3   406  GCO406      0.2175
      6  C6         5.6380   -2.8820 -110.0780 C.3   406  GCO406      0.2175
      7  O11        7.8070    0.4470 -104.1880 O.co2 406  GCO406     -0.2427
      8  O12        5.7400    0.7710 -104.9480 O.co2 406  GCO406     -0.2427
      9  O2         8.6980   -0.2310 -106.7440 O.3   406  GCO406     -0.2080
     10  O3         6.4410    1.1480 -107.9240 O.3   406  GCO406     -0.2169
     11  O4         7.5150   -0.5490 -109.5350 O.3   406  GCO406     -0.2175
     12  O5         4.4330   -2.0350 -108.2020 O.3   406  GCO406     -0.2175
     13  O6         4.3930   -3.3740 -110.5740 O.3   406  GCO406     -0.2175
@<TRIPOS>BOND
     1    13     6    1
     2     6     5    1
     3    11     4    1
     4     5     4    1
     5     5    12    1
     6     4     3    1
     7    10     3    1
     8     3     2    1
     9     9     2    1
    10     2     1    1
    11     1     8   ar
    12     1     7   ar
