@<TRIPOS>MOLECULE
3qkf_GCO_A_1.pdb
 13 12 0 0 0
SMALL
GASTEIGER

@<TRIPOS>ATOM
      1  C1         7.2590    0.3380 -105.1800 C.2   406  GCO406      0.3973
      2  C2         7.5720   -0.4640 -106.4210 C.3   406  GCO406      0.2865
      3  C3         6.6670   -0.0790 -107.5900 C.3   406  GCO406      0.2260
      4  C4         6.9630   -1.0790 -108.7140 C.3   406  GCO406      0.2180
      5  C5         5.6380   -1.6070 -109.2750 C.3   406  GCO406      0.2175
      6  C6         5.9110   -2.7800 -110.2130 C.3   406  GCO406      0.2175
      7  O11        8.1110    0.5620 -104.3470 O.co2 406  GCO406     -0.2427
      8  O12        6.0170    0.7890 -104.9970 O.co2 406  GCO406     -0.2427
      9  O2         8.9490   -0.3250 -106.8200 O.3   406  GCO406     -0.2080
     10  O3         6.9240    1.2660 -108.0220 O.3   406  GCO406     -0.2169
     11  O4         7.7340   -0.4570 -109.7480 O.3   406  GCO406     -0.2175
     12  O5         4.8180   -2.0520 -108.1970 O.3   406  GCO406     -0.2175
     13  O6         4.6760   -3.4030 -110.5480 O.3   406  GCO406     -0.2175
@<TRIPOS>BOND
     1    13     6    1
     2     6     5    1
     3    11     4    1
     4     5     4    1
     5     5    12    1
     6     4     3    1
     7    10     3    1
     8     3     2    1
     9     9     2    1
    10     2     1    1
    11     1     8   ar
    12     1     7   ar
