@<TRIPOS>MOLECULE
3qkj_BTB_A_1.pdb
 14 13 0 0 0
SMALL
GASTEIGER

@<TRIPOS>ATOM
      1  C1        39.7780   52.3580   24.8370 C.3   356  BTB356      0.2017
      2  O1        39.0050   52.7160   23.6880 O.3   356  BTB356     -0.2188
      3  C2        40.9840   51.5080   24.4480 C.3   356  BTB356      0.1378
      4  C3        40.4450   50.2260   23.7910 C.3   356  BTB356      0.2017
      5  O3        41.4870   49.2940   23.4780 O.3   356  BTB356     -0.2188
      6  C4        41.6760   51.2150   25.7790 C.3   356  BTB356      0.2017
      7  O4        42.7360   50.2790   25.6250 O.3   356  BTB356     -0.2188
      8  N         41.8260   52.3120   23.5600 N.3   356  BTB356     -0.2641
      9  C5        41.6630   52.2020   22.1030 C.3   356  BTB356      0.1082
     10  C6        42.9920   51.8940   21.4120 C.3   356  BTB356      0.1993
     11  O6        43.4520   50.6060   21.8380 O.3   356  BTB356     -0.2189
     12  C7        42.6750   53.3470   24.1600 C.3   356  BTB356      0.1082
     13  C8        44.1600   53.0380   23.9770 C.3   356  BTB356      0.1993
     14  O8        44.6180   52.1700   25.0170 O.3   356  BTB356     -0.2189
@<TRIPOS>BOND
     1    10    11    1
     2    10     9    1
     3     9     8    1
     4     5     4    1
     5     8    12    1
     6     8     3    1
     7     2     1    1
     8     4     3    1
     9    13    12    1
    10    13    14    1
    11     3     1    1
    12     3     6    1
    13     7     6    1
