@<TRIPOS>MOLECULE
3qkk_SMH_A_1.pdb
 38 41 0 0 0
SMALL
GASTEIGER

@<TRIPOS>ATOM
      1  C1        24.7570    6.2360    7.7600 C.ar    1  SMH1        0.1960
      2  C2        24.3380    4.9520    8.1740 C.ar    1  SMH1        0.0451
      3  C3        25.1200    4.2430    9.1050 C.ar    1  SMH1        0.0403
      4  C4        26.2970    4.8260    9.6130 C.ar    1  SMH1        0.1412
      5  C5        26.7170    6.1140    9.1930 C.ar    1  SMH1        0.0719
      6  C6        25.9470    6.8290    8.2470 C.ar    1  SMH1        0.0479
      7  O7        27.0350    4.1350   10.5320 O.3     1  SMH1       -0.4807
      8  C8        27.7460    4.8610   11.5220 C.3     1  SMH1        0.1550
      9  C9        28.7060    5.8210   10.7800 C.3     1  SMH1        0.1105
     10  C10       27.9650    6.6790    9.7610 C.2     1  SMH1        0.1796
     11  C11       28.6050    3.8830   12.3530 C.3     1  SMH1        0.1131
     12  N12       27.8180    3.0240   13.2980 N.3     1  SMH1       -0.2676
     13  C13       26.8650    3.7760   14.1620 C.3     1  SMH1        0.0724
     14  C14       25.9260    4.7360   13.3740 C.3     1  SMH1        0.0210
     15  C15       26.7200    5.6300   12.4060 C.3     1  SMH1        0.0433
     16  O16       23.9560    6.9010    6.8730 O.3     1  SMH1       -0.2866
     17  O17       28.4820    7.7300    9.4160 O.2     1  SMH1       -0.2911
     18  C18       28.6990    2.1160   14.0680 C.3     1  SMH1        0.1070
     19  C19       29.4430    1.0710   13.2160 C.3     1  SMH1        0.1855
     20  O20       28.5690    0.5520   12.2220 O.3     1  SMH1       -0.2201
     21  C21       29.9590   -0.0870   14.0930 C.3     1  SMH1        0.1301
     22  N22       31.1240   -0.7900   13.4820 N.3     1  SMH1       -0.1503
     23  C23       30.8000   -2.0240   12.7110 C.3     1  SMH1        0.1279
     24  C24       30.4220   -3.1840   13.6670 C.3     1  SMH1        0.1612
     25  C25       32.5740    1.5190   12.6520 C.ar    1  SMH1        0.1143
     26  C26       32.6510    2.6960   13.4420 C.ar    1  SMH1       -0.0036
     27  C27       32.5150    3.9600   12.8400 C.ar    1  SMH1       -0.0030
     28  C28       32.3000    4.0450   11.4480 C.ar    1  SMH1       -0.0006
     29  C29       32.2160    2.8830   10.6490 C.ar    1  SMH1       -0.0030
     30  C30       32.3480    1.6190   11.2540 C.ar    1  SMH1       -0.0036
     31  C31       32.2530    0.3860   10.3620 C.3     1  SMH1        0.0324
     32  C32       32.8650    2.6340   14.9490 C.3     1  SMH1        0.0324
     33  S33       32.7350   -0.1170   13.4810 S.O2    1  SMH1        0.0628
     34  O34       33.1400    0.1300   14.8650 O.2     1  SMH1       -0.1528
     35  O35       33.5950   -1.0000   12.6950 O.2     1  SMH1       -0.1528
     36  O36       30.3860   -4.4050   12.9410 O.3     1  SMH1       -0.3522
     37  C37       30.3510   -6.7710   12.9130 C.3     1  SMH1        0.0346
     38  C38       30.5770   -5.5280   13.7770 C.3     1  SMH1        0.1423
@<TRIPOS>BOND
     1    16     1    1
     2     1     2   ar
     3     1     6   ar
     4     2     3   ar
     5     6     5   ar
     6     3     4   ar
     7     5     4   ar
     8     5    10    1
     9    17    10    2
    10     4     7    1
    11    10     9    1
    12    31    30    1
    13     7     8    1
    14    29    30   ar
    15    29    28   ar
    16     9     8    1
    17    30    25   ar
    18    28    27   ar
    19     8    11    1
    20     8    15    1
    21    20    19    1
    22    11    12    1
    23    15    14    1
    24    25    26   ar
    25    25    33    1
    26    35    33    2
    27    23    22    1
    28    23    24    1
    29    27    26   ar
    30    37    38    1
    31    36    24    1
    32    36    38    1
    33    19    18    1
    34    19    21    1
    35    12    18    1
    36    12    13    1
    37    14    13    1
    38    26    32    1
    39    33    22    1
    40    33    34    2
    41    22    21    1
