@<TRIPOS>MOLECULE
3qkl_SMR_A_1.pdb
 39 43 0 0 0
SMALL
GASTEIGER

@<TRIPOS>ATOM
      1  C1        -6.8730   -2.2620   17.8320 C.3     1  SMR1        0.1480
      2  C2        -6.1470   -2.9440   19.0350 C.3     1  SMR1        0.0429
      3  C3        -5.6490   -1.9180   20.0990 C.3     1  SMR1        0.0210
      4  C4        -6.8070   -0.9570   20.4900 C.3     1  SMR1        0.0724
      5  C5        -8.0290   -1.3610   18.3140 C.3     1  SMR1        0.1126
      6  O6        -5.9520   -1.3970   17.1260 O.2     1  SMR1       -0.4818
      7  C7        -4.8340   -1.9690   16.5330 C.2     1  SMR1        0.1304
      8  C8        -4.8660   -3.3400   16.1460 C.2     1  SMR1        0.0143
      9  C9        -6.1240   -4.1970   16.3720 C.3     1  SMR1        0.0331
     10  C10       -7.3510   -3.3450   16.8090 C.3     1  SMR1        0.0462
     11  C11       -3.6760   -1.1620   16.3210 C.2     1  SMR1        0.0168
     12  C12       -2.5020   -1.6930   15.7320 C.3     1  SMR1        0.0768
     13  C13       -2.5620   -3.0650   15.3660 C.2     1  SMR1        0.0863
     14  C14       -3.6860   -3.8680   15.5580 C.2     1  SMR1        0.0355
     15  N15       -1.5980   -3.8520   14.7850 N.2     1  SMR1       -0.1520
     16  N16       -2.1160   -5.1280   14.6240 N.2     1  SMR1       -0.1467
     17  C17       -3.3720   -5.1780   15.0690 C.2     1  SMR1        0.1231
     18  C18       -8.6080    0.5890   19.7720 C.3     1  SMR1        0.1070
     19  C19       -9.1600    1.4730   18.6220 C.3     1  SMR1        0.1855
     20  C20       -9.9630    2.6730   19.2040 C.3     1  SMR1        0.1301
     21  O21       -8.0240    1.8840   17.8270 O.3     1  SMR1       -0.2201
     22  N22      -10.9950    3.3480   18.3300 N.3     1  SMR1       -0.1503
     23  C23      -10.9560    4.8280   18.5770 C.3     1  SMR1        0.1279
     24  C24       -9.7970    5.5800   17.8760 C.3     1  SMR1        0.1612
     25  C25      -12.1460    0.8980   17.4030 C.ar    1  SMR1        0.1143
     26  C26      -11.5710    0.7980   16.1050 C.ar    1  SMR1       -0.0036
     27  C27      -11.2030   -0.4610   15.5840 C.ar    1  SMR1       -0.0030
     28  C28      -11.4040   -1.6210   16.3610 C.ar    1  SMR1       -0.0006
     29  C29      -11.9770   -1.5360   17.6490 C.ar    1  SMR1       -0.0030
     30  C30      -12.3450   -0.2800   18.1770 C.ar    1  SMR1       -0.0036
     31  C31      -12.9430   -0.2650   19.5720 C.3     1  SMR1        0.0324
     32  C32      -11.3260    2.0280   15.2460 C.3     1  SMR1        0.0324
     33  O33      -10.3090    6.6490   17.0650 O.3     1  SMR1       -0.3522
     34  C34       -9.3030    8.8780   17.0950 C.3     1  SMR1        0.0346
     35  C35      -10.3710    7.9320   17.6980 C.3     1  SMR1        0.1423
     36  S36      -12.5860    2.5750   18.0320 S.O2    1  SMR1        0.0628
     37  O37      -13.2550    2.5020   19.3480 O.2     1  SMR1       -0.1528
     38  O38      -13.3110    3.3220   16.9940 O.2     1  SMR1       -0.1528
     39  N39       -7.5360   -0.3480   19.3180 N.3     1  SMR1       -0.2676
@<TRIPOS>BOND
     1    16    15    1
     2    16    17    2
     3    15    13    2
     4    17    14    1
     5    32    26    1
     6    13    14    1
     7    13    12    1
     8    14     8    2
     9    27    26   ar
    10    27    28   ar
    11    12    11    1
    12    26    25   ar
    13     8     9    1
    14     8     7    1
    15    11     7    2
    16    28    29   ar
    17     9    10    1
    18     7     6    1
    19    10     1    1
    20    38    36    2
    21    33    35    1
    22    33    24    1
    23    34    35    1
    24     6     1    1
    25    25    36    1
    26    25    30   ar
    27    29    30   ar
    28    21    19    1
    29     1     5    1
    30     1     2    1
    31    24    23    1
    32    36    22    1
    33    36    37    2
    34    30    31    1
    35     5    39    1
    36    22    23    1
    37    22    20    1
    38    19    20    1
    39    19    18    1
    40     2     3    1
    41    39    18    1
    42    39     4    1
    43     3     4    1
