@<TRIPOS>MOLECULE
3qkm_SM9_A_1.pdb
 41 45 0 0 0
SMALL
GASTEIGER

@<TRIPOS>ATOM
      1  C1        28.1440    2.6070   13.9550 C.3     1  SM91        0.1069
      2  C2        28.7290    1.4580   13.1180 C.3     1  SM91        0.1855
      3  C3        29.2960    0.4010   14.0890 C.3     1  SM91        0.1301
      4  O4        27.7160    0.8850   12.3060 O.3     1  SM91       -0.2201
      5  N5        30.3940   -0.4390   13.5300 N.3     1  SM91       -0.1503
      6  C6        29.9610   -1.7740   13.0410 C.3     1  SM91        0.1279
      7  C7        29.8030   -2.7930   14.1840 C.3     1  SM91        0.1612
      8  C8        31.8910    1.5200   12.2860 C.ar    1  SM91        0.1143
      9  C9        31.9800    2.8620   12.7530 C.ar    1  SM91       -0.0036
     10  C10       31.8310    3.9340   11.8430 C.ar    1  SM91       -0.0030
     11  C11       31.5720    3.6740   10.4790 C.ar    1  SM91       -0.0006
     12  C12       31.4810    2.3470   10.0100 C.ar    1  SM91       -0.0030
     13  C13       31.6350    1.2690   10.9090 C.ar    1  SM91       -0.0036
     14  C14       31.5140   -0.1360   10.3330 C.3     1  SM91        0.0324
     15  C15       32.2380    3.2180   14.2130 C.3     1  SM91        0.0324
     16  C16       27.5100    5.5110   11.4420 C.3     1  SM91        0.0618
     17  C17       26.7490    6.4200   12.4430 C.3     1  SM91        0.0069
     18  C18       25.8360    5.6190   13.3960 C.3     1  SM91        0.0175
     19  C19       26.6680    4.5480   14.1260 C.3     1  SM91        0.0722
     20  N20       27.3920    3.6380   13.1940 N.3     1  SM91       -0.2704
     21  C21       28.2150    4.3440   12.1660 C.3     1  SM91        0.0762
     22  C22       28.5280    6.3550   10.6620 C.3     1  SM91        0.0561
     23  C23       27.7820    6.8470    9.4080 C.3     1  SM91        0.2022
     24  N24       26.5950    5.9900    9.2660 N.pl3   1  SM91       -0.1938
     25  C25       26.5820    4.9830   10.3430 C.3     1  SM91        0.2032
     26  C26       25.5190    6.3000    8.4820 C.2     1  SM91        0.3062
     27  C27       24.4000    5.4620    8.2230 C.3     1  SM91        0.1669
     28  C28       23.3660    5.9490    7.3850 C.2     1  SM91        0.0735
     29  N29       23.4640    7.1790    6.8560 N.2     1  SM91       -0.2221
     30  C30       24.5460    7.9220    7.1380 C.3     1  SM91        0.3912
     31  N31       25.5620    7.5260    7.9230 N.2     1  SM91       -0.0404
     32  C32       24.2810    4.1620    8.7710 C.2     1  SM91       -0.0085
     33  C33       23.1460    3.3610    8.4880 C.2     1  SM91       -0.0036
     34  C34       22.1210    3.8530    7.6460 C.2     1  SM91        0.0009
     35  C35       22.2340    5.1500    7.0960 C.2     1  SM91        0.0153
     36  O36       29.9950   -4.0900   13.6540 O.3     1  SM91       -0.3522
     37  C37       29.7780   -6.4560   13.9040 C.3     1  SM91        0.0346
     38  C38       29.7720   -5.0980   14.6270 C.3     1  SM91        0.1423
     39  S39       32.0670    0.1130   13.4460 S.O2    1  SM91        0.0628
     40  O40       32.4400    0.5790   14.7880 O.2     1  SM91       -0.1528
     41  O41       32.8890   -0.9520   12.8530 O.2     1  SM91       -0.1528
@<TRIPOS>BOND
     1    29    30    1
     2    29    28    2
     3    35    28    1
     4    35    34    2
     5    30    31    1
     6    28    27    1
     7    34    33    1
     8    31    26    2
     9    27    26    1
    10    27    32    1
    11    26    24    1
    12    33    32    2
    13    24    23    1
    14    24    25    1
    15    23    22    1
    16    12    11   ar
    17    12    13   ar
    18    14    13    1
    19    25    16    1
    20    11    10   ar
    21    22    16    1
    22    13     8   ar
    23    16    21    1
    24    16    17    1
    25    10     9   ar
    26    21    20    1
    27     8     9   ar
    28     8    39    1
    29     4     2    1
    30    17    18    1
    31     9    15    1
    32    41    39    2
    33     6     5    1
    34     6     7    1
    35     2     1    1
    36     2     3    1
    37    20     1    1
    38    20    19    1
    39    18    19    1
    40    39     5    1
    41    39    40    2
    42     5     3    1
    43    36     7    1
    44    36    38    1
    45    37    38    1
