@<TRIPOS>MOLECULE
3qkt_ANP_A_1.pdb
 31 33 0 0 0
SMALL
GASTEIGER

@<TRIPOS>ATOM
      1  PG         9.4770   16.8610   -2.7360 P.3   901  ANP901      0.4884
      2  O1G       10.6250   17.7240   -3.2740 O.2   901  ANP901     -0.2331
      3  O2G        9.7250   16.5850   -1.2970 O.3   901  ANP901     -0.1240
      4  O3G        8.1890   17.6370   -2.7950 O.3   901  ANP901     -0.1240
      5  PB         9.9430   14.8200   -4.7970 P.3   901  ANP901      0.4669
      6  O1B       10.6970   15.7310   -5.6720 O.3   901  ANP901     -0.1253
      7  O2B        8.8730   14.1590   -5.6780 O.2   901  ANP901     -0.2351
      8  N3B        9.2520   15.4740   -3.5260 N.3   901  ANP901     -0.0163
      9  PA        12.2520   13.1100   -5.0310 P.3   901  ANP901      0.2220
     10  O1A       12.0710   12.8680   -6.4950 O.2   901  ANP901     -0.5170
     11  O2A       13.3710   14.0030   -4.7860 O.3   901  ANP901     -0.4370
     12  O3A       10.9050   13.6510   -4.3180 O.3   901  ANP901     -0.2360
     13  O5'       12.5790   11.7550   -4.2800 O.3   901  ANP901     -0.3111
     14  C5'       11.6290   10.7250   -4.2660 C.3   901  ANP901      0.1813
     15  C4'       11.9360    9.5260   -3.4480 C.3   901  ANP901      0.1821
     16  O4'       12.9220    8.7860   -4.0610 O.3   901  ANP901     -0.3135
     17  C3'       12.5270    9.8840   -2.1510 C.3   901  ANP901      0.2184
     18  O3'       11.5040   10.0800   -1.2100 O.3   901  ANP901     -0.2174
     19  C2'       13.3260    8.7110   -1.7790 C.3   901  ANP901      0.2570
     20  O2'       12.6520    7.9400   -0.8000 O.3   901  ANP901     -0.2130
     21  C1'       13.4430    7.9290   -2.9990 C.3   901  ANP901      0.3186
     22  N9        14.7890    7.4950   -3.3720 N.pl3 901  ANP901     -0.1439
     23  C8        15.9100    8.2480   -3.4200 C.3   901  ANP901      0.3377
     24  N7        16.9180    7.4990   -3.8620 N.2   901  ANP901     -0.2095
     25  C5        16.4320    6.2590   -4.0990 C.2   901  ANP901      0.2526
     26  C6        17.0060    5.0860   -4.5510 C.2   901  ANP901      0.4393
     27  N6        18.4380    5.0420   -4.9190 N.pl3 901  ANP901      0.2180
     28  N1        16.2220    3.9980   -4.6810 N.2   901  ANP901      0.0021
     29  C2        14.9190    4.0260   -4.3830 C.3   901  ANP901      0.5254
     30  N3        14.3350    5.1360   -3.9380 N.2   901  ANP901     -0.0055
     31  C4        15.0810    6.2590   -3.7880 C.2   901  ANP901      0.3518
@<TRIPOS>BOND
     1    10     9    2
     2     7     5    2
     3     6     5    1
     4     9    11    1
     5     9    12    1
     6     9    13    1
     7    27    26    1
     8     5    12    1
     9     5     8    1
    10    28    26    2
    11    28    29    1
    12    26    25    1
    13    29    30    1
    14    13    14    1
    15    14    15    1
    16    25    24    2
    17    25    31    1
    18    16    15    1
    19    16    21    1
    20    30    31    2
    21    24    23    1
    22    31    22    1
    23     8     1    1
    24    15    17    1
    25    23    22    1
    26    22    21    1
    27     2     1    2
    28    21    19    1
    29     4     1    1
    30     1     3    1
    31    17    19    1
    32    17    18    1
    33    19    20    1
