@<TRIPOS>MOLECULE
3qkv_QKV_A_1.pdb
 18 20 0 0 0
SMALL
GASTEIGER

@<TRIPOS>ATOM
      1  N1        -8.7310   -6.0950   -1.7450 N.3   580  QKV580     -0.2446
      2  C4       -12.1340   -2.4690   -3.2710 C.ar  580  QKV580      0.1394
      3  C5       -10.7950   -5.2990   -2.6940 C.3   580  QKV580      0.0873
      4  C6        -9.0290   -3.7100   -1.8060 C.3   580  QKV580      0.0873
      5  C8        -8.8240   -4.9150   -0.8870 C.3   580  QKV580      0.0807
      6  C10      -10.7330   -3.4440   -5.1180 C.3   580  QKV580      0.1752
      7  C13      -13.2470   -1.7640   -2.8160 C.ar  580  QKV580      0.0372
      8  C15      -14.1720   -1.2660   -3.7320 C.ar  580  QKV580      0.0098
      9 BR1       -15.2320   -0.7940   -6.3410 Br    580  QKV580     -0.0490
     10  C14      -13.9790   -1.4720   -5.0980 C.ar  580  QKV580      0.0345
     11  C3       -11.9420   -2.6730   -4.6330 C.ar  580  QKV580      0.0420
     12  C11      -12.8650   -2.1770   -5.5510 C.ar  580  QKV580      0.0079
     13  O1       -11.2240   -2.9610   -2.3690 O.3   580  QKV580     -0.4586
     14  C2       -10.2080   -3.8840   -2.7640 C.3   580  QKV580      0.2318
     15  O2        -9.7420   -3.5890   -4.0900 O.3   580  QKV580     -0.3198
     16  C9        -9.7410   -6.4010   -2.7540 C.3   580  QKV580      0.0807
     17  C1        -7.6050   -7.0020   -1.5950 C.3   580  QKV580      0.2589
     18  O3        -6.6540   -6.7520   -2.6370 O.3   580  QKV580     -0.2005
@<TRIPOS>BOND
     1     9    10    1
     2    12    10   ar
     3    12    11   ar
     4     6    11    1
     5     6    15    1
     6    10     8   ar
     7    11     2   ar
     8    15    14    1
     9     8     7   ar
    10     2     7   ar
    11     2    13    1
    12    14     3    1
    13    14    13    1
    14    14     4    1
    15    16     3    1
    16    16     1    1
    17    18    17    1
    18     4     5    1
    19     1    17    1
    20     1     5    1
