@<TRIPOS>MOLECULE
3qkw_UDP_A_1.pdb
 25 26 0 0 0
SMALL
GASTEIGER

@<TRIPOS>ATOM
      1  N1       -15.1910   22.9160  -34.2320 N.am  400  UDP400     -0.1766
      2  C2       -14.0220   23.3840  -33.6490 C.1   400  UDP400      0.2845
      3  N3       -13.7580   24.7430  -33.5840 N.2   400  UDP400     -0.2452
      4  C4       -14.6570   25.6580  -34.0740 C.1   400  UDP400      0.2182
      5  C5       -15.8400   25.1820  -34.6360 C.2   400  UDP400      0.1242
      6  C6       -16.0530   23.8060  -34.8130 C.2   400  UDP400      0.0929
      7  O2       -13.1980   22.5860  -33.1980 O.2   400  UDP400     -0.1918
      8  O4       -14.4050   26.8710  -33.9880 O.2   400  UDP400     -0.2085
      9  C1'      -15.4450   21.4660  -34.2490 C.3   400  UDP400      0.2401
     10  C2'      -16.0810   21.2110  -32.8880 C.3   400  UDP400      0.2319
     11  O2'      -15.5840   20.0300  -32.3260 O.3   400  UDP400     -0.2157
     12  C3'      -17.5530   21.0670  -33.2100 C.3   400  UDP400      0.2158
     13  C4'      -17.4870   20.4190  -34.5800 C.3   400  UDP400      0.1799
     14  O4'      -16.4170   21.0780  -35.2150 O.3   400  UDP400     -0.3320
     15  O3'      -18.2450   20.2450  -32.3000 O.3   400  UDP400     -0.2175
     16  C5'      -18.7930   20.5020  -35.3480 C.3   400  UDP400      0.1813
     17  O5'      -18.5990   20.1050  -36.6870 O.3   400  UDP400     -0.3111
     18  PA       -19.7820   19.4670  -37.5660 P.3   400  UDP400      0.2231
     19  O1A      -20.8850   20.4400  -37.6600 O.3   400  UDP400     -0.4370
     20  O2A      -19.2450   19.0970  -38.8990 O.2   400  UDP400     -0.5169
     21  O3A      -20.2890   18.1410  -36.7990 O.3   400  UDP400     -0.2261
     22  PB       -21.8320   17.6620  -36.6680 P.3   400  UDP400      0.5373
     23  O1B      -21.8580   16.1800  -36.6020 O.3   400  UDP400     -0.1143
     24  O2B      -22.6210   18.1210  -37.8320 O.2   400  UDP400     -0.2221
     25  O3B      -22.4190   18.2330  -35.4310 O.3   400  UDP400     -0.1143
@<TRIPOS>BOND
     1    20    18    2
     2    24    22    2
     3    19    18    1
     4    18    21    1
     5    18    17    1
     6    21    22    1
     7    17    16    1
     8    22    23    1
     9    22    25    1
    10    16    13    1
    11    14    13    1
    12    14     9    1
    13     6     5    2
    14     6     1    1
    15     5     4    1
    16    13    12    1
    17     9     1    1
    18     9    10    1
    19     1     2   am
    20     4     8    2
    21     4     3    2
    22     2     3    2
    23     2     7    2
    24    12    10    1
    25    12    15    1
    26    10    11    1
