@<TRIPOS>MOLECULE
3qkz_NAP_A_1.pdb
 48 52 0 0 0
SMALL
GASTEIGER

@<TRIPOS>ATOM
      1  PA        -8.4940    8.7310   38.6500 P.3   350  NAP350      0.2189
      2  O1A       -7.2570    8.1050   38.9410 O.3   350  NAP350     -0.4371
      3  O2A       -9.4290    8.0780   37.8240 O.2   350  NAP350     -0.5170
      4  O5B       -8.2040   10.1780   38.1640 O.3   350  NAP350     -0.3112
      5  C5B       -9.1570   11.1050   37.7270 C.3   350  NAP350      0.1813
      6  C4B       -8.5180   12.4280   37.3380 C.3   350  NAP350      0.1820
      7  O4B       -7.5680   12.2640   36.3510 O.3   350  NAP350     -0.3136
      8  C3B       -9.4760   13.5240   36.8850 C.3   350  NAP350      0.2157
      9  O3B       -9.0680   14.7480   37.4150 O.3   350  NAP350     -0.2175
     10  C2B       -9.2370   13.5670   35.3930 C.3   350  NAP350      0.2314
     11  O2B       -9.5700   14.7940   34.8100 O.3   350  NAP350     -0.2630
     12  C1B       -7.7940   13.0630   35.2370 C.3   350  NAP350      0.3158
     13  N9A       -7.5640   12.2420   34.0450 N.pl3 350  NAP350     -0.1439
     14  C8A       -8.3090   11.2800   33.5230 C.3   350  NAP350      0.3377
     15  N7A       -7.7420   10.7860   32.4310 N.2   350  NAP350     -0.2095
     16  C5A       -6.6000   11.4060   32.2680 C.2   350  NAP350      0.2526
     17  C6A       -5.5780   11.3470   31.3210 C.2   350  NAP350      0.4393
     18  N6A       -5.5600   10.4920   30.3160 N.pl3 350  NAP350      0.2180
     19  N1A       -4.5520   12.1730   31.4990 N.2   350  NAP350      0.0021
     20  C2A       -4.5460   13.0220   32.4890 C.3   350  NAP350      0.5254
     21  N3A       -5.4620   13.0920   33.3860 N.2   350  NAP350     -0.0055
     22  C4A       -6.5100   12.3280   33.2980 C.2   350  NAP350      0.3518
     23  O3        -9.2150    9.0420   40.0180 O.3   350  NAP350     -0.2703
     24  PN       -10.6210    8.6720   40.7320 P.3   350  NAP350      0.2189
     25  O1N      -11.8100    9.3210   40.1470 O.2   350  NAP350     -0.5170
     26  O2N      -10.4460    8.8550   42.1930 O.3   350  NAP350     -0.4371
     27  O5D      -10.8980    7.0750   40.5880 O.3   350  NAP350     -0.3112
     28  C5D      -11.4680    6.4370   39.4910 C.3   350  NAP350      0.1813
     29  C4D      -12.9460    6.0890   39.8310 C.3   350  NAP350      0.1799
     30  O4D      -12.9330    5.0360   40.7520 O.3   350  NAP350     -0.3327
     31  C3D      -13.8930    7.0960   40.4340 C.3   350  NAP350      0.2158
     32  O3D      -14.4450    8.0050   39.5410 O.3   350  NAP350     -0.2175
     33  C2D      -14.9660    6.1280   40.8850 C.3   350  NAP350      0.2309
     34  O2D      -15.7250    5.6120   39.7900 O.3   350  NAP350     -0.2158
     35  C1D      -14.0930    5.0350   41.5110 C.3   350  NAP350      0.2263
     36  N1N      -13.6930    5.1450   42.9400 N.pl3 350  NAP350     -0.2787
     37  C2N      -14.1870    4.2870   43.8480 C.3   350  NAP350      0.1244
     38  C3N      -13.8180    4.3870   45.1670 C.2   350  NAP350      0.0544
     39  C7N      -14.3220    3.5040   46.2700 C.2   350  NAP350      0.2818
     40  O7N      -14.8180    2.4800   46.0900 O.2   350  NAP350     -0.2670
     41  N7N      -14.1910    3.9660   47.4530 N.am  350  NAP350     -0.0839
     42  C4N      -12.9250    5.3720   45.5360 C.2   350  NAP350      0.0033
     43  C5N      -12.4060    6.2400   44.5990 C.2   350  NAP350      0.0157
     44  C6N      -12.8080    6.0840   43.2940 C.2   350  NAP350      0.0633
     45  P2B      -10.8650   15.0160   33.9960 P.3   350  NAP350      0.5328
     46  O1X      -11.9500   14.2820   34.6160 O.3   350  NAP350     -0.1145
     47  O2X      -10.9830   16.4490   34.1430 O.3   350  NAP350     -0.1145
     48  O3X      -10.5380   14.7480   32.6610 O.2   350  NAP350     -0.2224
@<TRIPOS>BOND
     1    18    17    1
     2    17    19    2
     3    17    16    1
     4    19    20    1
     5    16    15    2
     6    16    22    1
     7    15    14    1
     8    20    21    1
     9    48    45    2
    10    22    21    2
    11    22    13    1
    12    14    13    1
    13    45    47    1
    14    45    46    1
    15    45    11    1
    16    13    12    1
    17    11    10    1
    18    12    10    1
    19    12     7    1
    20    10     8    1
    21     7     6    1
    22     8     6    1
    23     8     9    1
    24     6     5    1
    25     5     4    1
    26     3     1    2
    27     4     1    1
    28     1     2    1
    29     1    23    1
    30    28    29    1
    31    28    27    1
    32    32    31    1
    33    34    33    1
    34    29    31    1
    35    29    30    1
    36    23    24    1
    37    25    24    2
    38    31    33    1
    39    27    24    1
    40    24    26    1
    41    30    35    1
    42    33    35    1
    43    35    36    1
    44    36    44    1
    45    36    37    1
    46    44    43    2
    47    37    38    1
    48    43    42    1
    49    38    42    2
    50    38    39    1
    51    40    39    2
    52    39    41   am
