@<TRIPOS>MOLECULE
3ql0_NAP_A_1.pdb
 48 52 0 0 0
SMALL
GASTEIGER

@<TRIPOS>ATOM
      1  PA        -1.5120   31.0250   -1.0050 P.3   161  NAP161      0.2189
      2  O1A       -1.8950   29.9020   -0.1370 O.3   161  NAP161     -0.4371
      3  O2A       -1.8670   32.3850   -0.5290 O.2   161  NAP161     -0.5170
      4  O5B        0.0480   30.9800   -1.4240 O.3   161  NAP161     -0.3112
      5  C5B        0.5980   29.7630   -1.8760 C.3   161  NAP161      0.1813
      6  C4B        2.0770   30.0340   -2.0520 C.3   161  NAP161      0.1820
      7  O4B        2.6710   30.2390   -0.7880 O.3   161  NAP161     -0.3136
      8  C3B        2.8040   28.8430   -2.6710 C.3   161  NAP161      0.2157
      9  O3B        2.7610   28.8190   -4.0750 O.3   161  NAP161     -0.2175
     10  C2B        4.1800   29.0890   -2.1410 C.3   161  NAP161      0.2314
     11  O2B        4.7580   30.1950   -2.7770 O.3   161  NAP161     -0.2630
     12  C1B        3.9060   29.5830   -0.7440 C.3   161  NAP161      0.3158
     13  N9A        3.8830   28.4800    0.2140 N.pl3 161  NAP161     -0.1439
     14  C8A        2.7810   27.8560    0.7190 C.3   161  NAP161      0.3377
     15  N7A        3.1780   26.8890    1.5650 N.2   161  NAP161     -0.2095
     16  C5A        4.5320   26.8780    1.6070 C.2   161  NAP161      0.2526
     17  C6A        5.4480   26.0960    2.3100 C.2   161  NAP161      0.4393
     18  N6A        5.0660   25.1150    3.1420 N.pl3 161  NAP161      0.2180
     19  N1A        6.7900   26.3320    2.1300 N.2   161  NAP161      0.0021
     20  C2A        7.2220   27.3240    1.2800 C.3   161  NAP161      0.5254
     21  N3A        6.3180   28.1020    0.5700 N.2   161  NAP161     -0.0055
     22  C4A        4.9860   27.8720    0.7370 C.2   161  NAP161      0.3518
     23  O3        -2.1810   30.7760   -2.4520 O.3   161  NAP161     -0.2703
     24  PN        -3.5890   30.1790   -2.9200 P.3   161  NAP161      0.2189
     25  O1N       -3.5580   30.2770   -4.4070 O.2   161  NAP161     -0.5170
     26  O2N       -3.8350   28.8610   -2.3250 O.3   161  NAP161     -0.4371
     27  O5D       -4.6300   31.2300   -2.3430 O.3   161  NAP161     -0.3112
     28  C5D       -4.6090   32.5990   -2.7050 C.3   161  NAP161      0.1813
     29  C4D       -6.0340   33.0080   -3.0720 C.3   161  NAP161      0.1799
     30  O4D       -6.8720   33.0130   -1.9210 O.3   161  NAP161     -0.3327
     31  C3D       -6.1950   34.4190   -3.6460 C.3   161  NAP161      0.2158
     32  O3D       -7.2440   34.3990   -4.5860 O.3   161  NAP161     -0.2175
     33  C2D       -6.6450   35.3060   -2.5020 C.3   161  NAP161      0.2309
     34  O2D       -7.3990   36.4230   -2.9220 O.3   161  NAP161     -0.2158
     35  C1D       -7.4830   34.2870   -1.7540 C.3   161  NAP161      0.2263
     36  N1N       -7.6400   34.5180   -0.3280 N.pl3 161  NAP161     -0.2787
     37  C2N       -8.9040   34.7250    0.1310 C.3   161  NAP161      0.1244
     38  C3N       -9.1050   34.8940    1.4810 C.2   161  NAP161      0.0544
     39  C7N      -10.5080   34.8790    2.0190 C.2   161  NAP161      0.2818
     40  O7N      -10.6910   34.7670    3.3920 O.2   161  NAP161     -0.2670
     41  N7N      -11.5740   34.9520    1.2190 N.am  161  NAP161     -0.0839
     42  C4N       -8.0010   34.8640    2.3440 C.2   161  NAP161      0.0033
     43  C5N       -6.7170   34.6680    1.8480 C.2   161  NAP161      0.0157
     44  C6N       -6.5500   34.4770    0.4830 C.2   161  NAP161      0.0633
     45  P2B        6.0670   30.1940   -3.7400 P.3   161  NAP161      0.5328
     46  O1X        7.0380   29.2080   -3.1820 O.3   161  NAP161     -0.1145
     47  O2X        6.5940   31.5830   -3.7090 O.3   161  NAP161     -0.1145
     48  O3X        5.6020   29.8420   -5.1120 O.2   161  NAP161     -0.2224
@<TRIPOS>BOND
     1    48    45    2
     2    32    31    1
     3    25    24    2
     4     9     8    1
     5    45    47    1
     6    45    46    1
     7    45    11    1
     8    31    29    1
     9    31    33    1
    10    29    28    1
    11    29    30    1
    12    34    33    1
    13    24    23    1
    14    24    27    1
    15    24    26    1
    16    11    10    1
    17    28    27    1
    18     8    10    1
    19     8     6    1
    20    33    35    1
    21    23     1    1
    22    10    12    1
    23     6     5    1
    24     6     7    1
    25    30    35    1
    26     5     4    1
    27    35    36    1
    28     4     1    1
    29     1     3    2
    30     1     2    1
    31     7    12    1
    32    12    13    1
    33    36    37    1
    34    36    44    1
    35    37    38    1
    36    13    14    1
    37    13    22    1
    38    44    43    2
    39    21    22    2
    40    21    20    1
    41    14    15    1
    42    22    16    1
    43    41    39   am
    44    20    19    1
    45    38    39    1
    46    38    42    2
    47    15    16    2
    48    16    17    1
    49    43    42    1
    50    39    40    2
    51    19    17    2
    52    17    18    1
