@<TRIPOS>MOLECULE
3ql3_NAP_A_1.pdb
 48 52 0 0 0
SMALL
GASTEIGER

@<TRIPOS>ATOM
      1  PA         4.5740    8.3680  -15.5860 P.3   160  NAP160      0.2189
      2  O1A        5.6820    7.8870  -16.4420 O.2   160  NAP160     -0.5170
      3  O2A        4.1760    7.5680  -14.3930 O.3   160  NAP160     -0.4371
      4  O5B        4.8650    9.8240  -15.0330 O.3   160  NAP160     -0.3112
      5  C5B        5.2570   10.8630  -15.9690 C.3   160  NAP160      0.1813
      6  C4B        5.7440   12.0460  -15.1290 C.3   160  NAP160      0.1820
      7  O4B        6.8940   11.6680  -14.3830 O.3   160  NAP160     -0.3136
      8  C3B        6.1590   13.2790  -15.9440 C.3   160  NAP160      0.2157
      9  O3B        5.0570   14.0720  -16.3280 O.3   160  NAP160     -0.2175
     10  C2B        7.0460   13.9740  -14.9300 C.3   160  NAP160      0.2314
     11  O2B        6.2890   14.6020  -13.9060 O.3   160  NAP160     -0.2630
     12  C1B        7.7690   12.7800  -14.2950 C.3   160  NAP160      0.3158
     13  N9A        9.0350   12.5040  -14.9590 N.pl3 160  NAP160     -0.1439
     14  C8A        9.3010   11.5080  -15.8710 C.3   160  NAP160      0.3377
     15  N7A       10.6010   11.5790  -16.2490 N.2   160  NAP160     -0.2095
     16  C5A       11.1840   12.6150  -15.5850 C.2   160  NAP160      0.2526
     17  C6A       12.4880   13.1220  -15.5900 C.2   160  NAP160      0.4393
     18  N6A       13.4320   12.5820  -16.3440 N.pl3 160  NAP160      0.2180
     19  N1A       12.7760   14.2270  -14.7980 N.2   160  NAP160      0.0021
     20  C2A       11.7800   14.7980  -14.0140 C.3   160  NAP160      0.5254
     21  N3A       10.4830   14.2920  -13.9860 N.2   160  NAP160     -0.0055
     22  C4A       10.2010   13.2200  -14.7780 C.2   160  NAP160      0.3518
     23  O3         3.3210    8.7140  -16.5540 O.3   160  NAP160     -0.2703
     24  PN         2.6310    7.9050  -17.7670 P.3   160  NAP160      0.2189
     25  O1N        1.4100    8.6860  -18.0910 O.3   160  NAP160     -0.4371
     26  O2N        3.6240    7.6280  -18.8420 O.2   160  NAP160     -0.5170
     27  O5D        2.1750    6.5410  -17.0510 O.3   160  NAP160     -0.3112
     28  C5D        1.0700    6.4860  -16.1620 C.3   160  NAP160      0.1813
     29  C4D        0.1560    5.3850  -16.6780 C.3   160  NAP160      0.1799
     30  O4D        0.8780    4.1480  -16.6290 O.3   160  NAP160     -0.3327
     31  C3D       -1.1330    5.1300  -15.8610 C.3   160  NAP160      0.2158
     32  O3D       -2.1540    4.6790  -16.7500 O.3   160  NAP160     -0.2175
     33  C2D       -0.7330    4.0170  -14.9030 C.3   160  NAP160      0.2309
     34  O2D       -1.8050    3.2650  -14.3720 O.3   160  NAP160     -0.2158
     35  C1D        0.1500    3.2030  -15.8350 C.3   160  NAP160      0.2263
     36  N1N        1.0940    2.2360  -15.2330 N.pl3 160  NAP160     -0.2787
     37  C2N        0.9420    0.9180  -15.5530 C.3   160  NAP160      0.1244
     38  C3N        1.8320   -0.0280  -15.0660 C.2   160  NAP160      0.0544
     39  C7N        1.6830   -1.4810  -15.4150 C.2   160  NAP160      0.2818
     40  O7N        2.6820   -2.3450  -15.0140 O.2   160  NAP160     -0.2670
     41  N7N        0.6320   -1.9600  -16.0780 N.am  160  NAP160     -0.0839
     42  C4N        2.8680    0.4030  -14.2510 C.2   160  NAP160      0.0033
     43  C5N        2.9990    1.7570  -13.9320 C.2   160  NAP160      0.0157
     44  C6N        2.0980    2.6740  -14.4390 C.2   160  NAP160      0.0633
     45  P2B        5.9850   16.2250  -13.8810 P.3   160  NAP160      0.5328
     46  O1X        7.3210   16.8560  -14.2090 O.3   160  NAP160     -0.1145
     47  O2X        5.4860   16.5470  -12.5110 O.3   160  NAP160     -0.1145
     48  O3X        4.9130   16.5080  -14.9000 O.2   160  NAP160     -0.2224
@<TRIPOS>BOND
     1    26    24    2
     2    25    24    1
     3    24    27    1
     4    24    23    1
     5    27    28    1
     6    32    31    1
     7    29    30    1
     8    29    28    1
     9    29    31    1
    10    30    35    1
    11    23     1    1
    12     2     1    2
    13    18    17    1
    14     9     8    1
    15    15    14    1
    16    15    16    2
    17    41    39   am
    18     5     6    1
    19     5     4    1
    20     8     6    1
    21     8    10    1
    22    14    13    1
    23    31    33    1
    24    35    36    1
    25    35    33    1
    26    17    16    1
    27    17    19    2
    28     1     4    1
    29     1     3    1
    30    16    22    1
    31    37    36    1
    32    37    38    1
    33    39    38    1
    34    39    40    2
    35    36    44    1
    36     6     7    1
    37    38    42    2
    38    13    22    1
    39    13    12    1
    40    10    12    1
    41    10    11    1
    42    33    34    1
    43    48    45    2
    44    19    20    1
    45    22    21    2
    46    44    43    2
    47     7    12    1
    48    42    43    1
    49    46    45    1
    50    20    21    1
    51    11    45    1
    52    45    47    1
