@<TRIPOS>MOLECULE
3ql6_NIM_A_1.pdb
 21 22 0 0 0
SMALL
GASTEIGER

@<TRIPOS>ATOM
      1  O4       -19.5970    2.3500   26.5880 O.2   614  NIM614     -0.1261
      2  N2       -20.7580    2.0900   26.9690 N.pl3 614  NIM614      0.0578
      3  O3       -21.0000    0.8790   26.7720 O.2   614  NIM614     -0.1261
      4  C5       -21.4820    2.6270   28.0780 C.ar  614  NIM614      0.1460
      5  C4       -21.9310    3.9180   27.8300 C.ar  614  NIM614      0.0257
      6  C3       -22.6540    4.5990   28.8020 C.ar  614  NIM614      0.0228
      7  C2       -22.9280    3.9890   30.0200 C.ar  614  NIM614      0.1251
      8  N1       -23.9030    4.7880   30.6230 N.pl3 614  NIM614     -0.0975
      9  S1       -25.4110    4.9310   30.7460 S.O2  614  NIM614      0.0751
     10  O1       -25.7350    5.7070   31.9630 O.2   614  NIM614     -0.1528
     11  O2       -25.9360    5.6360   29.5570 O.2   614  NIM614     -0.1528
     12  C1       -26.1040    3.4240   30.8490 C.3   614  NIM614      0.2016
     13  C6       -21.7570    2.0190   29.2970 C.ar  614  NIM614      0.0629
     14  C7       -22.4810    2.7020   30.2670 C.ar  614  NIM614      0.1635
     15  O5       -22.7510    2.1020   31.4690 O.3   614  NIM614     -0.4521
     16  C8       -22.5230    0.7610   31.6320 C.ar  614  NIM614      0.1454
     17  C13      -22.5270    0.2050   32.9060 C.ar  614  NIM614      0.0375
     18  C12      -22.2960   -1.1550   33.0710 C.ar  614  NIM614      0.0031
     19  C11      -22.0610   -1.9600   31.9620 C.ar  614  NIM614      0.0002
     20  C10      -22.0580   -1.4040   30.6880 C.ar  614  NIM614      0.0031
     21  C9       -22.2890   -0.0440   30.5230 C.ar  614  NIM614      0.0375
@<TRIPOS>BOND
     1     1     2    2
     2     3     2    2
     3     2     4    1
     4     5     4   ar
     5     5     6   ar
     6     4    13   ar
     7     6     7   ar
     8    13    14   ar
     9    11     9    2
    10     7    14   ar
    11     7     8    1
    12    14    15    1
    13    21    20   ar
    14    21    16   ar
    15     8     9    1
    16    20    19   ar
    17     9    12    1
    18     9    10    2
    19    15    16    1
    20    16    17   ar
    21    19    18   ar
    22    17    18   ar
