@<TRIPOS>MOLECULE
3ql6_HEM_A_1.pdb
 43 50 0 0 0
SMALL
GASTEIGER

@<TRIPOS>ATOM
      1  CHA      -18.3040   -0.1240   29.2720 C.2   605  HEM605      0.0000
      2  CHB      -18.0350    4.7610   29.0260 C.2   605  HEM605      0.0000
      3  CHC      -15.9310    4.4660   24.6310 C.2   605  HEM605      0.0000
      4  CHD      -16.2590   -0.4350   24.7800 C.2   605  HEM605      0.0000
      5  C1A      -18.2950    1.1990   29.5780 C.2   605  HEM605      0.0000
      6  C2A      -18.8180    1.7110   30.8210 C.2   605  HEM605      0.0000
      7  C3A      -18.7970    3.0230   30.7200 C.2   605  HEM605      0.0000
      8  C4A      -18.1300    3.4780   29.4990 C.2   605  HEM605      0.0000
      9  CMA      -19.1520    3.9600   31.8610 C.3   605  HEM605      0.0000
     10  CAA      -19.2970    0.7810   31.9550 C.3   605  HEM605      0.0000
     11  CBA      -18.1290    0.4810   32.9380 C.3   605  HEM605      0.0000
     12  CGA      -18.5650   -0.5390   33.9620 C.2   605  HEM605      0.0000
     13  O1A      -18.0290   -1.6520   34.0670 O.co2 605  HEM605      0.0000
     14  O2A      -19.5820   -0.1520   34.7000 O.co2 605  HEM605      0.0000
     15  C1B      -17.5160    5.0730   27.7700 C.ar  605  HEM605      0.0000
     16  C2B      -17.3810    6.3880   27.2510 C.ar  605  HEM605      0.0000
     17  C3B      -16.8240    6.2900   25.9980 C.ar  605  HEM605      0.0000
     18  C4B      -16.5420    4.9310   25.7700 C.ar  605  HEM605      0.0000
     19  CMB      -17.8520    7.6870   27.9840 C.3   605  HEM605      0.0000
     20  CAB      -16.4580    7.4310   25.0280 C.2   605  HEM605      0.0000
     21  CBB      -16.3200    8.7030   25.5380 C.2   605  HEM605      0.0000
     22  C1C      -15.9340    3.1410   24.3210 C.2   605  HEM605      0.0000
     23  C2C      -15.3570    2.5740   23.1580 C.2   605  HEM605      0.0000
     24  C3C      -15.3550    1.2460   23.2270 C.2   605  HEM605      0.0000
     25  C4C      -16.0480    0.8500   24.3990 C.2   605  HEM605      0.0000
     26  CMC      -14.6950    3.5390   22.0430 C.3   605  HEM605      0.0000
     27  CAC      -15.0000    0.1820   22.2030 C.3   605  HEM605      0.0000
     28  CBC      -14.2380    0.4130   21.0380 C.3   605  HEM605      0.0000
     29  C1D      -16.9650   -0.7030   25.9980 C.ar  605  HEM605      0.0000
     30  C2D      -17.4280   -2.0320   26.3250 C.ar  605  HEM605      0.0000
     31  C3D      -18.0910   -1.9280   27.6280 C.ar  605  HEM605      0.0000
     32  C4D      -17.8310   -0.6100   28.0760 C.ar  605  HEM605      0.0000
     33  CMD      -17.3600   -3.3410   25.5780 C.3   605  HEM605      0.0000
     34  CAD      -18.7340   -3.1180   28.3550 C.3   605  HEM605      0.0000
     35  CBD      -20.2150   -3.1050   27.8980 C.3   605  HEM605      0.0000
     36  CGD      -20.9570   -4.2460   28.7130 C.2   605  HEM605      0.0000
     37  O1D      -21.5550   -3.8360   29.8200 O.co2 605  HEM605      0.0000
     38  O2D      -20.9150   -5.4980   28.3230 O.co2 605  HEM605      0.0000
     39  NA       -17.9440    2.2930   28.8450 N.2   605  HEM605      0.0000
     40  NB       -16.9800    4.2160   26.8570 N.ar  605  HEM605      0.0000
     41  NC       -16.2660    2.0370   25.1310 N.2   605  HEM605      0.0000
     42  ND       -17.2060    0.1570   27.0870 N.ar  605  HEM605      0.0000
     43 FE        -17.0190    2.1410   27.0410 Fe    605  HEM605      0.0000
@<TRIPOS>BOND
     1    28    27    1
     2    26    23    1
     3    27    24    1
     4    23    24    2
     5    23    22    1
     6    24    25    1
     7    22     3    2
     8    22    41    1
     9    25     4    1
    10    25    41    2
    11     3    18    1
    12     4    29    2
    13    20    21    2
    14    20    17    1
    15    41    43    1
    16    33    30    1
    17    18    17   ar
    18    18    40   ar
    19    29    30   ar
    20    29    42   ar
    21    17    16   ar
    22    30    31   ar
    23    40    43    1
    24    40    15   ar
    25    43    42    1
    26    43    39    1
    27    42    32   ar
    28    16    15   ar
    29    16    19    1
    30    31    32   ar
    31    31    34    1
    32    15     2    1
    33    35    34    1
    34    35    36    1
    35    32     1    2
    36    38    36   ar
    37    36    37   ar
    38    39     8    1
    39    39     5    2
    40     2     8    2
    41     1     5    1
    42     8     7    1
    43     5     6    1
    44     7     6    2
    45     7     9    1
    46     6    10    1
    47    10    11    1
    48    11    12    1
    49    12    13   ar
    50    12    14   ar
