@<TRIPOS>MOLECULE
3ql8_X01_A_1.pdb
 16 17 0 0 0
SMALL
GASTEIGER

@<TRIPOS>ATOM
      1  N01       91.7450   80.2410  -46.8380 N.2   300  X01300     -0.1811
      2  N02       90.5930   81.8030  -48.2670 N.2   300  X01300     -0.2809
      3  N03       89.7630   81.3680  -46.0550 N.2   300  X01300     -0.1665
      4  N04       88.7720   82.7930  -47.4570 N.pl3 300  X01300     -0.0342
      5  N05       96.4100   77.9140  -49.4410 N.1   300  X01300     -0.1908
      6  C06       94.5420   79.5010  -49.8180 C.ar  300  X01300      0.0693
      7  C07       94.4050   80.1290  -51.0870 C.ar  300  X01300      0.0136
      8  C09       93.3310   81.0270  -51.3280 C.ar  300  X01300      0.0435
      9  C10       92.3830   81.3080  -50.3090 C.ar  300  X01300      0.2060
     10  C11       92.5080   80.6760  -49.0110 C.ar  300  X01300      0.1141
     11  C12       93.6020   79.7700  -48.7840 C.ar  300  X01300      0.0245
     12  C13       91.5920   80.9190  -48.0080 C.1   300  X01300      0.1007
     13  C14       89.7230   81.9780  -47.2570 C.1   300  X01300      0.1930
     14  C15       90.7980   80.5150  -45.9080 C.3   300  X01300      0.2741
     15  C16       95.5390   78.6630  -49.6100 C.1   300  X01300      0.1004
     16  O17       91.3580   82.1700  -50.5750 O.3   300  X01300     -0.2858
@<TRIPOS>BOND
     1     8     7   ar
     2     8     9   ar
     3     7     6   ar
     4    16     9    1
     5     9    10   ar
     6     6    15    1
     7     6    11   ar
     8    15     5    3
     9    10    11   ar
    10    10    12    1
    11     2    12    2
    12     2    13    2
    13    12     1    2
    14     4    13    1
    15    13     3    2
    16     1    14    1
    17     3    14    1
