@<TRIPOS>MOLECULE
3qlb_EFE_A_1.pdb
 22 27 0 0 0
SMALL
GASTEIGER

@<TRIPOS>ATOM
      1  C1        61.8300  -14.4480  -12.8980 C.ar  701  EFE701      0.0000
      2  N1        62.4640  -16.5700  -10.8520 N.3   701  EFE701      0.0000
      3  O1        60.7560  -15.2430  -12.6900 O.3   701  EFE701      0.0000
      4  S1        64.9450  -15.9100  -10.6590 S.3   701  EFE701      0.0000
      5  C2        61.6710  -13.3830  -13.7650 C.ar  701  EFE701      0.0000
      6  N2        60.8640  -17.9100   -9.8810 N.4   701  EFE701      0.0000
      7  S2        62.3670  -19.6210   -8.4230 S.3   701  EFE701      0.0000
      8  C3        62.7240  -12.5190  -13.9940 C.ar  701  EFE701      0.0000
      9 FE3        60.5550  -16.3710  -11.1250 Fe    701  EFE701      0.0000
     10  C4        63.9320  -12.7270  -13.3510 C.ar  701  EFE701      0.0000
     11  C5        64.0900  -13.7930  -12.4750 C.ar  701  EFE701      0.0000
     12  C6        63.0420  -14.6680  -12.2400 C.ar  701  EFE701      0.0000
     13  C12       63.3200  -15.7260  -11.3110 C.3   701  EFE701      0.0000
     14  C13       64.5370  -17.4960   -9.9030 C.3   701  EFE701      0.0000
     15  C14       63.0650  -17.7110  -10.2540 C.3   701  EFE701      0.0000
     16  C15       62.0930  -17.9520   -9.1010 C.3   701  EFE701      0.0000
     17  C16       61.3870  -20.3650   -9.7450 C.3   701  EFE701      0.0000
     18  C17       60.5270  -19.2660  -10.4100 C.3   701  EFE701      0.0000
     19  C18       59.7310  -17.3780   -9.1130 C.3   701  EFE701      0.0000
     20  C19       60.9850  -19.1900  -11.8040 C.2   701  EFE701      0.0000
     21  O20       61.5020  -20.2270  -12.4630 O.2   701  EFE701      0.0000
     22  O21       60.8630  -17.8760  -12.3420 O.3   701  EFE701      0.0000
@<TRIPOS>UNITY_ATOM_ATTR
9 1
charge 3
@<TRIPOS>BOND
     1     8     5   ar
     2     8    10   ar
     3     5     1   ar
     4    10    11   ar
     5     1     3    1
     6     1    12   ar
     7     3     9    1
     8    11    12   ar
     9    21    20    2
    10    22    20    1
    11    22     9    1
    12    12    13    1
    13    20    18    1
    14    13     2    1
    15    13     4    1
    16     9     2    1
    17     9     6    1
    18     2    15    1
    19     4    14    1
    20    18     6    1
    21    18    17    1
    22    15    14    1
    23    15    16    1
    24     6    19    1
    25     6    16    1
    26    17     7    1
    27    16     7    1
