@<TRIPOS>MOLECULE
3qlf_PD5_A_1.pdb
 33 36 0 0 0
SMALL
GASTEIGER

@<TRIPOS>ATOM
      1  C4        10.7890  -37.2420   -5.5950 C.2   601  PD5601      0.3405
      2  C5        10.1880  -36.1890   -6.3550 C.3   601  PD5601      0.2639
      3  C6        11.0280  -35.1910   -6.8820 C.2   601  PD5601      0.4081
      4  N1        12.3820  -35.2610   -6.6550 N.2   601  PD5601     -0.0027
      5  N3        12.1350  -37.3430   -5.3470 N.2   601  PD5601     -0.0088
      6  CAA        8.4590  -40.0820   -4.7440 C.3   601  PD5601      0.0532
      7  CBE        9.7290  -39.3020   -4.3840 C.3   601  PD5601      0.1876
      8  CAB        9.7520  -38.8700   -2.9190 C.3   601  PD5601      0.0532
      9  NBF        9.7530  -38.0710   -5.2030 N.pl3 601  PD5601     -0.0839
     10  NAS        8.5540  -37.6100   -5.6590 N.2   601  PD5601     -0.0914
     11  C2        12.8180  -36.3210   -5.9120 C.3   601  PD5601      0.5248
     12  NAC       10.5360  -34.1560   -7.6140 N.pl3 601  PD5601      0.2118
     13  CBB        8.8000  -36.4910   -6.3490 C.2   601  PD5601      0.1226
     14  CAZ        7.6690  -35.8260   -6.8980 C.ar  601  PD5601      0.0183
     15  CAO        7.4790  -35.8690   -8.2690 C.ar  601  PD5601      0.0027
     16  CAM        6.3510  -35.2680   -8.7860 C.ar  601  PD5601      0.0167
     17  CAN        6.7530  -35.2990   -6.0070 C.ar  601  PD5601      0.0027
     18  CAL        5.6230  -34.6940   -6.5050 C.ar  601  PD5601      0.0167
     19  CAX        5.4480  -34.6840   -7.8850 C.ar  601  PD5601      0.0750
     20  NAT        4.2840  -34.1280   -8.4450 N.am  601  PD5601     -0.1607
     21  CAV        3.6920  -32.9870   -7.8970 C.2   601  PD5601      0.3477
     22  OAD        4.2170  -32.2880   -7.0350 O.2   601  PD5601     -0.2484
     23  NAU        2.4710  -32.6580   -8.5200 N.am  601  PD5601     -0.1607
     24  CAY        1.7840  -31.4830   -8.1360 C.ar  601  PD5601      0.0749
     25  CAP        2.4070  -30.4520   -7.4210 C.ar  601  PD5601      0.0205
     26  CAJ        0.4370  -31.4050   -8.5090 C.ar  601  PD5601      0.0166
     27  CAH       -0.2840  -30.2680   -8.1600 C.ar  601  PD5601      0.0013
     28  CAK        0.3190  -29.2340   -7.4490 C.ar  601  PD5601      0.0039
     29  CBA        1.6570  -29.3410   -7.0850 C.ar  601  PD5601      0.0727
     30  CBG        2.3180  -28.1860   -6.3010 C.3   601  PD5601      0.4186
     31  FAF        2.3550  -27.0350   -6.9960 F     601  PD5601     -0.1659
     32  FAG        1.6690  -27.8720   -5.1320 F     601  PD5601     -0.1659
     33  FAE        3.6070  -28.3990   -5.9350 F     601  PD5601     -0.1659
@<TRIPOS>BOND
     1    16    15   ar
     2    16    19   ar
     3    23    24    1
     4    23    21   am
     5    26    27   ar
     6    26    24   ar
     7    20    21   am
     8    20    19    1
     9    15    14   ar
    10    27    28   ar
    11    24    25   ar
    12    21    22    2
    13    19    18   ar
    14    12     3    1
    15    28    29   ar
    16    25    29   ar
    17    29    30    1
    18    31    30    1
    19    14    13    1
    20    14    17   ar
    21     3     4    2
    22     3     2    1
    23     4    11    1
    24    18    17   ar
    25     2    13    1
    26     2     1    1
    27    13    10    2
    28    30    33    1
    29    30    32    1
    30    11     5    1
    31    10     9    1
    32     1     5    2
    33     1     9    1
    34     9     7    1
    35     6     7    1
    36     7     8    1
