@<TRIPOS>MOLECULE
3qlg_1N1_A_1.pdb
 33 36 0 0 0
SMALL
GASTEIGER

@<TRIPOS>ATOM
      1  C1         9.9110  -34.5910   -7.6500 C.ar  601  1N1601      0.1120
      2  C2         8.9290  -35.4990   -7.5180 C.ar  601  1N1601      0.1065
      3  C3         7.5370  -35.4460   -8.1130 C.2   601  1N1601      0.2766
      4  N6        16.0090  -40.9680   -1.1720 N.3   601  1N1601     -0.2675
      5  C7         3.6930  -33.9750  -10.9020 C.ar  601  1N1601      0.0006
      6  C8         4.7380  -34.6550  -11.5210 C.ar  601  1N1601     -0.0029
      7  C9         5.9650  -34.8150  -10.8620 C.ar  601  1N1601     -0.0057
      8  C10        7.1090  -35.5640  -11.5460 C.3   601  1N1601      0.0324
      9  C11       11.9270  -37.7550   -4.9170 C.2   601  1N1601      0.2025
     10  C12       13.0770  -38.2590   -4.3130 C.3   601  1N1601      0.1532
     11  C13       12.9830  -39.4650   -3.6100 C.2   601  1N1601      0.1809
     12  C14       10.6870  -39.5920   -4.1380 C.1   601  1N1601      0.1168
     13  C15        9.3330  -40.3100   -4.0690 C.3   601  1N1601      0.1429
     14  C16       13.9150  -41.4000   -2.3550 C.3   601  1N1601      0.1102
     15  C19       15.4460  -39.4700   -3.0310 C.3   601  1N1601      0.1102
     16  C20       16.6880  -41.1420    0.1340 C.3   601  1N1601      0.1082
     17  C21       17.8060  -40.1020    0.3260 C.3   601  1N1601      0.1993
     18  N         11.9790  -36.6150   -5.6180 N.pl3 601  1N1601     -0.1613
     19  C         10.9800  -36.0970   -6.3430 C.ar  601  1N1601      0.1855
     20  N1        11.0500  -34.9160   -7.0010 N.ar  601  1N1601     -0.2208
     21  S          9.4330  -36.7750   -6.5720 S.2   601  1N1601     -0.0450
     22  N2         7.3370  -34.4350   -8.9510 N.am  601  1N1601     -0.1744
     23  C4         6.1460  -34.2900   -9.5680 C.ar  601  1N1601      0.0802
     24  C5         5.0940  -33.6140   -8.9560 C.ar  601  1N1601      0.0726
     25  C6         3.8720  -33.4530   -9.6120 C.ar  601  1N1601      0.0127
     26 CL          5.3110  -32.9740   -7.3620 Cl    601  1N1601     -0.0809
     27  O          6.6830  -36.2660   -7.7790 O.2   601  1N1601     -0.2674
     28  N3        11.7900  -40.1060   -3.5480 N.2   601  1N1601     -0.3326
     29  N4        10.7680  -38.4320   -4.8090 N.2   601  1N1601     -0.3308
     30  N5        14.0990  -40.0550   -2.9710 N.pl3 601  1N1601     -0.2831
     31  C17       14.6460  -41.4910   -1.0330 C.3   601  1N1601      0.0939
     32  C18       16.0950  -39.5780   -1.6590 C.3   601  1N1601      0.0939
     33  O1        18.4360  -40.3220    1.6100 O.3   601  1N1601     -0.2189
@<TRIPOS>BOND
     1     8     7    1
     2     6     5   ar
     3     6     7   ar
     4     5    25   ar
     5     7    23   ar
     6    25    24   ar
     7    23    24   ar
     8    23    22    1
     9    24    26    1
    10    22     3   am
    11     3    27    2
    12     3     2    1
    13     1     2   ar
    14     1    20   ar
    15     2    21   ar
    16    20    19   ar
    17    21    19   ar
    18    19    18    1
    19    18     9    1
    20     9    29    2
    21     9    10    1
    22    29    12    2
    23    10    11    1
    24    12    13    1
    25    12    28    2
    26    11    28    2
    27    11    30    1
    28    15    30    1
    29    15    32    1
    30    30    14    1
    31    14    31    1
    32    32     4    1
    33     4    31    1
    34     4    16    1
    35    16    17    1
    36    17    33    1
