@<TRIPOS>MOLECULE
3qlh_MNK_A_1.pdb
 18 19 0 0 0
SMALL
GASTEIGER

@<TRIPOS>ATOM
      1  C1         9.9860   22.2660   12.6660 C.2   1001  MNK1001     0.2368
      2  O1         9.1490   22.3560   11.5990 O.2   1001  MNK1001    -0.2831
      3  C2        10.9410   21.2070   12.5520 C.2   1001  MNK1001     0.2727
      4  O2        10.9390   20.4520   11.4960 O.2   1001  MNK1001    -0.2797
      5  C3        11.9410   20.8690   13.5040 C.2   1001  MNK1001     0.2372
      6  O3        12.7310   19.8050   13.1630 O.2   1001  MNK1001    -0.2830
      7  C4        12.1510   21.5450   14.7240 C.2   1001  MNK1001     0.0409
      8  C5        11.4930   22.6590   15.3130 C.2   1001  MNK1001    -0.0224
      9  C6        10.3820   23.4820   14.8800 C.2   1001  MNK1001    -0.0231
     10  C7         9.6930   23.2720   13.6390 C.2   1001  MNK1001     0.0338
     11  C8        12.0950   23.0280   16.6520 C.3   1001  MNK1001     0.0308
     12  C9         9.8440   24.6790   15.7430 C.3   1001  MNK1001     0.0265
     13  C10        8.9850   25.8610   15.2820 C.3   1001  MNK1001     0.0087
     14  C11        8.0630   25.3360   14.1870 C.3   1001  MNK1001     0.0265
     15  C12        8.5280   24.2070   13.2980 C.2   1001  MNK1001    -0.0232
     16  C13        9.7470   27.2100   14.9990 C.3   1001  MNK1001     0.0006
     17  C14       10.5410   27.8440   16.0760 C.3   1001  MNK1001     0.0000
     18  C15        9.6440   27.8710   13.6760 C.3   1001  MNK1001     0.0000
@<TRIPOS>BOND
     1     4     3    1
     2     2     1    1
     3     3     1    2
     4     3     5    1
     5     1    10    1
     6     6     5    1
     7    15    10    2
     8    15    14    1
     9     5     7    2
    10    10     9    1
    11    18    16    1
    12    14    13    1
    13     7     8    1
    14     9     8    2
    15     9    12    1
    16    16    13    1
    17    16    17    1
    18    13    12    1
    19     8    11    1
