@<TRIPOS>MOLECULE
3qlh_T27_A_1.pdb
 28 30 0 0 0
SMALL
GASTEIGER

@<TRIPOS>ATOM
      1  C1        49.2700  -24.7060   38.1980 C.ar  555  T27555     -0.0068
      2  N2        52.3930  -25.4830   33.2670 N.2   555  T27555     -0.1683
      3  C3        48.7290  -26.6990   39.5670 C.ar  555  T27555      0.0001
      4  C4        50.0410  -27.2130   39.3400 C.ar  555  T27555     -0.0030
      5  C5        50.9940  -26.5090   38.5490 C.ar  555  T27555     -0.0068
      6  C6        50.6010  -25.2230   37.9550 C.ar  555  T27555      0.0651
      7  C7        48.8510  -23.3760   37.5940 C.3   555  T27555      0.0324
      8  C2        48.3390  -25.4390   38.9960 C.ar  555  T27555     -0.0030
      9  C8        52.3890  -27.1380   38.3480 C.3   555  T27555      0.0324
     10  N1        51.4000  -24.4520   37.1570 N.pl3 555  T27555     -0.1834
     11  C9        52.8680  -24.2870   33.7950 C.2   555  T27555      0.1158
     12  C10       52.5760  -23.8500   35.1150 C.2   555  T27555      0.0720
     13  C11       51.7910  -24.7390   35.8790 C.2   555  T27555      0.2178
     14  N3        51.3150  -25.9030   35.3610 N.2   555  T27555     -0.3189
     15  C12       51.6190  -26.2220   34.1120 C.1   555  T27555      0.1709
     16  N4        51.1750  -27.4810   33.6270 N.pl3 555  T27555     -0.1357
     17  C13       48.9470  -30.7650   35.2270 C.ar  555  T27555      0.0685
     18  C14       49.5460  -30.8320   33.9210 C.ar  555  T27555      0.0116
     19  C15       50.2630  -29.7210   33.3920 C.ar  555  T27555      0.0180
     20  C16       50.4090  -28.5170   34.1660 C.ar  555  T27555      0.0826
     21  C17       49.8060  -28.4660   35.5050 C.ar  555  T27555      0.0180
     22  C18       49.0860  -29.5870   36.0270 C.ar  555  T27555      0.0116
     23  N5        47.6730  -32.8300   36.1850 N.1   555  T27555     -0.1908
     24  C19       48.2270  -31.9080   35.7550 C.1   555  T27555      0.1004
     25  C20       46.8820  -27.0040   41.1660 C.2   555  T27555      0.0780
     26  C21       47.8150  -27.4980   40.3760 C.2   555  T27555      0.0109
     27  N6        45.3410  -28.5990   42.4630 N.1   555  T27555     -0.1908
     28  C22       46.0450  -27.8570   41.9100 C.1   555  T27555      0.1011
@<TRIPOS>BOND
     1     2    11    1
     2     2    15    2
     3    19    18   ar
     4    19    20   ar
     5    16    15    1
     6    16    20    1
     7    11    12    2
     8    18    17   ar
     9    15    14    2
    10    20    21   ar
    11    12    13    1
    12    17    24    1
    13    17    22   ar
    14    14    13    2
    15    21    22   ar
    16    24    23    3
    17    13    10    1
    18    10     6    1
    19     7     1    1
    20     6     1   ar
    21     6     5   ar
    22     1     8   ar
    23     9     5    1
    24     5     4   ar
    25     8     3   ar
    26     4     3   ar
    27     3    26    1
    28    26    25    2
    29    25    28    1
    30    28    27    3
