@<TRIPOS>MOLECULE
3qlm_PLM_A_1.pdb
 18 17 0 0 0
SMALL
GASTEIGER

@<TRIPOS>ATOM
      1  C1       -30.8270   17.1690  -12.8580 C.2   127  PLM127      0.3649
      2  O1       -30.8180   15.9720  -13.2610 O.co2 127  PLM127     -0.2457
      3  O2       -29.8330   17.9370  -12.7330 O.co2 127  PLM127     -0.2457
      4  C2       -32.1850   17.7510  -12.4930 C.3   127  PLM127      0.1141
      5  C3       -32.5680   17.3070  -11.1040 C.3   127  PLM127      0.0118
      6  C4       -33.0890   18.5130  -10.3500 C.3   127  PLM127      0.0006
      7  C5       -32.2670   18.7500   -9.0620 C.3   127  PLM127      0.0000
      8  C6       -32.6850   17.7560   -7.9530 C.3   127  PLM127      0.0000
      9  C7       -33.9560   18.2000   -7.2040 C.3   127  PLM127      0.0000
     10  C8       -35.1320   17.1750   -7.2810 C.3   127  PLM127      0.0000
     11  C9       -36.0860   17.2120   -8.5370 C.3   127  PLM127      0.0000
     12  CA       -36.7300   18.5670   -8.8890 C.3   127  PLM127      0.0000
     13  CB       -38.2380   18.4120   -8.9770 C.3   127  PLM127      0.0000
     14  CC       -38.8060   17.6600   -7.7780 C.3   127  PLM127      0.0000
     15  CD       -38.0720   17.9210   -6.4440 C.3   127  PLM127      0.0000
     16  CE       -37.1820   19.1790   -6.4310 C.3   127  PLM127      0.0000
     17  CF       -35.9150   18.9940   -5.6210 C.3   127  PLM127      0.0000
     18  CG       -36.1760   18.2440   -4.3320 C.3   127  PLM127      0.0000
@<TRIPOS>BOND
     1     2     1   ar
     2     1     3   ar
     3     1     4    1
     4     4     5    1
     5     5     6    1
     6     6     7    1
     7     7     8    1
     8    13    12    1
     9    13    14    1
    10    12    11    1
    11    11    10    1
    12     8     9    1
    13    14    15    1
    14    10     9    1
    15    15    16    1
    16    16    17    1
    17    17    18    1
