@<TRIPOS>MOLECULE
3qlp_0G6_H_1.pdb
 30 31 0 0 0
SMALL
GASTEIGER

@<TRIPOS>ATOM
      1  N         11.7640   31.4300   24.1030 N.3     1  0G61       -0.1228
      2  CA        12.5110   32.0190   25.1900 C.3     1  0G61        0.1721
      3  C         13.6880   30.9500   25.0310 C.2     1  0G61        0.2437
      4  O         14.3550   30.4230   24.1410 O.2     1  0G61       -0.2733
      5  CB        13.1650   33.3270   24.7210 C.3     1  0G61        0.0547
      6  CG        14.0790   33.9530   25.7530 C.ar    1  0G61       -0.0202
      7  CD1       15.4160   34.0940   25.4600 C.ar    1  0G61       -0.0042
      8  CD2       13.5630   34.3970   26.9580 C.ar    1  0G61       -0.0042
      9  CE1       16.2540   34.7020   26.3760 C.ar    1  0G61       -0.0003
     10  CE2       14.4090   35.0010   27.8750 C.ar    1  0G61       -0.0003
     11  CZ        15.7580   35.1590   27.5840 C.ar    1  0G61       -0.0000
     12  N1        13.8950   30.5360   26.2810 N.am    1  0G61       -0.2718
     13  CA1       14.9330   29.5510   26.6430 C.3     1  0G61        0.1535
     14  C1        14.5400   28.1490   26.1660 C.2     1  0G61        0.2598
     15  O1        13.3830   27.7410   26.2720 O.2     1  0G61       -0.2715
     16  CB1       14.9710   29.5580   28.1740 C.3     1  0G61        0.0310
     17  CG1       14.2400   30.8480   28.5520 C.3     1  0G61        0.0237
     18  CD        13.1450   30.9190   27.4870 C.3     1  0G61        0.0939
     19  N2        15.5190   27.4470   25.6010 N.am    1  0G61       -0.1983
     20  CA2       15.3130   26.0890   25.0750 C.3     1  0G61        0.1524
     21  C2        15.9290   24.9730   25.9300 C.2     1  0G61        0.1707
     22  O2        15.4840   23.8550   25.6770 O.2     1  0G61       -0.2943
     23  CB2       15.7390   26.0050   23.6070 C.3     1  0G61        0.0329
     24  CG2       14.7730   26.7550   22.6830 C.3     1  0G61        0.0491
     25  CD3       15.3120   26.8520   21.2520 C.3     1  0G61        0.2205
     26  NE        14.2660   27.3930   20.3710 N.pl3   1  0G61       -0.0865
     27  CZ1       14.4080   27.5320   19.0540 C.cat   1  0G61        0.5346
     28  NH1       15.5420   27.2070   18.4470 N.pl3   1  0G61        0.1354
     29  NH2       13.3680   27.9020   18.3060 N.pl3   1  0G61        0.1354
     30  C3        16.1600   25.3030   27.2690 C.3     1  0G61        0.0741
@<TRIPOS>BOND
     1    29    27    1
     2    28    27    1
     3    27    26    2
     4    26    25    1
     5    25    24    1
     6    24    23    1
     7    23    20    1
     8     1     2    1
     9     4     3    2
    10     5     2    1
    11     5     6    1
    12     3     2    1
    13     3    12   am
    14    20    19    1
    15    20    21    1
    16     7     6   ar
    17     7     9   ar
    18    19    14   am
    19    22    21    2
    20     6     8   ar
    21    21    30    1
    22    14    15    2
    23    14    13    1
    24    12    13    1
    25    12    18    1
    26     9    11   ar
    27    13    16    1
    28     8    10   ar
    29    18    17    1
    30    11    10   ar
    31    16    17    1
