@<TRIPOS>MOLECULE
3qlq_MAN_A_1.pdb
 12 12 0 0 0
SMALL
GASTEIGER

@<TRIPOS>ATOM
      1  C1        17.9030    5.6200   60.1480 C.3   240  MAN240      0.3024
      2  C2        17.6740    4.1200   60.3280 C.3   240  MAN240      0.2434
      3  C3        18.1500    3.3940   59.0510 C.3   240  MAN240      0.2199
      4  C4        17.5050    3.9710   57.7900 C.3   240  MAN240      0.2144
      5  C5        17.6810    5.4830   57.7460 C.3   240  MAN240      0.1836
      6  C6        16.7650    6.1250   56.7280 C.3   240  MAN240      0.2142
      7  O1        19.3000    5.9660   60.1040 O.3   240  MAN240     -0.1869
      8  O2        16.2940    3.8640   60.7840 O.3   240  MAN240     -0.2148
      9  O3        17.8360    2.0050   59.2360 O.3   240  MAN240     -0.2174
     10  O4        18.0870    3.3940   56.6220 O.3   240  MAN240     -0.2176
     11  O5        17.2250    6.0140   58.9910 O.3   240  MAN240     -0.3236
     12  O6        15.4620    5.7320   57.1250 O.3   240  MAN240     -0.2176
@<TRIPOS>BOND
     1    10     4    1
     2     6    12    1
     3     6     5    1
     4     5     4    1
     5     5    11    1
     6     4     3    1
     7    11     1    1
     8     3     9    1
     9     3     2    1
    10     7     1    1
    11     1     2    1
    12     2     8    1
