@<TRIPOS>MOLECULE
3qlr_QLR_A_1.pdb
 26 27 0 0 0
SMALL
GASTEIGER

@<TRIPOS>ATOM
      1  N1        -2.0780    2.9850   27.9940 N.2   194  QLR194     -0.3332
      2  C2        -1.3900    2.1580   27.1790 C.1   194  QLR194      0.2419
      3  N3        -0.0670    1.9810   27.3380 N.2   194  QLR194     -0.3105
      4  C4         0.6050    2.6240   28.3250 C.2   194  QLR194      0.2282
      5  C5        -0.1000    3.4900   29.1780 C.3   194  QLR194      0.1831
      6  C6        -1.4790    3.6570   28.9830 C.2   194  QLR194      0.1207
      7  CAA        3.7400    4.9000   33.9590 C.3   194  QLR194      0.0014
      8  CAB        0.9630    9.3720   36.2280 C.3   194  QLR194      0.2526
      9  CAC       -1.4790    3.7150   35.3380 C.3   194  QLR194      0.2526
     10  CAD       -2.5840    8.4080   35.2940 C.3   194  QLR194      0.2528
     11  CAE       -2.3300    4.5670   29.8570 C.3   194  QLR194      0.0641
     12  NAF       -2.0350    1.5150   26.2150 N.pl3 194  QLR194     -0.0232
     13  NAG        1.9210    2.4340   28.4640 N.pl3 194  QLR194     -0.0955
     14  CAH        0.6040    4.1810   30.2150 C.1   194  QLR194     -0.0761
     15  CAI        1.2500    4.7410   31.0760 C.1   194  QLR194     -0.0868
     16  CAJ        1.3310    7.3410   33.5490 C.ar  194  QLR194      0.0369
     17  CAK        0.0920    5.2840   33.6590 C.ar  194  QLR194      0.0369
     18  CAL        2.9500    4.3290   32.7790 C.3   194  QLR194      0.0174
     19  OAO        0.7110    9.2180   34.8440 O.3   194  QLR194     -0.4683
     20  OAP       -1.8280    5.0800   35.0830 O.3   194  QLR194     -0.4683
     21  OAQ       -1.4760    7.6850   35.9400 O.3   194  QLR194     -0.4654
     22  CAU        1.1370    6.0310   33.1360 C.ar  194  QLR194     -0.0042
     23  CAW        0.4750    7.9100   34.4940 C.ar  194  QLR194      0.1752
     24  CAX       -0.7830    5.8340   34.5930 C.ar  194  QLR194      0.1752
     25  CAY       -0.6000    7.1560   35.0130 C.ar  194  QLR194      0.2060
     26  CAZ        2.0730    5.3940   32.1110 C.3   194  QLR194      0.0864
@<TRIPOS>BOND
     1    12     2    1
     2     2     3    2
     3     2     1    2
     4     3     4    2
     5     1     6    2
     6     4    13    1
     7     4     5    1
     8     6     5    1
     9     6    11    1
    10     5    14    1
    11    14    15    3
    12    15    26    1
    13    26    18    1
    14    26    22    1
    15    18     7    1
    16    22    16   ar
    17    22    17   ar
    18    16    23   ar
    19    17    24   ar
    20    23    19    1
    21    23    25   ar
    22    24    25   ar
    23    24    20    1
    24    19     8    1
    25    25    21    1
    26    20     9    1
    27    10    21    1
