@<TRIPOS>MOLECULE
3qlr_NAP_A_1.pdb
 48 52 0 0 0
SMALL
GASTEIGER

@<TRIPOS>ATOM
      1  PA        11.3590    7.7700   29.0040 P.3   193  NAP193      0.2189
      2  O1A       11.4360    6.9860   27.7640 O.2   193  NAP193     -0.5170
      3  O2A       10.4730    7.2150   30.0120 O.3   193  NAP193     -0.4371
      4  O5B       12.7870    7.8470   29.7380 O.3   193  NAP193     -0.3112
      5  C5B       13.9830    8.2260   29.1230 C.3   193  NAP193      0.1813
      6  C4B       15.0340    7.8710   30.1560 C.3   193  NAP193      0.1820
      7  O4B       15.1400    6.4560   30.2740 O.3   193  NAP193     -0.3136
      8  C3B       16.4240    8.3120   29.7410 C.3   193  NAP193      0.2157
      9  O3B       16.7020    9.6640   30.0270 O.3   193  NAP193     -0.2175
     10  C2B       17.2770    7.3510   30.5390 C.3   193  NAP193      0.2314
     11  O2B       17.2640    7.7590   31.8840 O.3   193  NAP193     -0.2630
     12  C1B       16.4960    6.0620   30.4710 C.3   193  NAP193      0.3158
     13  N9A       17.0370    5.2680   29.3470 N.pl3 193  NAP193     -0.1439
     14  C8A       16.8070    5.4460   28.0050 C.3   193  NAP193      0.3377
     15  N7A       17.5090    4.5260   27.3060 N.2   193  NAP193     -0.2095
     16  C5A       18.1790    3.7510   28.1860 C.2   193  NAP193      0.2526
     17  C6A       19.0380    2.6630   28.0200 C.2   193  NAP193      0.4393
     18  N6A       19.3450    2.1890   26.8000 N.pl3 193  NAP193      0.2180
     19  N1A       19.5900    2.0870   29.1460 N.2   193  NAP193      0.0021
     20  C2A       19.2970    2.5750   30.4070 C.3   193  NAP193      0.5254
     21  N3A       18.4370    3.6430   30.5590 N.2   193  NAP193     -0.0055
     22  C4A       17.8930    4.2160   29.4660 C.2   193  NAP193      0.3518
     23  O3        11.0300    9.2980   28.6740 O.3   193  NAP193     -0.2703
     24  PN        10.6540   10.1350   27.3590 P.3   193  NAP193      0.2189
     25  O1N       10.7210   11.5780   27.6910 O.3   193  NAP193     -0.4371
     26  O2N       11.3750    9.6150   26.1910 O.2   193  NAP193     -0.5170
     27  O5D        9.0820    9.7690   27.2280 O.3   193  NAP193     -0.3112
     28  C5D        8.1120   10.5670   27.8830 C.3   193  NAP193      0.1813
     29  C4D        6.8870   10.7690   27.0000 C.3   193  NAP193      0.1799
     30  O4D        6.3050    9.5120   26.6960 O.3   193  NAP193     -0.3327
     31  C3D        5.8120   11.5920   27.7160 C.3   193  NAP193      0.2158
     32  O3D        5.3970   12.6640   26.9050 O.3   193  NAP193     -0.2175
     33  C2D        4.6700   10.6130   27.9380 C.3   193  NAP193      0.2309
     34  O2D        3.3940   11.2000   27.8230 O.3   193  NAP193     -0.2158
     35  C1D        4.9000    9.5820   26.8450 C.3   193  NAP193      0.2263
     36  N1N        4.2690    8.2910   27.1940 N.pl3 193  NAP193     -0.2787
     37  C2N        3.1760    7.9310   26.4570 C.3   193  NAP193      0.1244
     38  C3N        2.5020    6.7460   26.7030 C.2   193  NAP193      0.0544
     39  C7N        1.3230    6.4140   25.8450 C.2   193  NAP193      0.2818
     40  O7N        0.7290    5.1570   25.9600 O.2   193  NAP193     -0.2670
     41  N7N        0.8610    7.3210   24.9780 N.am  193  NAP193     -0.0839
     42  C4N        2.9510    5.9000   27.7270 C.2   193  NAP193      0.0033
     43  C5N        4.0650    6.2800   28.4810 C.2   193  NAP193      0.0157
     44  C6N        4.7230    7.4760   28.2030 C.2   193  NAP193      0.0633
     45  P2B       18.4410    8.6290   32.5210 P.3   193  NAP193      0.5328
     46  O1X       18.1740    8.6740   34.0110 O.3   193  NAP193     -0.1145
     47  O2X       19.7260    7.9280   32.2060 O.3   193  NAP193     -0.1145
     48  O3X       18.4320   10.0230   31.9580 O.2   193  NAP193     -0.2224
@<TRIPOS>BOND
     1    41    39   am
     2    39    40    2
     3    39    38    1
     4    26    24    2
     5    37    38    1
     6    37    36    1
     7    30    35    1
     8    30    29    1
     9    38    42    2
    10    18    17    1
    11    35    36    1
    12    35    33    1
    13    32    31    1
    14    29    31    1
    15    29    28    1
    16    36    44    1
    17    27    24    1
    18    27    28    1
    19    15    14    1
    20    15    16    2
    21    24    25    1
    22    24    23    1
    23    31    33    1
    24    42    43    1
    25     2     1    2
    26    34    33    1
    27    14    13    1
    28    17    16    1
    29    17    19    2
    30    16    22    1
    31    44    43    2
    32    23     1    1
    33     1     4    1
    34     1     3    1
    35     5     4    1
    36     5     6    1
    37    19    20    1
    38    13    22    1
    39    13    12    1
    40    22    21    2
    41     8     9    1
    42     8     6    1
    43     8    10    1
    44     6     7    1
    45     7    12    1
    46    20    21    1
    47    12    10    1
    48    10    11    1
    49    11    45    1
    50    48    45    2
    51    47    45    1
    52    45    46    1
