@<TRIPOS>MOLECULE
3qls_55V_A_1.pdb
 26 27 0 0 0
SMALL
GASTEIGER

@<TRIPOS>ATOM
      1  C1P       -1.3790    3.5800   35.7770 C.3   194  55V194      0.2526
      2  O1O       -1.9080    4.8420   35.3560 O.3   194  55V194     -0.4683
      3  C1N       -0.9110    5.6250   34.8440 C.ar  194  55V194      0.1752
      4  C1M       -0.0580    5.1110   33.8570 C.ar  194  55V194      0.0369
      5  C1Q       -0.7380    6.9370   35.3080 C.ar  194  55V194      0.2060
      6  O1V       -1.5740    7.4600   36.2760 O.3   194  55V194     -0.4654
      7  C1W       -1.0960    7.1250   37.5910 C.3   194  55V194      0.2528
      8  C1R        0.2720    7.7330   34.7730 C.ar  194  55V194      0.1752
      9  O1T        0.4290    9.0140   35.2510 O.3   194  55V194     -0.4683
     10  C1U        0.9840    9.9250   34.2770 C.3   194  55V194      0.2526
     11  C1S        1.1270    7.2090   33.7880 C.ar  194  55V194      0.0369
     12  C1L        0.9560    5.9000   33.3190 C.ar  194  55V194     -0.0054
     13  C1J        1.9010    5.3150   32.2360 C.3   194  55V194      0.0729
     14  C1K        2.8590    4.3170   32.8940 C.3   194  55V194      0.0174
     15  C1X        2.6870    6.4420   31.5690 C.3   194  55V194      0.0174
     16  C1I        1.1430    4.6050   31.1840 C.1   194  55V194     -0.0880
     17  C1H        0.5390    3.9910   30.2980 C.1   194  55V194     -0.0761
     18  C5        -0.1390    3.2780   29.2510 C.3   194  55V194      0.1831
     19  C4        -1.5170    3.4250   29.0550 C.2   194  55V194      0.1207
     20  C1Y       -2.3560    4.3500   29.9420 C.3   194  55V194      0.0641
     21  N3        -2.1190    2.7390   28.0720 N.2   194  55V194     -0.3332
     22  C2        -1.4280    1.9040   27.2750 C.1   194  55V194      0.2419
     23  N1Z       -2.0640    1.2450   26.3140 N.pl3 194  55V194     -0.0232
     24  N1        -0.1020    1.7410   27.4360 N.2   194  55V194     -0.3105
     25  C6         0.5610    2.4040   28.4040 C.2   194  55V194      0.2282
     26  N1G        1.8740    2.2210   28.5370 N.pl3 194  55V194     -0.0955
@<TRIPOS>BOND
     1    23    22    1
     2    22    24    2
     3    22    21    2
     4    24    25    2
     5    21    19    2
     6    25    26    1
     7    25    18    1
     8    19    18    1
     9    19    20    1
    10    18    17    1
    11    17    16    3
    12    16    13    1
    13    15    13    1
    14    13    14    1
    15    13    12    1
    16    12    11   ar
    17    12     4   ar
    18    11     8   ar
    19     4     3   ar
    20    10     9    1
    21     8     9    1
    22     8     5   ar
    23     3     5   ar
    24     3     2    1
    25     5     6    1
    26     2     1    1
    27     6     7    1
