@<TRIPOS>MOLECULE
3qls_NAP_A_1.pdb
 48 52 0 0 0
SMALL
GASTEIGER

@<TRIPOS>ATOM
      1  PA        11.3070    7.5360   28.8940 P.3   193  NAP193      0.2189
      2  O1A       11.4100    6.6040   27.7470 O.2   193  NAP193     -0.5170
      3  O2A       10.2010    7.1870   29.7990 O.3   193  NAP193     -0.4371
      4  O5B       12.6640    7.5870   29.7250 O.3   193  NAP193     -0.3112
      5  C5B       13.8710    7.9130   29.0860 C.3   193  NAP193      0.1813
      6  C4B       14.9480    7.5920   30.0870 C.3   193  NAP193      0.1820
      7  O4B       15.0930    6.1860   30.2260 O.3   193  NAP193     -0.3136
      8  C3B       16.3110    8.1010   29.6750 C.3   193  NAP193      0.2157
      9  O3B       16.4540    9.4660   29.9790 O.3   193  NAP193     -0.2175
     10  C2B       17.2040    7.1850   30.4850 C.3   193  NAP193      0.2314
     11  O2B       17.1850    7.5540   31.8480 O.3   193  NAP193     -0.2630
     12  C1B       16.4600    5.8640   30.4060 C.3   193  NAP193      0.3158
     13  N9A       16.9640    5.0730   29.2600 N.pl3 193  NAP193     -0.1439
     14  C8A       16.6870    5.2560   27.9270 C.3   193  NAP193      0.3377
     15  N7A       17.3730    4.3270   27.2150 N.2   193  NAP193     -0.2095
     16  C5A       18.0780    3.5590   28.0770 C.2   193  NAP193      0.2526
     17  C6A       18.9440    2.4800   27.8960 C.2   193  NAP193      0.4393
     18  N6A       19.2030    1.9970   26.6750 N.pl3 193  NAP193      0.2180
     19  N1A       19.5270    1.8930   29.0030 N.2   193  NAP193      0.0021
     20  C2A       19.2650    2.3840   30.2660 C.3   193  NAP193      0.5254
     21  N3A       18.4130    3.4480   30.4360 N.2   193  NAP193     -0.0055
     22  C4A       17.8290    4.0280   29.3600 C.2   193  NAP193      0.3518
     23  O3        11.2070    9.0440   28.3840 O.3   193  NAP193     -0.2703
     24  PN        10.5300    9.8040   27.1450 P.3   193  NAP193      0.2189
     25  O1N       10.5620   11.2490   27.4920 O.3   193  NAP193     -0.4371
     26  O2N       11.1360    9.3260   25.8850 O.2   193  NAP193     -0.5170
     27  O5D        8.9950    9.3120   27.1970 O.3   193  NAP193     -0.3112
     28  C5D        8.1010    9.9070   28.1170 C.3   193  NAP193      0.1813
     29  C4D        6.8710   10.3970   27.3660 C.3   193  NAP193      0.1799
     30  O4D        6.1580    9.2850   26.8210 O.3   193  NAP193     -0.3327
     31  C3D        5.9060   11.1330   28.2830 C.3   193  NAP193      0.2158
     32  O3D        5.3520   12.2100   27.5460 O.3   193  NAP193     -0.2175
     33  C2D        4.8360   10.1060   28.5660 C.3   193  NAP193      0.2309
     34  O2D        3.5860   10.7000   28.8510 O.3   193  NAP193     -0.2158
     35  C1D        4.8090    9.3380   27.2600 C.3   193  NAP193      0.2263
     36  N1N        4.2170    8.0020   27.4050 N.pl3 193  NAP193     -0.2787
     37  C2N        3.1250    7.7240   26.6370 C.3   193  NAP193      0.1244
     38  C3N        2.5050    6.4930   26.7180 C.2   193  NAP193      0.0544
     39  C7N        1.2440    6.2720   25.9500 C.2   193  NAP193      0.2818
     40  O7N        0.6960    4.9830   25.9000 O.2   193  NAP193     -0.2670
     41  N7N        0.6680    7.3100   25.3370 N.am  193  NAP193     -0.0839
     42  C4N        2.9980    5.5220   27.6000 C.2   193  NAP193      0.0033
     43  C5N        4.1160    5.8160   28.3790 C.2   193  NAP193      0.0157
     44  C6N        4.7200    7.0690   28.2770 C.2   193  NAP193      0.0633
     45  P2B       18.3070    8.4890   32.5080 P.3   193  NAP193      0.5328
     46  O1X       18.0820    8.4860   33.9940 O.3   193  NAP193     -0.1145
     47  O2X       19.6600    7.9350   32.1740 O.3   193  NAP193     -0.1145
     48  O3X       18.1440    9.8890   31.9570 O.2   193  NAP193     -0.2224
@<TRIPOS>BOND
     1    41    39   am
     2    26    24    2
     3    40    39    2
     4    39    38    1
     5    37    38    1
     6    37    36    1
     7    18    17    1
     8    38    42    2
     9    30    35    1
    10    30    29    1
    11    24    27    1
    12    24    25    1
    13    24    23    1
    14    27    28    1
    15    15    14    1
    16    15    16    2
    17    35    36    1
    18    35    33    1
    19    29    28    1
    20    29    31    1
    21    36    44    1
    22    32    31    1
    23    42    43    1
    24     2     1    2
    25    17    16    1
    26    17    19    2
    27    14    13    1
    28    16    22    1
    29    44    43    2
    30    31    33    1
    31    23     1    1
    32    33    34    1
    33     1     4    1
    34     1     3    1
    35    19    20    1
    36     5     4    1
    37     5     6    1
    38    13    22    1
    39    13    12    1
    40    22    21    2
    41     8     9    1
    42     8     6    1
    43     8    10    1
    44     6     7    1
    45     7    12    1
    46    20    21    1
    47    12    10    1
    48    10    11    1
    49    11    45    1
    50    48    45    2
    51    47    45    1
    52    45    46    1
