@<TRIPOS>MOLECULE
3qlw_N22_A_1.pdb
 23 24 0 0 0
SMALL
GASTEIGER

@<TRIPOS>ATOM
      1  C8        17.9830   47.6530   -4.5010 C.3   194  N22194      0.0076
      2  C7        16.8940   46.6160   -4.2470 C.3   194  N22194      0.0569
      3  C5        17.4540   45.4250   -3.4630 C.2   194  N22194      0.1203
      4  N4        18.0090   44.3810   -4.2260 N.2   194  N22194     -0.3332
      5  C3        18.5420   43.2470   -3.6080 C.1   194  N22194      0.2419
      6  N8        19.0590   42.2620   -4.3270 N.pl3 194  N22194     -0.0232
      7  N2        18.5240   43.1510   -2.2200 N.2   194  N22194     -0.3105
      8  C1        17.9790   44.1770   -1.4520 C.2   194  N22194      0.2282
      9  N7        17.9760   44.0540   -0.1280 N.pl3 194  N22194     -0.0955
     10  C6        17.4460   45.3100   -2.0690 C.3   194  N22194      0.1831
     11  C9        16.8940   46.3420   -1.2440 C.1   194  N22194     -0.0760
     12  C10       16.4330   47.2030   -0.5030 C.1   194  N22194     -0.0853
     13  C11       15.8730   48.2480    0.3670 C.3   194  N22194      0.1054
     14  C13       15.2210   49.3380   -0.4870 C.ar  194  N22194      0.0278
     15  C18       14.1890   48.9270   -1.3290 C.ar  194  N22194      0.0366
     16  C17       13.5320   49.8310   -2.1600 C.ar  194  N22194      0.1386
     17  O2        12.5210   49.4000   -2.9720 O.3   194  N22194     -0.4714
     18  C4        13.0020   48.6800   -4.1320 C.3   194  N22194      0.2525
     19  C16       13.9030   51.1760   -2.1450 C.ar  194  N22194      0.0400
     20  C15       14.9350   51.6020   -1.3040 C.ar  194  N22194      0.0397
     21  C14       15.6000   50.6880   -0.4760 C.ar  194  N22194      0.1358
     22  O10       16.6130   51.0880    0.3650 O.3   194  N22194     -0.4717
     23  C2        17.2170   52.3590    0.0590 C.3   194  N22194      0.2525
@<TRIPOS>BOND
     1     1     2    1
     2     6     5    1
     3     2     3    1
     4     4     5    2
     5     4     3    2
     6    18    17    1
     7     5     7    2
     8     3    10    1
     9    17    16    1
    10     7     8    2
    11    16    19   ar
    12    16    15   ar
    13    19    20   ar
    14    10     8    1
    15    10    11    1
    16     8     9    1
    17    15    14   ar
    18    20    21   ar
    19    11    12    3
    20    12    13    1
    21    14    21   ar
    22    14    13    1
    23    21    22    1
    24    23    22    1
