@<TRIPOS>MOLECULE
3qlw_NAP_A_1.pdb
 48 52 0 0 0
SMALL
GASTEIGER

@<TRIPOS>ATOM
      1  PA        20.0970   49.3930    8.9380 P.3   193  NAP193      0.2189
      2  O1A       20.7600   48.0830    9.1210 O.3   193  NAP193     -0.4371
      3  O2A       19.0810   49.3350    7.8700 O.2   193  NAP193     -0.5170
      4  O5B       19.4460   49.9010   10.3150 O.3   193  NAP193     -0.3112
      5  C5B       20.2060   49.9190   11.5020 C.3   193  NAP193      0.1813
      6  C4B       19.2320   49.9410   12.6660 C.3   193  NAP193      0.1820
      7  O4B       18.6020   48.6830   12.8120 O.3   193  NAP193     -0.3136
      8  C3B       19.9000   50.2180   13.9980 C.3   193  NAP193      0.2157
      9  O3B       20.0470   51.5990   14.2210 O.3   193  NAP193     -0.2175
     10  C2B       18.9390   49.5710   14.9720 C.3   193  NAP193      0.2314
     11  O2B       17.8450   50.4210   15.2290 O.3   193  NAP193     -0.2630
     12  C1B       18.3830   48.3990   14.1810 C.3   193  NAP193      0.3158
     13  N9A       19.0280   47.1230   14.5360 N.pl3 193  NAP193     -0.1439
     14  C8A       20.2960   46.7080   14.2080 C.3   193  NAP193      0.3377
     15  N7A       20.4950   45.4710   14.7130 N.2   193  NAP193     -0.2095
     16  C5A       19.3720   45.0860   15.3570 C.2   193  NAP193      0.2526
     17  C6A       19.0330   43.9250   16.0450 C.2   193  NAP193      0.4393
     18  N6A       19.9120   42.9320   16.1550 N.pl3 193  NAP193      0.2180
     19  N1A       17.7770   43.8100   16.6120 N.2   193  NAP193      0.0021
     20  C2A       16.8670   44.8480   16.4930 C.3   193  NAP193      0.5254
     21  N3A       17.2090   45.9970   15.8080 N.2   193  NAP193     -0.0055
     22  C4A       18.4400   46.1150   15.2490 C.2   193  NAP193      0.3518
     23  O3        21.1790   50.5420    8.6250 O.3   193  NAP193     -0.2703
     24  PN        22.7100   50.4680    8.1510 P.3   193  NAP193      0.2189
     25  O1N       23.2710   51.8380    8.2170 O.2   193  NAP193     -0.5170
     26  O2N       23.3680   49.3700    8.8850 O.3   193  NAP193     -0.4371
     27  O5D       22.5870   50.0420    6.6070 O.3   193  NAP193     -0.3112
     28  C5D       22.0500   50.9390    5.6560 C.3   193  NAP193      0.1813
     29  C4D       22.9410   50.9620    4.4200 C.3   193  NAP193      0.1799
     30  O4D       22.8120   49.7400    3.7190 O.3   193  NAP193     -0.3327
     31  C3D       22.5500   52.0710    3.4570 C.3   193  NAP193      0.2158
     32  O3D       23.7240   52.6830    2.9720 O.3   193  NAP193     -0.2175
     33  C2D       21.8390   51.3580    2.3260 C.3   193  NAP193      0.2309
     34  O2D       22.0670   51.9970    1.0920 O.3   193  NAP193     -0.2158
     35  C1D       22.4710   49.9750    2.3630 C.3   193  NAP193      0.2263
     36  N1N       21.5880   48.9170    1.8320 N.pl3 193  NAP193     -0.2787
     37  C2N       22.0170   48.2210    0.7370 C.3   193  NAP193      0.1244
     38  C3N       21.2390   47.2030    0.1880 C.2   193  NAP193      0.0544
     39  C7N       21.6910   46.5090   -1.0670 C.2   193  NAP193      0.2818
     40  O7N       21.0450   45.3270   -1.4760 O.2   193  NAP193     -0.2670
     41  N7N       22.6970   47.0270   -1.7740 N.am  193  NAP193     -0.0839
     42  C4N       20.0120   46.8950    0.7740 C.2   193  NAP193      0.0033
     43  C5N       19.5840   47.6070    1.8950 C.2   193  NAP193      0.0157
     44  C6N       20.3840   48.6170    2.4200 C.2   193  NAP193      0.0633
     45  P2B       17.7970   51.4320   16.4770 P.3   193  NAP193      0.5328
     46  O1X       16.5350   52.2590   16.3650 O.2   193  NAP193     -0.2224
     47  O2X       17.7840   50.6440   17.7650 O.3   193  NAP193     -0.1145
     48  O3X       18.9910   52.3590   16.4240 O.3   193  NAP193     -0.1145
@<TRIPOS>BOND
     1    41    39   am
     2    40    39    2
     3    39    38    1
     4    38    37    1
     5    38    42    2
     6    37    36    1
     7    42    43    1
     8    34    33    1
     9    36    35    1
    10    36    44    1
    11    43    44    2
    12    33    35    1
    13    33    31    1
    14    35    30    1
    15    32    31    1
    16    31    29    1
    17    30    29    1
    18    29    28    1
    19    28    27    1
    20    27    24    1
    21     3     1    2
    22    24    25    2
    23    24    23    1
    24    24    26    1
    25    23     1    1
    26     1     2    1
    27     1     4    1
    28     4     5    1
    29     5     6    1
    30     6     7    1
    31     6     8    1
    32     7    12    1
    33     8     9    1
    34     8    10    1
    35    12    13    1
    36    12    10    1
    37    14    13    1
    38    14    15    1
    39    13    22    1
    40    15    16    2
    41    10    11    1
    42    11    45    1
    43    22    16    1
    44    22    21    2
    45    16    17    1
    46    21    20    1
    47    17    18    1
    48    17    19    2
    49    46    45    2
    50    48    45    1
    51    45    47    1
    52    20    19    1
