@<TRIPOS>MOLECULE
3qlx_QLR_A_1.pdb
 26 27 0 0 0
SMALL
GASTEIGER

@<TRIPOS>ATOM
      1  N1        10.9120   -5.2770    3.9270 N.2   229  QLR229     -0.3332
      2  C2        10.4660   -4.7340    2.7880 C.1   229  QLR229      0.2419
      3  N3        11.1740   -4.8540    1.6360 N.2   229  QLR229     -0.3105
      4  C4        12.3210   -5.5670    1.5900 C.2   229  QLR229      0.2282
      5  C5        12.8210   -6.1080    2.7920 C.3   229  QLR229      0.1831
      6  C6        12.0810   -5.9540    3.9630 C.2   229  QLR229      0.1207
      7  CAA       16.4190   -9.7280    1.0960 C.3   229  QLR229      0.0014
      8  CAB       18.6050   -9.7210    7.7980 C.3   229  QLR229      0.2526
      9  CAC       13.1020  -11.9860    5.1150 C.3   229  QLR229      0.2526
     10  CAD       15.8440  -12.4950    7.9460 C.3   229  QLR229      0.2528
     11  CAE       12.5780   -6.5860    5.2900 C.3   229  QLR229      0.0641
     12  NAF        9.3000   -4.0780    2.8040 N.pl3 229  QLR229     -0.0232
     13  NAG       12.9990   -5.6830    0.4340 N.pl3 229  QLR229     -0.0955
     14  CAH       14.0320   -6.8640    2.8560 C.1   229  QLR229     -0.0761
     15  CAI       15.0710   -7.4990    2.9810 C.1   229  QLR229     -0.0868
     16  CAJ       17.4210   -9.5290    5.0320 C.ar  229  QLR229      0.0369
     17  CAK       15.3660  -10.3760    4.0880 C.ar  229  QLR229      0.0369
     18  CAL       17.0060   -8.5140    1.8080 C.3   229  QLR229      0.0174
     19  OAO       18.5500  -10.7470    6.7900 O.3   229  QLR229     -0.4683
     20  OAP       14.4550  -12.4600    4.9090 O.3   229  QLR229     -0.4683
     21  OAQ       16.5400  -12.6970    6.6810 O.3   229  QLR229     -0.4654
     22  CAU       16.3550   -9.4000    4.1360 C.ar  229  QLR229     -0.0042
     23  CAW       17.4850  -10.6180    5.9150 C.ar  229  QLR229      0.1752
     24  CAX       15.4150  -11.4660    4.9660 C.ar  229  QLR229      0.1752
     25  CAY       16.4850  -11.5960    5.8650 C.ar  229  QLR229      0.2060
     26  CAZ       16.3560   -8.2010    3.1660 C.3   229  QLR229      0.0864
@<TRIPOS>BOND
     1    13     4    1
     2     7    18    1
     3     4     3    2
     4     4     5    1
     5     3     2    2
     6    18    26    1
     7     2    12    1
     8     2     1    2
     9     5    14    1
    10     5     6    1
    11    14    15    3
    12    15    26    1
    13    26    22    1
    14     1     6    2
    15     6    11    1
    16    17    22   ar
    17    17    24   ar
    18    22    16   ar
    19    20    24    1
    20    20     9    1
    21    24    25   ar
    22    16    23   ar
    23    25    23   ar
    24    25    21    1
    25    23    19    1
    26    21    10    1
    27    19     8    1
