@<TRIPOS>MOLECULE
3qlx_NAP_A_1.pdb
 48 52 0 0 0
SMALL
GASTEIGER

@<TRIPOS>ATOM
      1  PA        23.1050   -4.0770   -3.4950 P.3   228  NAP228      0.2189
      2  O1A       22.3200   -3.1550   -4.3430 O.2   228  NAP228     -0.5170
      3  O2A       22.2720   -5.0530   -2.7640 O.3   228  NAP228     -0.4371
      4  O5B       24.1440   -4.8460   -4.4480 O.3   228  NAP228     -0.3112
      5  C5B       25.1840   -4.1210   -5.0760 C.3   228  NAP228      0.1813
      6  C4B       25.8860   -5.1050   -6.0120 C.3   228  NAP228      0.1820
      7  O4B       24.9700   -5.6780   -6.9390 O.3   228  NAP228     -0.3136
      8  C3B       26.9910   -4.4960   -6.8660 C.3   228  NAP228      0.2157
      9  O3B       28.2060   -4.4150   -6.1370 O.3   228  NAP228     -0.2175
     10  C2B       27.0540   -5.4840   -8.0190 C.3   228  NAP228      0.2314
     11  O2B       27.6350   -6.6700   -7.5790 O.3   228  NAP228     -0.2630
     12  C1B       25.6080   -5.9100   -8.1850 C.3   228  NAP228      0.3158
     13  N9A       24.9610   -5.1150   -9.2220 N.pl3 228  NAP228     -0.1439
     14  C8A       24.5190   -3.8340   -9.0980 C.3   228  NAP228      0.3377
     15  N7A       23.9480   -3.4730  -10.2700 N.2   228  NAP228     -0.2095
     16  C5A       24.0190   -4.5240  -11.1280 C.2   228  NAP228      0.2526
     17  C6A       23.6230   -4.6930  -12.4540 C.2   228  NAP228      0.4393
     18  N6A       23.0050   -3.7100  -13.1140 N.pl3 228  NAP228      0.2180
     19  N1A       23.8700   -5.8890  -13.0920 N.2   228  NAP228      0.0021
     20  C2A       24.5270   -6.9020  -12.4270 C.3   228  NAP228      0.5254
     21  N3A       24.9400   -6.7080  -11.1130 N.2   228  NAP228     -0.0055
     22  C4A       24.6830   -5.5440  -10.4780 C.2   228  NAP228      0.3518
     23  O3        24.1240   -3.2980   -2.5190 O.3   228  NAP228     -0.2703
     24  PN        23.9970   -1.9500   -1.6770 P.3   228  NAP228      0.2189
     25  O1N       25.1410   -1.8840   -0.7530 O.3   228  NAP228     -0.4371
     26  O2N       23.6770   -0.8450   -2.6000 O.2   228  NAP228     -0.5170
     27  O5D       22.7250   -2.2550   -0.7580 O.3   228  NAP228     -0.3112
     28  C5D       22.8560   -3.0770    0.3780 C.3   228  NAP228      0.1813
     29  C4D       22.1510   -2.3840    1.5310 C.3   228  NAP228      0.1799
     30  O4D       20.7610   -2.2640    1.2370 O.3   228  NAP228     -0.3327
     31  C3D       22.2550   -3.1750    2.8140 C.3   228  NAP228      0.2158
     32  O3D       22.4590   -2.2500    3.8780 O.3   228  NAP228     -0.2175
     33  C2D       20.8710   -3.7640    2.9820 C.3   228  NAP228      0.2309
     34  O2D       20.5220   -3.9370    4.3520 O.3   228  NAP228     -0.2158
     35  C1D       20.0050   -2.7190    2.3280 C.3   228  NAP228      0.2263
     36  N1N       18.6850   -3.2420    1.9570 N.pl3 228  NAP228     -0.2787
     37  C2N       17.5800   -2.6910    2.5280 C.3   228  NAP228      0.1244
     38  C3N       16.3240   -3.1860    2.2360 C.2   228  NAP228      0.0544
     39  C7N       15.1320   -2.5570    2.8420 C.2   228  NAP228      0.2818
     40  O7N       13.8680   -2.9590    2.3950 O.2   228  NAP228     -0.2670
     41  N7N       15.2840   -1.6590    3.8150 N.am  228  NAP228     -0.0839
     42  C4N       16.1720   -4.2760    1.3630 C.2   228  NAP228      0.0033
     43  C5N       17.3100   -4.8180    0.7660 C.2   228  NAP228      0.0157
     44  C6N       18.5670   -4.3210    1.0980 C.2   228  NAP228      0.0633
     45  P2B       29.1720   -7.0580   -7.7960 P.3   228  NAP228      0.5328
     46  O1X       29.9580   -6.1230   -6.9100 O.3   228  NAP228     -0.1145
     47  O2X       29.3800   -8.4910   -7.3610 O.3   228  NAP228     -0.1145
     48  O3X       29.4860   -7.0080   -9.2600 O.2   228  NAP228     -0.2224
@<TRIPOS>BOND
     1    18    17    1
     2    19    17    2
     3    19    20    1
     4    17    16    1
     5    20    21    1
     6    16    22    1
     7    16    15    2
     8    21    22    2
     9    22    13    1
    10    15    14    1
    11    48    45    2
    12    13    14    1
    13    13    12    1
    14    12    10    1
    15    12     7    1
    16    10    11    1
    17    10     8    1
    18    45    11    1
    19    45    47    1
    20    45    46    1
    21     7     6    1
    22     8     9    1
    23     8     6    1
    24     6     5    1
    25     5     4    1
    26     4     1    1
    27     2     1    2
    28     1     3    1
    29     1    23    1
    30    26    24    2
    31    23    24    1
    32    24    27    1
    33    24    25    1
    34    27    28    1
    35    28    29    1
    36    43    44    2
    37    43    42    1
    38    44    36    1
    39    30    29    1
    40    30    35    1
    41    42    38    2
    42    29    31    1
    43    36    35    1
    44    36    37    1
    45    38    37    1
    46    38    39    1
    47    35    33    1
    48    40    39    2
    49    31    33    1
    50    31    32    1
    51    39    41   am
    52    33    34    1
