@<TRIPOS>MOLECULE
3qly_NAP_A_1.pdb
 48 52 0 0 0
SMALL
GASTEIGER

@<TRIPOS>ATOM
      1  PA        -1.8990   25.5450   -3.5420 P.3   228  NAP228      0.2189
      2  O1A       -1.0710   24.5960   -4.3120 O.2   228  NAP228     -0.5170
      3  O2A       -1.0680   26.5320   -2.8150 O.3   228  NAP228     -0.4371
      4  O5B       -2.9240   26.2850   -4.5230 O.3   228  NAP228     -0.3112
      5  C5B       -3.8750   25.5650   -5.2730 C.3   228  NAP228      0.1813
      6  C4B       -4.6020   26.5970   -6.1150 C.3   228  NAP228      0.1820
      7  O4B       -3.6980   27.1950   -7.0290 O.3   228  NAP228     -0.3136
      8  C3B       -5.7410   26.0450   -6.9520 C.3   228  NAP228      0.2157
      9  O3B       -6.9470   26.0530   -6.2190 O.3   228  NAP228     -0.2175
     10  C2B       -5.7970   27.0530   -8.0770 C.3   228  NAP228      0.2314
     11  O2B       -6.4120   28.2130   -7.5670 O.3   228  NAP228     -0.2630
     12  C1B       -4.3410   27.4410   -8.2700 C.3   228  NAP228      0.3158
     13  N9A       -3.7130   26.6120   -9.3110 N.pl3 228  NAP228     -0.1439
     14  C8A       -3.3420   25.2970   -9.1870 C.3   228  NAP228      0.3377
     15  N7A       -2.7760   24.9000  -10.3470 N.2   228  NAP228     -0.2095
     16  C5A       -2.7580   25.9490  -11.2000 C.2   228  NAP228      0.2526
     17  C6A       -2.2850   26.0900  -12.4990 C.2   228  NAP228      0.4393
     18  N6A       -1.7280   25.0580  -13.1280 N.pl3 228  NAP228      0.2180
     19  N1A       -2.4010   27.3060  -13.1350 N.2   228  NAP228      0.0021
     20  C2A       -2.9880   28.3720  -12.4840 C.3   228  NAP228      0.5254
     21  N3A       -3.4490   28.2240  -11.1910 N.2   228  NAP228     -0.0055
     22  C4A       -3.3380   27.0310  -10.5590 C.2   228  NAP228      0.3518
     23  O3        -2.8730   24.7400   -2.5470 O.3   228  NAP228     -0.2703
     24  PN        -2.6360   23.4120   -1.6740 P.3   228  NAP228      0.2189
     25  O1N       -3.7730   23.2770   -0.7370 O.3   228  NAP228     -0.4371
     26  O2N       -2.2930   22.2960   -2.5860 O.2   228  NAP228     -0.5170
     27  O5D       -1.3290   23.7990   -0.8220 O.3   228  NAP228     -0.3112
     28  C5D       -1.4490   24.6100    0.3260 C.3   228  NAP228      0.1813
     29  C4D       -0.8220   23.8980    1.5180 C.3   228  NAP228      0.1799
     30  O4D        0.5610   23.6900    1.2700 O.3   228  NAP228     -0.3327
     31  C3D       -0.9310   24.7380    2.7800 C.3   228  NAP228      0.2158
     32  O3D       -1.3070   23.8860    3.8390 O.3   228  NAP228     -0.2175
     33  C2D        0.4790   25.2310    3.0300 C.3   228  NAP228      0.2309
     34  O2D        0.7580   25.2840    4.4120 O.3   228  NAP228     -0.2158
     35  C1D        1.3280   24.1710    2.3550 C.3   228  NAP228      0.2263
     36  N1N        2.6290   24.7040    1.9150 N.pl3 228  NAP228     -0.2787
     37  C2N        3.7630   24.1800    2.4610 C.3   228  NAP228      0.1244
     38  C3N        5.0100   24.6460    2.0800 C.2   228  NAP228      0.0544
     39  C7N        6.2410   24.0260    2.6710 C.2   228  NAP228      0.2818
     40  O7N        7.5030   24.3640    2.1560 O.2   228  NAP228     -0.2670
     41  N7N        6.1080   23.1820    3.6910 N.am  228  NAP228     -0.0839
     42  C4N        5.1060   25.6620    1.1340 C.2   228  NAP228      0.0033
     43  C5N        3.9440   26.1780    0.5660 C.2   228  NAP228      0.0157
     44  C6N        2.7040   25.6850    0.9620 C.2   228  NAP228      0.0633
     45  P2B       -7.9320   28.6120   -7.8940 P.3   228  NAP228      0.5328
     46  O1X       -8.8340   27.7460   -7.0410 O.3   228  NAP228     -0.1145
     47  O2X       -8.1410   30.0690   -7.5500 O.3   228  NAP228     -0.1145
     48  O3X       -8.2140   28.3940   -9.3590 O.2   228  NAP228     -0.2224
@<TRIPOS>BOND
     1    19    17    2
     2    19    20    1
     3    18    17    1
     4    17    16    1
     5    20    21    1
     6    16    22    1
     7    16    15    2
     8    21    22    2
     9    22    13    1
    10    15    14    1
    11    48    45    2
    12    13    14    1
    13    13    12    1
    14    12    10    1
    15    12     7    1
    16    10    11    1
    17    10     8    1
    18    45    11    1
    19    45    47    1
    20    45    46    1
    21     7     6    1
    22     8     9    1
    23     8     6    1
    24     6     5    1
    25     5     4    1
    26     4     1    1
    27     2     1    2
    28     1     3    1
    29     1    23    1
    30    26    24    2
    31    23    24    1
    32    24    27    1
    33    24    25    1
    34    27    28    1
    35    28    29    1
    36    43    44    2
    37    43    42    1
    38    44    36    1
    39    42    38    2
    40    30    29    1
    41    30    35    1
    42    29    31    1
    43    36    35    1
    44    36    37    1
    45    38    37    1
    46    38    39    1
    47    40    39    2
    48    35    33    1
    49    39    41   am
    50    31    33    1
    51    31    32    1
    52    33    34    1
