@<TRIPOS>MOLECULE
3qly_55V_A_1.pdb
 26 27 0 0 0
SMALL
GASTEIGER

@<TRIPOS>ATOM
      1  C1P        8.2390   33.5540    4.7470 C.3   229  55V229      0.2526
      2  O1O        6.9160   34.1070    4.7980 O.3   229  55V229     -0.4683
      3  C1N        5.9880   33.1110    4.8920 C.ar  229  55V229      0.1752
      4  C1M        5.9600   32.1000    3.9340 C.ar  229  55V229      0.0369
      5  C1Q        5.0630   33.1070    5.9380 C.ar  229  55V229      0.2060
      6  O1V        5.0610   34.1070    6.8750 O.3   229  55V229     -0.4654
      7  C1W        6.2940   34.1490    7.6070 C.3   229  55V229      0.2528
      8  C1R        4.1040   32.0990    6.0100 C.ar  229  55V229      0.1752
      9  O1T        3.1930   32.1120    7.0320 O.3   229  55V229     -0.4683
     10  C1U        2.4430   30.8980    7.0860 C.3   229  55V229      0.2526
     11  C1S        4.0710   31.0960    5.0360 C.ar  229  55V229      0.0369
     12  C1L        5.0120   31.0820    4.0060 C.ar  229  55V229     -0.0054
     13  C1J        4.9750   29.9930    2.9110 C.3   229  55V229      0.0729
     14  C1K        4.8700   30.6730    1.5430 C.3   229  55V229      0.0174
     15  C1X        3.7860   29.0560    3.1240 C.3   229  55V229      0.0174
     16  C1I        6.2140   29.2090    2.9390 C.1   229  55V229     -0.0880
     17  C1H        7.2280   28.5240    2.9170 C.1   229  55V229     -0.0761
     18  C5         8.4250   27.7380    2.8600 C.3   229  55V229      0.1831
     19  C4         9.1690   27.5180    4.0100 C.2   229  55V229      0.1207
     20  C1Y        8.7270   28.1220    5.3430 C.3   229  55V229      0.0641
     21  N3        10.2840   26.7780    3.9410 N.2   229  55V229     -0.3332
     22  C2        10.6870   26.2480    2.7750 C.1   229  55V229      0.2419
     23  N1Z       11.8010   25.5230    2.7400 N.pl3 229  55V229     -0.0232
     24  N1         9.9820   26.4460    1.6470 N.2   229  55V229     -0.3105
     25  C6         8.8570   27.1750    1.6630 C.2   229  55V229      0.2282
     26  N1G        8.1660   27.3550    0.5390 N.pl3 229  55V229     -0.0955
@<TRIPOS>BOND
     1    26    25    1
     2    14    13    1
     3    24    25    2
     4    24    22    2
     5    25    18    1
     6    23    22    1
     7    22    21    2
     8    18    17    1
     9    18    19    1
    10    13    16    1
    11    13    15    1
    12    13    12    1
    13    17    16    3
    14     4    12   ar
    15     4     3   ar
    16    21    19    2
    17    12    11   ar
    18    19    20    1
    19     1     2    1
    20     2     3    1
    21     3     5   ar
    22    11     8   ar
    23     5     8   ar
    24     5     6    1
    25     8     9    1
    26     6     7    1
    27     9    10    1
