@<TRIPOS>MOLECULE
3qlz_NAP_A_1.pdb
 48 52 0 0 0
SMALL
GASTEIGER

@<TRIPOS>ATOM
      1  PA        17.0330    1.9140    2.8300 P.3   228  NAP228      0.2189
      2  O1A       17.9690    1.0740    3.6060 O.3   228  NAP228     -0.4371
      3  O2A       16.0630    1.1410    2.0190 O.2   228  NAP228     -0.5170
      4  O5B       16.2720    2.9830    3.7340 O.3   228  NAP228     -0.3112
      5  C5B       17.0070    3.8570    4.5740 C.3   228  NAP228      0.1813
      6  C4B       15.9990    4.6040    5.4210 C.3   228  NAP228      0.1820
      7  O4B       15.4480    3.7260    6.3940 O.3   228  NAP228     -0.3136
      8  C3B       16.6080    5.7520    6.2150 C.3   228  NAP228      0.2157
      9  O3B       16.7370    6.9100    5.4020 O.3   228  NAP228     -0.2175
     10  C2B       15.6230    5.8730    7.3610 C.3   228  NAP228      0.2314
     11  O2B       14.4200    6.4520    6.8840 O.3   228  NAP228     -0.2630
     12  C1B       15.2410    4.4250    7.6130 C.3   228  NAP228      0.3158
     13  N9A       16.0390    3.7690    8.6710 N.pl3 228  NAP228     -0.1439
     14  C8A       17.3330    3.3240    8.5780 C.3   228  NAP228      0.3377
     15  N7A       17.6630    2.7260    9.7520 N.2   228  NAP228     -0.2095
     16  C5A       16.5940    2.8050   10.5800 C.2   228  NAP228      0.2526
     17  C6A       16.3720    2.3400   11.8670 C.2   228  NAP228      0.4393
     18  N6A       17.3490    1.7320   12.5440 N.pl3 228  NAP228      0.2180
     19  N1A       15.1500    2.5480   12.4570 N.2   228  NAP228      0.0021
     20  C2A       14.1420    3.2070   11.7800 C.3   228  NAP228      0.5254
     21  N3A       14.3760    3.6630   10.5020 N.2   228  NAP228     -0.0055
     22  C4A       15.5780    3.4560    9.9110 C.2   228  NAP228      0.3518
     23  O3        17.8860    2.8980    1.8920 O.3   228  NAP228     -0.2703
     24  PN        19.2300    2.7170    1.0640 P.3   228  NAP228      0.2189
     25  O1N       19.2960    3.9370    0.2350 O.2   228  NAP228     -0.5170
     26  O2N       20.3250    2.3670    1.9950 O.3   228  NAP228     -0.4371
     27  O5D       18.9430    1.4460    0.1360 O.3   228  NAP228     -0.3112
     28  C5D       18.0720    1.5330   -0.9860 C.3   228  NAP228      0.1813
     29  C4D       18.8200    0.9480   -2.1750 C.3   228  NAP228      0.1799
     30  O4D       18.9850   -0.4400   -1.9180 O.3   228  NAP228     -0.3327
     31  C3D       18.0320    1.0910   -3.4800 C.3   228  NAP228      0.2158
     32  O3D       18.9490    1.3320   -4.5460 O.3   228  NAP228     -0.2175
     33  C2D       17.4200   -0.2780   -3.6560 C.3   228  NAP228      0.2309
     34  O2D       17.2570   -0.6060   -5.0180 O.3   228  NAP228     -0.2158
     35  C1D       18.4660   -1.1790   -3.0070 C.3   228  NAP228      0.2263
     36  N1N       17.9140   -2.4880   -2.6090 N.pl3 228  NAP228     -0.2787
     37  C2N       18.4720   -3.6080   -3.1500 C.3   228  NAP228      0.1244
     38  C3N       17.9810   -4.8690   -2.8560 C.2   228  NAP228      0.0544
     39  C7N       18.6270   -6.0630   -3.5170 C.2   228  NAP228      0.2818
     40  O7N       18.4320   -7.3500   -3.0180 O.2   228  NAP228     -0.2670
     41  N7N       19.4060   -5.8540   -4.5710 N.am  228  NAP228     -0.0839
     42  C4N       16.9060   -5.0000   -1.9720 C.2   228  NAP228      0.0033
     43  C5N       16.3500   -3.8460   -1.3950 C.2   228  NAP228      0.0157
     44  C6N       16.8400   -2.5850   -1.7420 C.2   228  NAP228      0.0633
     45  P2B       14.0780    8.0070    7.0790 P.3   228  NAP228      0.5328
     46  O1X       15.0270    8.8130    6.2240 O.2   228  NAP228     -0.2224
     47  O2X       12.6360    8.2590    6.6770 O.3   228  NAP228     -0.1145
     48  O3X       14.2480    8.3650    8.5280 O.3   228  NAP228     -0.1145
@<TRIPOS>BOND
     1    34    33    1
     2    41    39   am
     3    32    31    1
     4    33    31    1
     5    33    35    1
     6    39    40    2
     7    39    38    1
     8    31    29    1
     9    37    38    1
    10    37    36    1
    11    35    36    1
    12    35    30    1
    13    38    42    2
    14    36    44    1
    15    29    30    1
    16    29    28    1
    17    42    43    1
    18    44    43    2
    19    28    27    1
    20    27    24    1
    21    25    24    2
    22    24    23    1
    23    24    26    1
    24    23     1    1
    25     3     1    2
    26     1     2    1
    27     1     4    1
    28     4     5    1
    29     5     6    1
    30     9     8    1
    31     6     8    1
    32     6     7    1
    33     8    10    1
    34    46    45    2
    35     7    12    1
    36    47    45    1
    37    11    45    1
    38    11    10    1
    39    45    48    1
    40    10    12    1
    41    12    13    1
    42    14    13    1
    43    14    15    1
    44    13    22    1
    45    15    16    2
    46    22    21    2
    47    22    16    1
    48    21    20    1
    49    16    17    1
    50    20    19    1
    51    17    19    2
    52    17    18    1
