@<TRIPOS>MOLECULE
3qlz_QLZ_A_1.pdb
 24 25 0 0 0
SMALL
GASTEIGER

@<TRIPOS>ATOM
      1  N1        16.2410  -10.0580   -2.1040 N.2   229  QLZ229     -0.3105
      2  C2        16.3960  -10.5890   -3.3130 C.1   229  QLZ229      0.2419
      3  N3        15.8020  -10.0420   -4.4020 N.2   229  QLZ229     -0.3332
      4  C4        15.0070   -8.9690   -4.3050 C.2   229  QLZ229      0.1203
      5  C5        14.8410   -8.4080   -3.0380 C.3   229  QLZ229      0.1831
      6  C6        15.4900   -8.9660   -1.9360 C.2   229  QLZ229      0.2282
      7  CAA       12.3330   -8.0470   -6.9910 C.3   229  QLZ229      0.0004
      8  CAB        8.7430   -6.7360   -5.3180 C.3   229  QLZ229      0.2525
      9  CAC       14.1690   -2.1140   -4.8510 C.3   229  QLZ229      0.2525
     10  NAD       17.1280  -11.6760   -3.4330 N.pl3 229  QLZ229     -0.0232
     11  NAE       15.3610   -8.4320   -0.7240 N.pl3 229  QLZ229     -0.0955
     12  CAF       13.3020   -6.3550   -2.6810 C.1   229  QLZ229     -0.0853
     13  CAG       13.9990   -7.2850   -2.8640 C.1   229  QLZ229     -0.0760
     14  CAH       10.8480   -3.9450   -6.2990 C.ar  229  QLZ229      0.0400
     15  CAI       11.9830   -3.3130   -5.7790 C.ar  229  QLZ229      0.0397
     16  CAJ       10.7680   -5.4090   -4.3830 C.ar  229  QLZ229      0.0366
     17  CAK       12.9860   -8.8870   -5.8820 C.3   229  QLZ229      0.0071
     18  CAL       12.4380   -5.2050   -2.5080 C.3   229  QLZ229      0.1054
     19  CAM       14.3970   -8.3950   -5.6180 C.3   229  QLZ229      0.0569
     20  OAP        9.1240   -5.5840   -6.1360 O.3   229  QLZ229     -0.4714
     21  OAQ       13.6080   -3.1490   -4.0090 O.3   229  QLZ229     -0.4717
     22  CAT       10.2440   -4.9920   -5.6120 C.ar  229  QLZ229      0.1386
     23  CAU       11.8980   -4.7590   -3.8510 C.ar  229  QLZ229      0.0278
     24  CAW       12.5020   -3.7330   -4.5540 C.ar  229  QLZ229      0.1358
@<TRIPOS>BOND
     1     7    17    1
     2    14    15   ar
     3    14    22   ar
     4    20    22    1
     5    20     8    1
     6    17    19    1
     7    15    24   ar
     8    19     4    1
     9    22    16   ar
    10     9    21    1
    11    24    21    1
    12    24    23   ar
    13     3     4    2
    14     3     2    2
    15    16    23   ar
    16     4     5    1
    17    23    18    1
    18    10     2    1
    19     2     1    2
    20     5    13    1
    21     5     6    1
    22    13    12    3
    23    12    18    1
    24     1     6    2
    25     6    11    1
