@<TRIPOS>MOLECULE
3qm4_HEM_A_1.pdb
 43 50 0 0 0
SMALL
GASTEIGER

@<TRIPOS>ATOM
      1  CHA      -10.1480  -18.1140   35.5600 C.2   502  HEM502      0.0000
      2  CHB      -14.7810  -18.9850   35.5280 C.2   502  HEM502      0.0000
      3  CHC      -15.4050  -15.4640   38.4970 C.2   502  HEM502      0.0000
      4  CHD      -10.7800  -14.9450   38.9110 C.2   502  HEM502      0.0000
      5  C1A      -11.3520  -18.7170   35.2040 C.ar  502  HEM502      0.0000
      6  C2A      -11.5520  -19.8280   34.3440 C.ar  502  HEM502      0.0000
      7  C3A      -12.8920  -20.0710   34.3650 C.ar  502  HEM502      0.0000
      8  C4A      -13.4460  -19.1190   35.2200 C.ar  502  HEM502      0.0000
      9  CMA      -13.6840  -21.1940   33.5930 C.3   502  HEM502      0.0000
     10  CAA      -10.4780  -20.5690   33.5780 C.3   502  HEM502      0.0000
     11  CBA       -9.8560  -21.7090   34.2940 C.3   502  HEM502      0.0000
     12  CGA       -8.8070  -22.4070   33.4630 C.2   502  HEM502      0.0000
     13  O1A       -7.8310  -21.7700   33.0220 O.co2 502  HEM502      0.0000
     14  O2A       -8.9240  -23.6070   33.2020 O.co2 502  HEM502      0.0000
     15  C1B      -15.4720  -17.8980   36.0230 C.2   502  HEM502      0.0000
     16  C2B      -16.8710  -17.8260   36.1890 C.2   502  HEM502      0.0000
     17  C3B      -17.0730  -16.7770   37.1240 C.2   502  HEM502      0.0000
     18  C4B      -15.7510  -16.3010   37.4370 C.2   502  HEM502      0.0000
     19  CMB      -17.8590  -18.7140   35.4870 C.3   502  HEM502      0.0000
     20  CAB      -18.2740  -16.2770   37.6570 C.3   502  HEM502      0.0000
     21  CBB      -19.5520  -16.9640   37.9290 C.3   502  HEM502      0.0000
     22  C1C      -14.2160  -14.7940   38.7740 C.ar  502  HEM502      0.0000
     23  C2C      -14.0520  -13.7910   39.7240 C.ar  502  HEM502      0.0000
     24  C3C      -12.6710  -13.5830   39.8330 C.ar  502  HEM502      0.0000
     25  C4C      -12.0970  -14.4980   38.9230 C.ar  502  HEM502      0.0000
     26  CMC      -15.1870  -13.0430   40.5110 C.3   502  HEM502      0.0000
     27  CAC      -11.9220  -12.7260   40.5980 C.3   502  HEM502      0.0000
     28  CBC      -11.8200  -12.6210   42.0130 C.3   502  HEM502      0.0000
     29  C1D      -10.1700  -15.7810   38.0600 C.2   502  HEM502      0.0000
     30  C2D       -8.7880  -15.8800   37.8830 C.2   502  HEM502      0.0000
     31  C3D       -8.5680  -16.8990   37.0030 C.2   502  HEM502      0.0000
     32  C4D       -9.8610  -17.3780   36.6720 C.2   502  HEM502      0.0000
     33  CMD       -7.7120  -15.0270   38.5420 C.3   502  HEM502      0.0000
     34  CAD       -7.2180  -17.4090   36.4930 C.3   502  HEM502      0.0000
     35  CBD       -6.6580  -18.5330   37.4100 C.3   502  HEM502      0.0000
     36  CGD       -5.2850  -19.1320   37.0310 C.2   502  HEM502      0.0000
     37  O1D       -4.6280  -19.7140   37.8500 O.co2 502  HEM502      0.0000
     38  O2D       -4.8430  -18.9940   35.8700 O.co2 502  HEM502      0.0000
     39  NA       -12.5310  -18.3190   35.7140 N.ar  502  HEM502      0.0000
     40  NB       -14.8470  -16.9760   36.7750 N.2   502  HEM502      0.0000
     41  NC       -13.0660  -15.2030   38.3070 N.ar  502  HEM502      0.0000
     42  ND       -10.7840  -16.6760   37.3320 N.2   502  HEM502      0.0000
     43 FE        -12.8240  -16.7850   37.0450 Fe    502  HEM502      0.0000
@<TRIPOS>BOND
     1    13    12   ar
     2    14    12   ar
     3    12    11    1
     4    10    11    1
     5    10     6    1
     6     9     7    1
     7     6     7   ar
     8     6     5   ar
     9     7     8   ar
    10     5     1    2
    11     5    39   ar
    12     8     2    2
    13     8    39   ar
    14    19    16    1
    15     2    15    1
    16     1    32    1
    17    39    43    1
    18    38    36   ar
    19    15    16    1
    20    15    40    2
    21    16    17    2
    22    34    31    1
    23    34    35    1
    24    32    31    1
    25    32    42    2
    26    40    43    1
    27    40    18    1
    28    31    30    2
    29    36    35    1
    30    36    37   ar
    31    43    42    1
    32    43    41    1
    33    17    18    1
    34    17    20    1
    35    42    29    1
    36    18     3    2
    37    20    21    1
    38    30    29    1
    39    30    33    1
    40    29     4    2
    41    41    22   ar
    42    41    25   ar
    43     3    22    1
    44    22    23   ar
    45     4    25    1
    46    25    24   ar
    47    23    24   ar
    48    23    26    1
    49    24    27    1
    50    27    28    1
