@<TRIPOS>MOLECULE
3qm4_PN0_A_1.pdb
 28 30 0 0 0
SMALL
GASTEIGER

@<TRIPOS>ATOM
      1  N1        -8.4500   -8.2090   30.4630 N.3   503  PN0503     -0.1492
      2  N3        -8.2790  -10.3020   33.1390 N.am  503  PN0503     -0.2015
      3  C4        -6.3240   -7.2850   29.3880 C.3   503  PN0503      0.0767
      4  C5       -10.6450   -9.8820   30.6730 C.ar  503  PN0503      0.1224
      5  C6       -10.0730  -11.0030   30.0040 C.ar  503  PN0503      0.0230
      6  C7       -10.5030  -12.2960   30.3350 C.ar  503  PN0503      0.0389
      7  C8       -11.5070  -12.4750   31.3310 C.ar  503  PN0503      0.1454
      8  C10      -11.6420  -10.0460   31.6620 C.ar  503  PN0503      0.0230
      9  C13      -13.5330  -15.5680   34.3130 C.ar  503  PN0503      0.1020
     10  C15      -11.3200  -13.8880   34.1120 C.ar  503  PN0503      0.0581
     11  C17       -6.4280   -7.0750   33.5070 C.3   503  PN0503      0.0127
     12  C1        -6.9000   -7.0820   32.0550 C.3   503  PN0503      0.0601
     13  C2        -7.9730   -8.1910   31.8580 C.3   503  PN0503      0.1334
     14  C3        -7.5150   -8.2490   29.2880 C.3   503  PN0503      0.1078
     15  S1        -5.4640   -7.2890   30.9820 S.3   503  PN0503     -0.1386
     16  S2       -10.0780   -8.3190   30.2420 S.O2  503  PN0503      0.0636
     17  C9       -12.0730  -11.3370   31.9860 C.ar  503  PN0503      0.0389
     18  O1       -11.9600  -13.7130   31.6830 O.3   503  PN0503     -0.4534
     19  C11      -12.1300  -14.1740   32.9520 C.ar  503  PN0503      0.1484
     20  C12      -13.2380  -15.0160   33.0620 C.ar  503  PN0503      0.0581
     21  N2       -12.7770  -15.3070   35.4090 N.ar  503  PN0503     -0.2421
     22  C14      -11.6990  -14.4890   35.3280 C.ar  503  PN0503      0.1020
     23  O2       -10.3190   -8.2520   28.8260 O.2   503  PN0503     -0.1528
     24  O3       -10.7460   -7.3120   31.0510 O.2   503  PN0503     -0.1528
     25  C16       -7.5080   -9.6510   32.2330 C.2   503  PN0503      0.1037
     26  O4        -8.0150  -11.6210   33.5780 O.3   503  PN0503     -0.4026
     27  O5        -6.5040  -10.1780   31.7150 O.2   503  PN0503     -0.5381
     28  C18       -7.5750   -5.7150   31.8450 C.3   503  PN0503      0.0127
@<TRIPOS>BOND
     1    23    16    2
     2    14     3    1
     3    14     1    1
     4     3    15    1
     5     5     6   ar
     6     5     4   ar
     7    16     1    1
     8    16     4    1
     9    16    24    2
    10     6     7   ar
    11     1    13    1
    12     4     8   ar
    13    15    12    1
    14     7    18    1
    15     7    17   ar
    16     8    17   ar
    17    18    19    1
    18    27    25    2
    19    28    12    1
    20    13    12    1
    21    13    25    1
    22    12    11    1
    23    25     2   am
    24    19    20   ar
    25    19    10   ar
    26    20     9   ar
    27     2    26    1
    28    10    22   ar
    29     9    21   ar
    30    22    21   ar
