@<TRIPOS>MOLECULE
3qm5_HEM_A_1.pdb
 43 50 0 0 0
SMALL
GASTEIGER

@<TRIPOS>ATOM
      1  CHA       -3.0420   -0.0550   14.7510 C.2   201  HEM201      0.0000
      2  CHB        0.6030    2.3970   12.7930 C.2   201  HEM201      0.0000
      3  CHC        3.7580   -0.3980   15.1260 C.2   201  HEM201      0.0000
      4  CHD        0.0990   -2.9210   17.0890 C.2   201  HEM201      0.0000
      5  C1A       -2.3290    0.8800   14.0410 C.ar  201  HEM201      0.0000
      6  C2A       -2.9090    1.9120   13.1850 C.ar  201  HEM201      0.0000
      7  C3A       -1.8800    2.5640   12.6320 C.ar  201  HEM201      0.0000
      8  C4A       -0.6670    1.9540   13.1160 C.ar  201  HEM201      0.0000
      9  CMA       -1.9160    3.7290   11.6680 C.3   201  HEM201      0.0000
     10  CAA       -4.3720    2.2240   13.0520 C.3   201  HEM201      0.0000
     11  CBA       -4.7760    3.4600   13.8810 C.3   201  HEM201      0.0000
     12  CGA       -4.4830    3.2970   15.3840 C.2   201  HEM201      0.0000
     13  O1A       -5.0510    2.3320   15.9320 O.co2 201  HEM201      0.0000
     14  O2A       -3.6430    3.9150   15.9670 O.co2 201  HEM201      0.0000
     15  C1B        1.7970    1.8740   13.2840 C.2   201  HEM201      0.0000
     16  C2B        3.0880    2.3870   12.9370 C.2   201  HEM201      0.0000
     17  C3B        4.0000    1.5730   13.5930 C.2   201  HEM201      0.0000
     18  C4B        3.2240    0.6050   14.3440 C.2   201  HEM201      0.0000
     19  CMB        3.3320    3.4670   11.9650 C.3   201  HEM201      0.0000
     20  CAB        5.4460    1.6040   13.5230 C.3   201  HEM201      0.0000
     21  CBB        6.2240    2.8480   13.6760 C.3   201  HEM201      0.0000
     22  C1C        3.0540   -1.3230   15.8860 C.ar  201  HEM201      0.0000
     23  C2C        3.6510   -2.4180   16.6260 C.ar  201  HEM201      0.0000
     24  C3C        2.6110   -3.1470   17.1720 C.ar  201  HEM201      0.0000
     25  C4C        1.3920   -2.4850   16.7790 C.ar  201  HEM201      0.0000
     26  CMC        5.1190   -2.6030   16.7440 C.3   201  HEM201      0.0000
     27  CAC        2.6880   -4.3840   17.9340 C.2   201  HEM201      0.0000
     28  CBC        3.7440   -5.1620   17.9910 C.2   201  HEM201      0.0000
     29  C1D       -1.0770   -2.3450   16.6290 C.2   201  HEM201      0.0000
     30  C2D       -2.4080   -2.9100   16.8960 C.2   201  HEM201      0.0000
     31  C3D       -3.2950   -2.1010   16.2160 C.2   201  HEM201      0.0000
     32  C4D       -2.5220   -1.0890   15.5480 C.2   201  HEM201      0.0000
     33  CMD       -2.7010   -4.0970   17.7370 C.3   201  HEM201      0.0000
     34  CAD       -4.7740   -2.2860   16.1080 C.3   201  HEM201      0.0000
     35  CBD       -5.1550   -3.1730   14.9370 C.3   201  HEM201      0.0000
     36  CGD       -6.6710   -3.3270   14.7760 C.2   201  HEM201      0.0000
     37  O1D       -7.3680   -3.5110   15.8000 O.co2 201  HEM201      0.0000
     38  O2D       -7.1600   -3.3440   13.6150 O.co2 201  HEM201      0.0000
     39  NA        -0.9640    0.9440   13.9790 N.ar  201  HEM201      0.0000
     40  NB         1.8800    0.8310   14.1560 N.2   201  HEM201      0.0000
     41  NC         1.6670   -1.3810   15.9890 N.ar  201  HEM201      0.0000
     42  ND        -1.1690   -1.2540   15.7990 N.2   201  HEM201      0.0000
     43 FE          0.3460   -0.1720   15.0520 Fe    201  HEM201      0.0000
@<TRIPOS>BOND
     1     9     7    1
     2    19    16    1
     3     7     8   ar
     4     7     6   ar
     5     2     8    2
     6     2    15    1
     7    16    15    1
     8    16    17    2
     9    10     6    1
    10    10    11    1
    11     8    39   ar
    12     6     5   ar
    13    15    40    2
    14    20    17    1
    15    20    21    1
    16    17    18    1
    17    38    36   ar
    18    11    12    1
    19    39     5   ar
    20    39    43    1
    21     5     1    2
    22    40    18    1
    23    40    43    1
    24    18     3    2
    25     1    32    1
    26    36    35    1
    27    36    37   ar
    28    35    34    1
    29    43    42    1
    30    43    41    1
    31     3    22    1
    32    12    13   ar
    33    12    14   ar
    34    32    42    2
    35    32    31    1
    36    42    29    1
    37    22    41   ar
    38    22    23   ar
    39    41    25   ar
    40    34    31    1
    41    31    30    2
    42    23    26    1
    43    23    24   ar
    44    29    30    1
    45    29     4    2
    46    25     4    1
    47    25    24   ar
    48    30    33    1
    49    24    27    1
    50    27    28    2
