@<TRIPOS>MOLECULE
3qm6_HEM_A_1.pdb
 43 50 0 0 0
SMALL
GASTEIGER

@<TRIPOS>ATOM
      1  CHA       -3.1260    0.0470   14.4710 C.2   201  HEM201      0.0000
      2  CHB        0.5700    2.5450   12.5730 C.2   201  HEM201      0.0000
      3  CHC        3.6980   -0.3640   14.8670 C.2   201  HEM201      0.0000
      4  CHD        0.0470   -2.9120   16.5410 C.2   201  HEM201      0.0000
      5  C1A       -2.4140    1.0360   13.7500 C.ar  201  HEM201      0.0000
      6  C2A       -2.9740    2.0940   12.9410 C.ar  201  HEM201      0.0000
      7  C3A       -1.9480    2.7670   12.3850 C.ar  201  HEM201      0.0000
      8  C4A       -0.7510    2.1380   12.8530 C.ar  201  HEM201      0.0000
      9  CMA       -1.9850    3.9530   11.4540 C.3   201  HEM201      0.0000
     10  CAA       -4.4420    2.4340   12.7610 C.3   201  HEM201      0.0000
     11  CBA       -4.9350    3.8230   13.4460 C.3   201  HEM201      0.0000
     12  CGA       -4.3190    4.5620   14.6240 C.2   201  HEM201      0.0000
     13  O1A       -3.8860    4.0120   15.5340 O.co2 201  HEM201      0.0000
     14  O2A       -4.1870    5.7570   14.6630 O.co2 201  HEM201      0.0000
     15  C1B        1.7100    2.0460   13.0250 C.2   201  HEM201      0.0000
     16  C2B        3.0590    2.4920   12.7250 C.2   201  HEM201      0.0000
     17  C3B        3.9530    1.6140   13.3590 C.2   201  HEM201      0.0000
     18  C4B        3.1780    0.6120   14.1060 C.2   201  HEM201      0.0000
     19  CMB        3.3000    3.6080   11.7910 C.3   201  HEM201      0.0000
     20  CAB        5.4060    1.7190   13.3110 C.3   201  HEM201      0.0000
     21  CBB        6.0140    3.0530   13.4690 C.3   201  HEM201      0.0000
     22  C1C        2.9920   -1.3380   15.5880 C.ar  201  HEM201      0.0000
     23  C2C        3.5730   -2.4170   16.2680 C.ar  201  HEM201      0.0000
     24  C3C        2.5270   -3.1480   16.7430 C.ar  201  HEM201      0.0000
     25  C4C        1.3170   -2.5130   16.3120 C.ar  201  HEM201      0.0000
     26  CMC        5.0000   -2.4490   16.4970 C.3   201  HEM201      0.0000
     27  CAC        2.6240   -4.3720   17.5710 C.2   201  HEM201      0.0000
     28  CBC        3.6830   -5.0990   17.5550 C.2   201  HEM201      0.0000
     29  C1D       -1.1230   -2.3580   16.0940 C.2   201  HEM201      0.0000
     30  C2D       -2.4430   -2.8720   16.4270 C.2   201  HEM201      0.0000
     31  C3D       -3.3740   -2.0770   15.8710 C.2   201  HEM201      0.0000
     32  C4D       -2.6020   -1.0240   15.1540 C.2   201  HEM201      0.0000
     33  CMD       -2.7500   -4.0690   17.2450 C.3   201  HEM201      0.0000
     34  CAD       -4.8610   -2.2250   15.7720 C.2   201  HEM201      0.0000
     35  CBD       -5.3700   -3.0480   14.5650 C.2   201  HEM201      0.0000
     36  CGD       -6.8980   -3.1350   14.4350 C.2   201  HEM201      0.0000
     37  O1D       -7.6200   -2.8180   15.2570 O.co2 201  HEM201      0.0000
     38  O2D       -7.3980   -3.4630   13.3700 O.co2 201  HEM201      0.0000
     39  NA        -1.0430    1.0720   13.6920 N.ar  201  HEM201      0.0000
     40  NB         1.7700    0.9110   13.8600 N.2   201  HEM201      0.0000
     41  NC         1.5600   -1.4340   15.6080 N.ar  201  HEM201      0.0000
     42  ND        -1.2550   -1.2320   15.3370 N.2   201  HEM201      0.0000
     43 FE          0.2580   -0.0160   14.8160 Fe    201  HEM201      0.0000
@<TRIPOS>BOND
     1     9     7    1
     2    19    16    1
     3     7     8   ar
     4     7     6   ar
     5     2     8    2
     6     2    15    1
     7    16    15    1
     8    16    17    2
     9    10     6    1
    10    10    11    1
    11     8    39   ar
    12     6     5   ar
    13    15    40    2
    14    20    17    1
    15    20    21    1
    16    17    18    1
    17    38    36   ar
    18    11    12    1
    19    39     5   ar
    20    39    43    1
    21     5     1    2
    22    40    18    1
    23    40    43    1
    24    18     3    2
    25    36    35    1
    26    36    37   ar
    27     1    32    1
    28    35    34    2
    29    12    14   ar
    30    12    13   ar
    31    43    42    1
    32    43    41    1
    33     3    22    1
    34    32    42    2
    35    32    31    1
    36    42    29    1
    37    22    41   ar
    38    22    23   ar
    39    41    25   ar
    40    34    31    1
    41    31    30    2
    42    29    30    1
    43    29     4    2
    44    23    26    1
    45    23    24   ar
    46    25     4    1
    47    25    24   ar
    48    30    33    1
    49    24    27    1
    50    28    27    2
