@<TRIPOS>MOLECULE
3qm7_HEM_A_1.pdb
 43 50 0 0 0
SMALL
GASTEIGER

@<TRIPOS>ATOM
      1  CHA       -3.1430    0.1900   14.7460 C.2   201  HEM201      0.0000
      2  CHB        0.6310    2.5110   12.8990 C.2   201  HEM201      0.0000
      3  CHC        3.6240   -0.3170   15.3580 C.2   201  HEM201      0.0000
      4  CHD       -0.1400   -2.8150   17.0320 C.2   201  HEM201      0.0000
      5  C1A       -2.3860    1.1100   14.0470 C.ar  201  HEM201      0.0000
      6  C2A       -2.8840    2.2100   13.2410 C.ar  201  HEM201      0.0000
      7  C3A       -1.8240    2.8280   12.7320 C.ar  201  HEM201      0.0000
      8  C4A       -0.6490    2.1450   13.1970 C.ar  201  HEM201      0.0000
      9  CMA       -1.8080    4.0630   11.8390 C.3   201  HEM201      0.0000
     10  CAA       -4.3550    2.5600   13.0850 C.3   201  HEM201      0.0000
     11  CBA       -4.6210    3.8810   13.8180 C.3   201  HEM201      0.0000
     12  CGA       -4.3240    3.7480   15.3030 C.2   201  HEM201      0.0000
     13  O1A       -4.9550    2.9200   16.0030 O.co2 201  HEM201      0.0000
     14  O2A       -3.3960    4.4120   15.8300 O.co2 201  HEM201      0.0000
     15  C1B        1.7690    1.9600   13.4060 C.2   201  HEM201      0.0000
     16  C2B        3.1060    2.3780   13.0830 C.2   201  HEM201      0.0000
     17  C3B        3.9560    1.5900   13.7600 C.2   201  HEM201      0.0000
     18  C4B        3.1360    0.6420   14.5020 C.2   201  HEM201      0.0000
     19  CMB        3.4430    3.5130   12.1340 C.3   201  HEM201      0.0000
     20  CAB        5.4930    1.6240   13.7820 C.2   201  HEM201      0.0000
     21  CBB        6.1390    2.8140   13.8350 C.2   201  HEM201      0.0000
     22  C1C        2.8690   -1.2680   16.0160 C.ar  201  HEM201      0.0000
     23  C2C        3.3820   -2.3980   16.7250 C.ar  201  HEM201      0.0000
     24  C3C        2.3450   -3.1190   17.1700 C.ar  201  HEM201      0.0000
     25  C4C        1.1430   -2.4310   16.7550 C.ar  201  HEM201      0.0000
     26  CMC        4.8740   -2.6650   16.8750 C.3   201  HEM201      0.0000
     27  CAC        2.3480   -4.4270   17.9370 C.2   201  HEM201      0.0000
     28  CBC        3.4310   -5.2360   17.9680 C.2   201  HEM201      0.0000
     29  C1D       -1.2730   -2.2130   16.5810 C.2   201  HEM201      0.0000
     30  C2D       -2.5850   -2.7010   16.8570 C.2   201  HEM201      0.0000
     31  C3D       -3.5320   -1.8160   16.1620 C.2   201  HEM201      0.0000
     32  C4D       -2.6820   -0.8490   15.5150 C.2   201  HEM201      0.0000
     33  CMD       -2.9910   -3.8950   17.6710 C.3   201  HEM201      0.0000
     34  CAD       -5.0520   -1.9330   16.0860 C.3   201  HEM201      0.0000
     35  CBD       -5.5290   -2.9220   14.9830 C.3   201  HEM201      0.0000
     36  CGD       -7.0290   -2.8020   14.6410 C.2   201  HEM201      0.0000
     37  O1D       -7.6780   -1.8640   15.1300 O.co2 201  HEM201      0.0000
     38  O2D       -7.5600   -3.5040   13.7620 O.co2 201  HEM201      0.0000
     39  NA        -1.0220    1.0960   14.0210 N.ar  201  HEM201      0.0000
     40  NB         1.8130    0.8920   14.2710 N.2   201  HEM201      0.0000
     41  NC         1.4910   -1.2910   16.0490 N.ar  201  HEM201      0.0000
     42  ND        -1.3510   -1.0880   15.7820 N.2   201  HEM201      0.0000
     43 FE          0.2360   -0.1020   15.0360 Fe    201  HEM201      0.0000
@<TRIPOS>BOND
     1     9     7    1
     2    19    16    1
     3     7     8   ar
     4     7     6   ar
     5     2     8    2
     6     2    15    1
     7    16    15    1
     8    16    17    2
     9    10     6    1
    10    10    11    1
    11     8    39   ar
    12     6     5   ar
    13    15    40    2
    14    17    20    1
    15    17    18    1
    16    38    36   ar
    17    20    21    2
    18    11    12    1
    19    39     5   ar
    20    39    43    1
    21     5     1    2
    22    40    18    1
    23    40    43    1
    24    18     3    2
    25    36    35    1
    26    36    37   ar
    27     1    32    1
    28    35    34    1
    29    43    42    1
    30    43    41    1
    31    12    14   ar
    32    12    13   ar
    33     3    22    1
    34    32    42    2
    35    32    31    1
    36    42    29    1
    37    22    41   ar
    38    22    23   ar
    39    41    25   ar
    40    34    31    1
    41    31    30    2
    42    29    30    1
    43    29     4    2
    44    23    26    1
    45    23    24   ar
    46    25     4    1
    47    25    24   ar
    48    30    33    1
    49    24    27    1
    50    27    28    2
