@<TRIPOS>MOLECULE
3qm8_HEM_A_1.pdb
 43 50 0 0 0
SMALL
GASTEIGER

@<TRIPOS>ATOM
      1  CHA       -3.0290    0.1010   14.8800 C.2   201  HEM201      0.0000
      2  CHB        0.6700    2.4650   12.9850 C.2   201  HEM201      0.0000
      3  CHC        3.7590   -0.3590   15.4530 C.2   201  HEM201      0.0000
      4  CHD        0.0250   -2.8660   17.1620 C.2   201  HEM201      0.0000
      5  C1A       -2.3100    1.0390   14.1920 C.ar  201  HEM201      0.0000
      6  C2A       -2.8820    2.1140   13.3330 C.ar  201  HEM201      0.0000
      7  C3A       -1.8140    2.7340   12.8100 C.ar  201  HEM201      0.0000
      8  C4A       -0.6110    2.0740   13.3050 C.ar  201  HEM201      0.0000
      9  CMA       -1.8330    3.9050   11.8450 C.3   201  HEM201      0.0000
     10  CAA       -4.3330    2.4480   13.1620 C.3   201  HEM201      0.0000
     11  CBA       -4.7520    3.5260   14.1470 C.3   201  HEM201      0.0000
     12  CGA       -4.5670    3.1500   15.5800 C.2   201  HEM201      0.0000
     13  O1A       -5.2090    2.1910   15.9850 O.co2 201  HEM201      0.0000
     14  O2A       -3.6700    3.7330   16.2600 O.co2 201  HEM201      0.0000
     15  C1B        1.8540    1.9290   13.4810 C.2   201  HEM201      0.0000
     16  C2B        3.1680    2.3860   13.1250 C.2   201  HEM201      0.0000
     17  C3B        4.0610    1.6160   13.8090 C.2   201  HEM201      0.0000
     18  C4B        3.2760    0.6660   14.6150 C.2   201  HEM201      0.0000
     19  CMB        3.4380    3.4830   12.1260 C.3   201  HEM201      0.0000
     20  CAB        5.5510    1.6890   13.8200 C.3   201  HEM201      0.0000
     21  CBB        6.2540    2.9140   13.8790 C.3   201  HEM201      0.0000
     22  C1C        3.0150   -1.3000   16.1320 C.ar  201  HEM201      0.0000
     23  C2C        3.5880   -2.4140   16.8750 C.ar  201  HEM201      0.0000
     24  C3C        2.5400   -3.1530   17.2950 C.ar  201  HEM201      0.0000
     25  C4C        1.3290   -2.4410   16.8950 C.ar  201  HEM201      0.0000
     26  CMC        5.0930   -2.5340   17.1130 C.3   201  HEM201      0.0000
     27  CAC        2.5470   -4.4320   18.0500 C.2   201  HEM201      0.0000
     28  CBC        3.6120   -5.2240   18.0180 C.2   201  HEM201      0.0000
     29  C1D       -1.1250   -2.2690   16.7190 C.2   201  HEM201      0.0000
     30  C2D       -2.4460   -2.7900   16.9500 C.2   201  HEM201      0.0000
     31  C3D       -3.3530   -2.0170   16.2660 C.2   201  HEM201      0.0000
     32  C4D       -2.5030   -0.9530   15.6550 C.2   201  HEM201      0.0000
     33  CMD       -2.7840   -3.9870   17.7720 C.3   201  HEM201      0.0000
     34  CAD       -4.8530   -2.1580   16.1840 C.3   201  HEM201      0.0000
     35  CBD       -5.2240   -3.2070   15.1810 C.3   201  HEM201      0.0000
     36  CGD       -6.7290   -3.2670   14.9790 C.2   201  HEM201      0.0000
     37  O1D       -7.4660   -3.5450   15.9510 O.co2 201  HEM201      0.0000
     38  O2D       -7.2530   -3.0360   13.8440 O.co2 201  HEM201      0.0000
     39  NA        -0.9450    1.0630   14.1630 N.ar  201  HEM201      0.0000
     40  NB         1.9080    0.9050   14.3840 N.2   201  HEM201      0.0000
     41  NC         1.6330   -1.3370   16.1650 N.ar  201  HEM201      0.0000
     42  ND        -1.1850   -1.1370   15.9140 N.2   201  HEM201      0.0000
     43 FE          0.3440   -0.1020   15.2290 Fe    201  HEM201      0.0000
@<TRIPOS>BOND
     1     9     7    1
     2    19    16    1
     3     7     8   ar
     4     7     6   ar
     5     2     8    2
     6     2    15    1
     7    16    15    1
     8    16    17    2
     9    10     6    1
    10    10    11    1
    11     8    39   ar
    12     6     5   ar
    13    15    40    2
    14    17    20    1
    15    17    18    1
    16    20    21    1
    17    38    36   ar
    18    11    12    1
    19    39     5   ar
    20    39    43    1
    21     5     1    2
    22    40    18    1
    23    40    43    1
    24    18     3    2
    25     1    32    1
    26    36    35    1
    27    36    37   ar
    28    35    34    1
    29    43    42    1
    30    43    41    1
    31     3    22    1
    32    12    13   ar
    33    12    14   ar
    34    32    42    2
    35    32    31    1
    36    42    29    1
    37    22    41   ar
    38    22    23   ar
    39    41    25   ar
    40    34    31    1
    41    31    30    2
    42    29    30    1
    43    29     4    2
    44    23    26    1
    45    23    24   ar
    46    25     4    1
    47    25    24   ar
    48    30    33    1
    49    24    27    1
    50    28    27    2
