@<TRIPOS>MOLECULE
3qm9_HEM_A_1.pdb
 43 50 0 0 0
SMALL
GASTEIGER

@<TRIPOS>ATOM
      1  CHA       -2.9970   -0.0170   14.8640 C.2   201  HEM201      0.0000
      2  CHB        0.6620    2.3520   12.8590 C.2   201  HEM201      0.0000
      3  CHC        3.7630   -0.3470   15.4230 C.2   201  HEM201      0.0000
      4  CHD        0.1250   -2.9570   17.1310 C.2   201  HEM201      0.0000
      5  C1A       -2.2980    0.9160   14.1530 C.ar  201  HEM201      0.0000
      6  C2A       -2.8610    1.9360   13.2760 C.ar  201  HEM201      0.0000
      7  C3A       -1.8730    2.5450   12.7370 C.ar  201  HEM201      0.0000
      8  C4A       -0.6170    1.9190   13.2060 C.ar  201  HEM201      0.0000
      9  CMA       -1.8610    3.6970   11.7460 C.3   201  HEM201      0.0000
     10  CAA       -4.3100    2.2650   13.1120 C.3   201  HEM201      0.0000
     11  CBA       -4.6670    3.5870   13.8610 C.3   201  HEM201      0.0000
     12  CGA       -4.3560    3.4450   15.3290 C.2   201  HEM201      0.0000
     13  O1A       -4.9450    2.5280   16.0060 O.co2 201  HEM201      0.0000
     14  O2A       -3.5100    4.2470   15.8040 O.co2 201  HEM201      0.0000
     15  C1B        1.8330    1.8320   13.4010 C.2   201  HEM201      0.0000
     16  C2B        3.1620    2.3130   13.0390 C.2   201  HEM201      0.0000
     17  C3B        4.0440    1.5910   13.7650 C.2   201  HEM201      0.0000
     18  C4B        3.2320    0.6370   14.5660 C.2   201  HEM201      0.0000
     19  CMB        3.3930    3.3970   12.0350 C.3   201  HEM201      0.0000
     20  CAB        5.5090    1.6700   13.7700 C.3   201  HEM201      0.0000
     21  CBB        6.2270    2.8560   13.8060 C.3   201  HEM201      0.0000
     22  C1C        3.0560   -1.3560   16.0960 C.ar  201  HEM201      0.0000
     23  C2C        3.6490   -2.4410   16.8310 C.ar  201  HEM201      0.0000
     24  C3C        2.6160   -3.1950   17.2910 C.ar  201  HEM201      0.0000
     25  C4C        1.4180   -2.5500   16.8410 C.ar  201  HEM201      0.0000
     26  CMC        5.1310   -2.5390   17.0310 C.3   201  HEM201      0.0000
     27  CAC        2.6740   -4.4510   18.0340 C.2   201  HEM201      0.0000
     28  CBC        3.7780   -5.1840   18.0630 C.2   201  HEM201      0.0000
     29  C1D       -1.0280   -2.4150   16.6600 C.2   201  HEM201      0.0000
     30  C2D       -2.3750   -2.9490   16.9510 C.2   201  HEM201      0.0000
     31  C3D       -3.2590   -2.1360   16.2500 C.2   201  HEM201      0.0000
     32  C4D       -2.4610   -1.1050   15.6090 C.2   201  HEM201      0.0000
     33  CMD       -2.6570   -4.1370   17.7890 C.3   201  HEM201      0.0000
     34  CAD       -4.7370   -2.3040   16.1350 C.3   201  HEM201      0.0000
     35  CBD       -5.1150   -3.1710   14.9330 C.3   201  HEM201      0.0000
     36  CGD       -6.6450   -3.3640   14.8520 C.2   201  HEM201      0.0000
     37  O1D       -7.3640   -3.5160   15.8630 O.co2 201  HEM201      0.0000
     38  O2D       -7.1450   -3.3720   13.7060 O.co2 201  HEM201      0.0000
     39  NA        -0.9190    0.9170   14.1100 N.ar  201  HEM201      0.0000
     40  NB         1.8800    0.8160   14.3290 N.2   201  HEM201      0.0000
     41  NC         1.6900   -1.4340   16.1240 N.ar  201  HEM201      0.0000
     42  ND        -1.1070   -1.3150   15.8760 N.2   201  HEM201      0.0000
     43 FE          0.3650   -0.1870   15.1860 Fe    201  HEM201      0.0000
@<TRIPOS>BOND
     1     9     7    1
     2    19    16    1
     3     7     8   ar
     4     7     6   ar
     5     2     8    2
     6     2    15    1
     7    16    15    1
     8    16    17    2
     9    10     6    1
    10    10    11    1
    11     8    39   ar
    12     6     5   ar
    13    15    40    2
    14    38    36   ar
    15    17    20    1
    16    17    18    1
    17    20    21    1
    18    11    12    1
    19    39     5   ar
    20    39    43    1
    21     5     1    2
    22    40    18    1
    23    40    43    1
    24    18     3    2
    25    36    35    1
    26    36    37   ar
    27     1    32    1
    28    35    34    1
    29    43    42    1
    30    43    41    1
    31    12    14   ar
    32    12    13   ar
    33     3    22    1
    34    32    42    2
    35    32    31    1
    36    42    29    1
    37    22    41   ar
    38    22    23   ar
    39    41    25   ar
    40    34    31    1
    41    31    30    2
    42    29    30    1
    43    29     4    2
    44    23    26    1
    45    23    24   ar
    46    25     4    1
    47    25    24   ar
    48    30    33    1
    49    24    27    1
    50    27    28    2
