@<TRIPOS>MOLECULE
3qma_HEM_A_1.pdb
 43 50 0 0 0
SMALL
GASTEIGER

@<TRIPOS>ATOM
      1  CHA       -3.1710    0.3250   14.9550 C.2   201  HEM201      0.0000
      2  CHB        0.5660    2.8370   13.2290 C.2   201  HEM201      0.0000
      3  CHC        3.6100   -0.0200   15.5970 C.2   201  HEM201      0.0000
      4  CHD       -0.0820   -2.7590   17.0160 C.2   201  HEM201      0.0000
      5  C1A       -2.4190    1.2990   14.3190 C.ar  201  HEM201      0.0000
      6  C2A       -2.9340    2.3710   13.5080 C.ar  201  HEM201      0.0000
      7  C3A       -1.9040    3.0550   13.0190 C.ar  201  HEM201      0.0000
      8  C4A       -0.7100    2.4120   13.5020 C.ar  201  HEM201      0.0000
      9  CMA       -1.9130    4.2780   12.1250 C.3   201  HEM201      0.0000
     10  CAA       -4.4160    2.6900   13.2950 C.3   201  HEM201      0.0000
     11  CBA       -4.7940    3.9570   14.0830 C.3   201  HEM201      0.0000
     12  CGA       -4.5090    3.8220   15.5670 C.2   201  HEM201      0.0000
     13  O1A       -3.6270    4.5540   16.1000 O.co2 201  HEM201      0.0000
     14  O2A       -5.1260    2.9250   16.2040 O.co2 201  HEM201      0.0000
     15  C1B        1.7110    2.3020   13.7450 C.2   201  HEM201      0.0000
     16  C2B        3.0410    2.8430   13.5360 C.2   201  HEM201      0.0000
     17  C3B        3.8950    2.0430   14.1960 C.2   201  HEM201      0.0000
     18  C4B        3.0920    1.0010   14.8290 C.2   201  HEM201      0.0000
     19  CMB        3.3470    4.0530   12.6600 C.3   201  HEM201      0.0000
     20  CAB        5.4230    2.1430   14.3150 C.2   201  HEM201      0.0000
     21  CBB        6.0740    3.3230   14.3240 C.2   201  HEM201      0.0000
     22  C1C        2.8570   -1.0340   16.1850 C.ar  201  HEM201      0.0000
     23  C2C        3.4270   -2.1510   16.8610 C.ar  201  HEM201      0.0000
     24  C3C        2.4090   -2.9460   17.2040 C.ar  201  HEM201      0.0000
     25  C4C        1.1830   -2.2820   16.8040 C.ar  201  HEM201      0.0000
     26  CMC        4.9140   -2.3490   17.0820 C.3   201  HEM201      0.0000
     27  CAC        2.4380   -4.2850   17.9130 C.2   201  HEM201      0.0000
     28  CBC        3.5380   -5.0540   17.8350 C.2   201  HEM201      0.0000
     29  C1D       -1.2310   -2.1290   16.6250 C.2   201  HEM201      0.0000
     30  C2D       -2.5270   -2.6650   16.8620 C.2   201  HEM201      0.0000
     31  C3D       -3.4690   -1.7500   16.2150 C.2   201  HEM201      0.0000
     32  C4D       -2.6380   -0.7260   15.6610 C.2   201  HEM201      0.0000
     33  CMD       -2.8980   -3.9190   17.6110 C.3   201  HEM201      0.0000
     34  CAD       -4.9790   -1.9050   16.1680 C.3   201  HEM201      0.0000
     35  CBD       -5.3350   -2.7620   14.9470 C.3   201  HEM201      0.0000
     36  CGD       -6.8120   -3.0710   14.8440 C.2   201  HEM201      0.0000
     37  O1D       -7.1540   -4.2480   14.5450 O.co2 201  HEM201      0.0000
     38  O2D       -7.6440   -2.1490   15.0730 O.co2 201  HEM201      0.0000
     39  NA        -1.0540    1.3290   14.3130 N.ar  201  HEM201      0.0000
     40  NB         1.7630    1.1830   14.5730 N.2   201  HEM201      0.0000
     41  NC         1.4900   -1.1150   16.1600 N.ar  201  HEM201      0.0000
     42  ND        -1.3130   -0.9480   15.9120 N.2   201  HEM201      0.0000
     43 FE          0.2190    0.1310   15.2640 Fe    201  HEM201      0.0000
@<TRIPOS>BOND
     1     9     7    1
     2    19    16    1
     3     7     8   ar
     4     7     6   ar
     5     2     8    2
     6     2    15    1
     7    10     6    1
     8    10    11    1
     9     8    39   ar
    10     6     5   ar
    11    16    15    1
    12    16    17    2
    13    15    40    2
    14    11    12    1
    15    17    20    1
    16    17    18    1
    17    39     5   ar
    18    39    43    1
    19    20    21    2
    20     5     1    2
    21    37    36   ar
    22    40    18    1
    23    40    43    1
    24    18     3    2
    25    36    35    1
    26    36    38   ar
    27    35    34    1
    28     1    32    1
    29    43    42    1
    30    43    41    1
    31    12    13   ar
    32    12    14   ar
    33     3    22    1
    34    32    42    2
    35    32    31    1
    36    42    29    1
    37    41    22   ar
    38    41    25   ar
    39    34    31    1
    40    22    23   ar
    41    31    30    2
    42    29    30    1
    43    29     4    2
    44    25     4    1
    45    25    24   ar
    46    23    26    1
    47    23    24   ar
    48    30    33    1
    49    24    27    1
    50    28    27    2
