@<TRIPOS>MOLECULE
3qmk_IDS_A_1.pdb
 16 16 0 0 0
SMALL
GASTEIGER

@<TRIPOS>ATOM
      1  C1        24.4610  -44.8780   35.6630 C.3     3  IDS3        0.1774
      2  C2        25.9770  -44.7930   35.4640 C.3     3  IDS3        0.2054
      3  C3        26.3210  -44.7010   33.9760 C.3     3  IDS3        0.2169
      4  C4        25.5220  -43.5780   33.3080 C.3     3  IDS3        0.2227
      5  C5        24.0330  -43.7770   33.5940 C.3     3  IDS3        0.2512
      6  C6        23.2160  -42.6380   32.9790 C.2     3  IDS3        0.3940
      7  O2        26.4540  -43.6240   36.1400 O.3     3  IDS3       -0.2384
      8  O3        26.0300  -45.9450   33.3320 O.3     3  IDS3       -0.2175
      9  O4        25.9610  -42.3020   33.7830 O.3     3  IDS3       -0.2171
     10  O5        23.8080  -43.7760   35.0120 O.3     3  IDS3       -0.3403
     11  O61       22.7060  -41.8060   33.7520 O.co2   3  IDS3       -0.2429
     12  O62       23.1000  -42.6130   31.7310 O.co2   3  IDS3       -0.2429
     13  S         27.0020  -43.9270   37.4270 S.3     3  IDS3       -0.0001
     14  O1S       28.3510  -44.5600   37.2520 O.2     3  IDS3       -0.3452
     15  O2S       26.0990  -44.8520   38.1870 O.2     3  IDS3       -0.3452
     16  O3S       27.1360  -42.6530   38.2080 O.3     3  IDS3       -0.2682
@<TRIPOS>BOND
     1    12     6   ar
     2     6     5    1
     3     6    11   ar
     4     4     5    1
     5     4     9    1
     6     4     3    1
     7     8     3    1
     8     5    10    1
     9     3     2    1
    10    10     1    1
    11     2     1    1
    12     2     7    1
    13     7    13    1
    14    14    13    2
    15    13    15    2
    16    13    16    1
