@<TRIPOS>MOLECULE
3qmk_SGN_A_1.pdb
 20 20 0 0 0
SMALL
GASTEIGER

@<TRIPOS>ATOM
      1  C1        20.6440  -48.4560   36.1850 C.3     4  SGN4        0.2895
      2  C2        20.4240  -47.3900   35.1100 C.3     4  SGN4        0.1858
      3  C3        21.7530  -46.9050   34.5270 C.3     4  SGN4        0.2073
      4  C4        22.6480  -46.4400   35.6770 C.3     4  SGN4        0.2133
      5  C5        22.7820  -47.5490   36.7230 C.3     4  SGN4        0.1826
      6  C6        23.6210  -47.0250   37.8880 C.3     4  SGN4        0.2046
      7  N         19.5650  -47.9150   34.0390 N.3     4  SGN4       -0.1129
      8  O1        21.2590  -49.6180   35.6220 O.3     4  SGN4       -0.1882
      9  O3        21.5090  -45.8060   33.6440 O.3     4  SGN4       -0.2186
     10  O4        23.9380  -46.0760   35.1750 O.3     4  SGN4       -0.2176
     11  O5        21.4800  -47.9080   37.2170 O.3     4  SGN4       -0.3245
     12  O6        23.7460  -48.0320   38.8930 O.3     4  SGN4       -0.2384
     13  S1        18.0000  -47.6380   34.4010 S.3     4  SGN4       -0.1288
     14  O1S       17.7930  -46.1660   34.6090 O.3     4  SGN4       -0.2918
     15  O2S       17.1410  -48.1060   33.2630 O.3     4  SGN4       -0.2918
     16  O3S       17.6340  -48.3790   35.6530 O.3     4  SGN4       -0.2918
     17  S2        24.3250  -47.6970   40.1560 S.3     4  SGN4       -0.0001
     18  O4S       25.1740  -46.4690   40.0060 O.2     4  SGN4       -0.3452
     19  O5S       23.2410  -47.4240   41.1570 O.3     4  SGN4       -0.2682
     20  O6S       25.1720  -48.8430   40.6260 O.2     4  SGN4       -0.3452
@<TRIPOS>BOND
     1    15    13    1
     2     9     3    1
     3     7    13    1
     4     7     2    1
     5    13    14    1
     6    13    16    1
     7     3     2    1
     8     3     4    1
     9     2     1    1
    10    10     4    1
    11     8     1    1
    12     4     5    1
    13     1    11    1
    14     5    11    1
    15     5     6    1
    16     6    12    1
    17    12    17    1
    18    18    17    2
    19    17    20    2
    20    17    19    1
