@<TRIPOS>MOLECULE
3qmn_A3P_O_1.pdb
 27 29 0 0 0
SMALL
GASTEIGER

@<TRIPOS>ATOM
      1  P1        24.7570  -15.7410   94.2120 P.3   2575  A3P2575     0.5327
      2  O1P       23.2960  -15.9540   94.5440 O.3   2575  A3P2575    -0.1145
      3  O2P       25.5990  -16.9930   94.2620 O.3   2575  A3P2575    -0.1145
      4  O3P       25.0000  -14.8900   92.9870 O.2   2575  A3P2575    -0.2224
      5  P2        23.2110  -11.1630   97.6670 P.3   2575  A3P2575     0.5327
      6  O4P       24.2400  -10.2960   98.3460 O.3   2575  A3P2575    -0.1145
      7  O5P       21.9500  -11.3570   98.4710 O.3   2575  A3P2575    -0.1145
      8  O6P       22.9740  -10.7980   96.2160 O.2   2575  A3P2575    -0.2224
      9  O5'       23.8700  -12.6440   97.6450 O.3   2575  A3P2575    -0.2675
     10  C5'       25.2190  -12.8570   98.0460 C.3   2575  A3P2575     0.1859
     11  C4'       25.7260  -14.2810   97.8050 C.3   2575  A3P2575     0.1796
     12  O4'       25.6790  -15.0430   99.0170 O.3   2575  A3P2575    -0.3136
     13  C3'       24.9500  -15.1190   96.7900 C.3   2575  A3P2575     0.1928
     14  O3'       25.3160  -14.8590   95.4400 O.3   2575  A3P2575    -0.2673
     15  C2'       25.3070  -16.5330   97.2080 C.3   2575  A3P2575     0.2543
     16  O2'       26.4340  -17.0310   96.4740 O.3   2575  A3P2575    -0.2131
     17  C1'       25.6370  -16.4310   98.6930 C.3   2575  A3P2575     0.3185
     18  N9        24.5810  -17.1700   99.4220 N.pl3 2575  A3P2575    -0.1439
     19  C8        23.2490  -16.9960   99.2910 C.3   2575  A3P2575     0.3377
     20  N7        22.5670  -17.8630  100.0890 N.2   2575  A3P2575    -0.2095
     21  C5        23.4870  -18.6210  100.7320 C.2   2575  A3P2575     0.2526
     22  C6        23.4610  -19.7250  101.7150 C.2   2575  A3P2575     0.4393
     23  N6        22.2800  -20.2070  102.1730 N.pl3 2575  A3P2575     0.2180
     24  N1        24.6460  -20.2380  102.1270 N.2   2575  A3P2575     0.0021
     25  C2        25.8200  -19.7520  101.6760 C.3   2575  A3P2575     0.5254
     26  N3        25.9150  -18.7500  100.7820 N.2   2575  A3P2575    -0.0055
     27  C4        24.8060  -18.1530  100.2910 C.2   2575  A3P2575     0.3518
@<TRIPOS>BOND
     1     4     1    2
     2     1     3    1
     3     1     2    1
     4     1    14    1
     5    14    13    1
     6     8     5    2
     7    16    15    1
     8    13    15    1
     9    13    11    1
    10    15    17    1
    11     9     5    1
    12     9    10    1
    13     5     6    1
    14     5     7    1
    15    11    10    1
    16    11    12    1
    17    17    12    1
    18    17    18    1
    19    19    18    1
    20    19    20    1
    21    18    27    1
    22    20    21    2
    23    27    21    1
    24    27    26    2
    25    21    22    1
    26    26    25    1
    27    25    24    1
    28    22    24    2
    29    22    23    1
