@<TRIPOS>MOLECULE
3qmn_COA_A_1.pdb
 48 50 0 0 0
SMALL
GASTEIGER

@<TRIPOS>ATOM
      1  N1A       69.9820   30.7110  100.7110 N.2   127  COA127      0.0021
      2  C2A       69.4600   30.4900   99.4900 C.3   127  COA127      0.5254
      3  N3A       68.5240   29.5550   99.2900 N.2   127  COA127     -0.0055
      4  C4A       68.0870   28.8030  100.3010 C.2   127  COA127      0.3518
      5  C5A       68.5980   28.9900  101.5770 C.2   127  COA127      0.2526
      6  C6A       69.5850   29.9580  101.7670 C.2   127  COA127      0.4393
      7  N6A       70.1380   30.1680  103.0010 N.pl3 127  COA127      0.2180
      8  N7A       67.9740   28.0910  102.3780 N.2   127  COA127     -0.2095
      9  C8A       67.1100   27.3540  101.6220 C.3   127  COA127      0.3377
     10  N9A       67.1970   27.7970  100.3430 N.pl3 127  COA127     -0.1439
     11  C1B       66.4920   27.2890   99.1650 C.3   127  COA127      0.3185
     12  C2B       66.8060   25.7790   99.0310 C.3   127  COA127      0.2543
     13  O2B       67.0660   25.4780   97.6630 O.3   127  COA127     -0.2131
     14  C3B       65.5310   25.1030   99.5000 C.3   127  COA127      0.1928
     15  O3B       65.2050   23.8600   98.8700 O.3   127  COA127     -0.2673
     16  P3B       66.1610   22.5620   99.0880 P.3   127  COA127      0.5327
     17  O7A       66.5970   22.6620  100.5190 O.3   127  COA127     -0.1145
     18  O8A       65.2320   21.4120   98.7180 O.3   127  COA127     -0.1145
     19  O9A       67.2830   22.8100   98.0930 O.2   127  COA127     -0.2224
     20  C4B       64.5280   26.1250   99.0150 C.3   127  COA127      0.1795
     21  O4B       65.0930   27.3920   99.3120 O.3   127  COA127     -0.3136
     22  C5B       63.1810   26.0070   99.6650 C.3   127  COA127      0.1812
     23  O5B       62.5010   27.2160   99.3250 O.3   127  COA127     -0.3112
     24  P1A       60.9140   27.2970   99.4050 P.3   127  COA127      0.2189
     25  O1A       60.3150   25.9790   99.2090 O.3   127  COA127     -0.4371
     26  O2A       60.4880   28.4460   98.5450 O.2   127  COA127     -0.5170
     27  O3A       60.5880   27.9640  100.8080 O.3   127  COA127     -0.2703
     28  P2A       60.6250   27.4390  102.2810 P.3   127  COA127      0.2188
     29  O4A       61.0810   26.0120  102.3540 O.2   127  COA127     -0.5170
     30  O5A       59.3380   27.9280  102.8180 O.3   127  COA127     -0.4371
     31  O6A       61.8850   28.3060  102.8470 O.3   127  COA127     -0.3138
     32  CBP       63.1150   30.3910  103.3100 C.3   127  COA127      0.0645
     33  CCP       61.8640   29.7230  102.7230 C.3   127  COA127      0.1519
     34  CDP       64.2930   29.9960  102.4340 C.3   127  COA127      0.0056
     35  CEP       62.9180   31.8970  103.1450 C.3   127  COA127      0.0056
     36  CAP       63.4100   29.9910  104.7690 C.3   127  COA127      0.2312
     37  OAP       64.5340   30.7620  105.2600 O.3   127  COA127     -0.2131
     38  C9P       62.2330   30.1890  105.6950 C.2   127  COA127      0.2719
     39  O9P       61.0950   29.5200  105.5340 O.2   127  COA127     -0.2706
     40  N8P       62.2880   31.0510  106.7120 N.am  127  COA127     -0.2028
     41  C7P       61.1850   31.2850  107.6410 C.3   127  COA127      0.1248
     42  C6P       60.1650   32.1610  106.9260 C.3   127  COA127      0.1102
     43  C5P       59.0020   32.3730  107.8440 C.2   127  COA127      0.2432
     44  O5P       59.0880   33.1570  108.7780 O.2   127  COA127     -0.2733
     45  N4P       57.9290   31.6460  107.5670 N.am  127  COA127     -0.2044
     46  C3P       56.6760   31.6340  108.3000 C.3   127  COA127      0.1276
     47  C2P       55.5600   31.7380  107.2610 C.3   127  COA127      0.0920
     48  S1P       55.0100   33.4530  107.3020 S.3   127  COA127     -0.0802
@<TRIPOS>BOND
     1    13    12    1
     2    19    16    2
     3    26    24    2
     4    18    16    1
     5    15    16    1
     6    15    14    1
     7    20    21    1
     8    20    14    1
     9    20    22    1
    10    12    11    1
    11    12    14    1
    12    16    17    1
    13    11    21    1
    14    11    10    1
    15    25    24    1
    16     3     2    1
    17     3     4    2
    18    23    24    1
    19    23    22    1
    20    24    27    1
    21     2     1    1
    22     4    10    1
    23     4     5    1
    24    10     9    1
    25     1     6    2
    26    27    28    1
    27     5     6    1
    28     5     8    2
    29     9     8    1
    30     6     7    1
    31    28    29    2
    32    28    30    1
    33    28    31    1
    34    34    32    1
    35    33    31    1
    36    33    32    1
    37    35    32    1
    38    32    36    1
    39    36    37    1
    40    36    38    1
    41    39    38    2
    42    38    40   am
    43    40    41    1
    44    42    41    1
    45    42    43    1
    46    47    48    1
    47    47    46    1
    48    45    43   am
    49    45    46    1
    50    43    44    2
