@<TRIPOS>MOLECULE
3qmo_NS4_A_1.pdb
 21 22 0 0 0
SMALL
GASTEIGER

@<TRIPOS>ATOM
      1  C1        41.2670   52.4650   68.1380 C.ar  619  NS4619      0.1245
      2  N1        41.2750   52.4110   66.8090 N.pl3 619  NS4619     -0.0975
      3  O1        42.0540   54.7160   66.0850 O.2   619  NS4619     -0.1528
      4  S1        42.3880   53.2610   66.0070 S.O2  619  NS4619      0.0751
      5  C2        40.2360   51.8390   68.8350 C.ar  619  NS4619      0.1566
      6  N2        41.1650   52.5760   72.2160 N.pl3 619  NS4619      0.0578
      7  O2        43.7330   53.0760   66.6540 O.2   619  NS4619     -0.1528
      8  C3        40.1920   51.8980   70.2170 C.ar  619  NS4619      0.0623
      9  O3        40.0110   52.0840   72.9240 O.2   619  NS4619     -0.1261
     10  C4        41.2020   52.5540   70.8980 C.ar  619  NS4619      0.1460
     11  O4        42.3380   52.9890   72.9250 O.2   619  NS4619     -0.1261
     12  C5        42.2530   53.1720   70.2180 C.ar  619  NS4619      0.0257
     13  O5        39.2380   51.2230   68.1570 O.3   619  NS4619     -0.4778
     14  C6        42.2840   53.1290   68.8330 C.ar  619  NS4619      0.0228
     15  C7        42.4790   52.7130   64.3240 C.3   619  NS4619      0.2016
     16  C8        39.2110   49.8200   68.0050 C.3   619  NS4619      0.1660
     17  C9        37.7400   49.6800   67.5200 C.3   619  NS4619      0.0435
     18  C10       37.2920   48.2250   67.5580 C.3   619  NS4619      0.0037
     19  C11       37.5620   47.6000   68.9400 C.3   619  NS4619      0.0002
     20  C12       39.0390   47.6320   69.3010 C.3   619  NS4619      0.0037
     21  C13       39.5700   49.0610   69.2980 C.3   619  NS4619      0.0435
@<TRIPOS>BOND
     1    15     4    1
     2     4     3    2
     3     4     7    2
     4     4     2    1
     5     2     1    1
     6    17    18    1
     7    17    16    1
     8    18    19    1
     9    16    13    1
    10    16    21    1
    11     1    14   ar
    12     1     5   ar
    13    13     5    1
    14    14    12   ar
    15     5     8   ar
    16    19    20    1
    17    21    20    1
    18     8    10   ar
    19    12    10   ar
    20    10     6    1
    21     6     9    2
    22     6    11    2
