@<TRIPOS>MOLECULE
3qmo_HEM_A_1.pdb
 43 50 0 0 0
SMALL
GASTEIGER

@<TRIPOS>ATOM
      1  CHA       27.0890   36.4340   70.8850 C.2   620  HEM620      0.0000
      2  CHB       23.9170   37.2260   74.4500 C.2   620  HEM620      0.0000
      3  CHC       25.0600   41.9170   74.1830 C.2   620  HEM620      0.0000
      4  CHD       28.8520   40.9680   71.3350 C.2   620  HEM620      0.0000
      5  C1A       26.1040   36.2180   71.8200 C.2   620  HEM620      0.0000
      6  C2A       25.3750   34.9710   72.0520 C.2   620  HEM620      0.0000
      7  C3A       24.4930   35.2110   73.0450 C.2   620  HEM620      0.0000
      8  C4A       24.6350   36.5950   73.4670 C.2   620  HEM620      0.0000
      9  CMA       23.4870   34.2090   73.6570 C.3   620  HEM620      0.0000
     10  CAA       25.5280   33.5950   71.3370 C.3   620  HEM620      0.0000
     11  CBA       26.5590   33.5050   70.2140 C.3   620  HEM620      0.0000
     12  CGA       27.7760   32.6850   70.6240 C.2   620  HEM620      0.0000
     13  O1A       27.5930   31.6000   71.2660 O.co2 620  HEM620      0.0000
     14  O2A       28.9400   33.1050   70.2960 O.co2 620  HEM620      0.0000
     15  C1B       23.8580   38.5860   74.5640 C.ar  620  HEM620      0.0000
     16  C2B       22.7690   39.3410   75.1500 C.ar  620  HEM620      0.0000
     17  C3B       23.0850   40.6370   75.0670 C.ar  620  HEM620      0.0000
     18  C4B       24.3850   40.7450   74.4310 C.ar  620  HEM620      0.0000
     19  CMB       21.4750   38.7450   75.7570 C.3   620  HEM620      0.0000
     20  CAB       22.2180   41.8100   75.5640 C.2   620  HEM620      0.0000
     21  CBB       22.1010   42.0540   76.8680 C.2   620  HEM620      0.0000
     22  C1C       26.2200   42.0670   73.4580 C.2   620  HEM620      0.0000
     23  C2C       26.9930   43.2850   73.3310 C.2   620  HEM620      0.0000
     24  C3C       28.0400   43.0490   72.5420 C.2   620  HEM620      0.0000
     25  C4C       27.9690   41.6490   72.1400 C.2   620  HEM620      0.0000
     26  CMC       26.6560   44.6370   73.9950 C.3   620  HEM620      0.0000
     27  CAC       29.1210   44.0970   72.1660 C.2   620  HEM620      0.0000
     28  CBC       29.6130   44.1690   70.9330 C.2   620  HEM620      0.0000
     29  C1D       28.6730   39.6920   70.8520 C.ar  620  HEM620      0.0000
     30  C2D       29.3830   39.1070   69.7370 C.ar  620  HEM620      0.0000
     31  C3D       28.8300   37.6960   69.5760 C.ar  620  HEM620      0.0000
     32  C4D       27.8370   37.5710   70.6320 C.ar  620  HEM620      0.0000
     33  CMD       30.4630   39.7690   68.8720 C.3   620  HEM620      0.0000
     34  CAD       29.2650   36.6550   68.5090 C.3   620  HEM620      0.0000
     35  CBD       28.0560   35.9710   67.8830 C.3   620  HEM620      0.0000
     36  CGD       28.1870   35.7110   66.4080 C.2   620  HEM620      0.0000
     37  O1D       29.3250   35.5930   65.8870 O.co2 620  HEM620      0.0000
     38  O2D       27.1230   35.6170   65.7400 O.co2 620  HEM620      0.0000
     39  NA        25.6300   37.1830   72.7010 N.2   620  HEM620      0.0000
     40  NB        24.8320   39.4710   74.1280 N.ar  620  HEM620      0.0000
     41  NC        26.8430   41.0860   72.7130 N.2   620  HEM620      0.0000
     42  ND        27.7710   38.7620   71.3500 N.ar  620  HEM620      0.0000
     43 FE         26.3320   39.1200   72.7340 Fe    620  HEM620      0.0000
@<TRIPOS>BOND
     1    38    36   ar
     2    37    36   ar
     3    36    35    1
     4    35    34    1
     5    34    31    1
     6    33    30    1
     7    31    30   ar
     8    31    32   ar
     9    30    29   ar
    10    11    12    1
    11    11    10    1
    12    14    12   ar
    13    12    13   ar
    14    32     1    2
    15    32    42   ar
    16    29     4    2
    17    29    42   ar
    18     1     5    1
    19    28    27    2
    20     4    25    1
    21    10     6    1
    22    42    43    1
    23     5     6    1
    24     5    39    2
    25     6     7    2
    26    25    24    1
    27    25    41    2
    28    27    24    1
    29    24    23    2
    30    39    43    1
    31    39     8    1
    32    41    43    1
    33    41    22    1
    34    43    40    1
    35     7     8    1
    36     7     9    1
    37    23    22    1
    38    23    26    1
    39    22     3    2
    40     8     2    2
    41    40    18   ar
    42    40    15   ar
    43     3    18    1
    44    18    17   ar
    45     2    15    1
    46    15    16   ar
    47    17    16   ar
    48    17    20    1
    49    16    19    1
    50    20    21    2
