@<TRIPOS>MOLECULE
3qmr_BMP_A_1.pdb
 22 23 0 0 0
SMALL
GASTEIGER

@<TRIPOS>ATOM
      1  P         25.1610   -2.3760    8.4090 P.3   229  BMP229      0.5327
      2  OP1       24.4190   -3.1630    7.3810 O.2   229  BMP229     -0.2224
      3  OP2       25.8710   -3.3430    9.4740 O.3   229  BMP229     -0.1145
      4  OP3       26.1880   -1.3560    7.7310 O.3   229  BMP229     -0.1145
      5  O5'       24.1630   -1.5470    9.3260 O.3   229  BMP229     -0.2675
      6  C5'       23.0130   -0.8990    8.8040 C.3   229  BMP229      0.1859
      7  C4'       22.2630   -0.2030    9.9070 C.3   229  BMP229      0.1801
      8  O4'       21.2020    0.5870    9.3380 O.3   229  BMP229     -0.3319
      9  C3'       21.6160   -1.1230   10.9330 C.3   229  BMP229      0.2158
     10  O3'       21.5930   -0.4700   12.2110 O.3   229  BMP229     -0.2175
     11  C2'       20.1910   -1.2530   10.4370 C.3   229  BMP229      0.2320
     12  O2'       19.2730   -1.5200   11.4730 O.3   229  BMP229     -0.2157
     13  C1'       19.9460    0.1240    9.7990 C.3   229  BMP229      0.2425
     14  N1        19.0230    0.1280    8.6640 N.am  229  BMP229     -0.1473
     15  C2        19.1730   -0.6810    7.5930 C.1   229  BMP229      0.2863
     16  O2        20.0950   -1.4730    7.5150 O.2   229  BMP229     -0.1918
     17  N3        18.3040   -0.5940    6.5630 N.2   229  BMP229     -0.2489
     18  C4        17.2820    0.2880    6.5730 C.1   229  BMP229      0.2018
     19  O4        16.5000    0.3350    5.6290 O.2   229  BMP229     -0.2129
     20  C5        17.1100    1.1370    7.6770 C.3   229  BMP229      0.2213
     21  C6        18.0070    1.0450    8.7010 C.2   229  BMP229      0.2591
     22  O1        17.8880    1.8690    9.7540 O.2   229  BMP229     -0.2725
@<TRIPOS>BOND
     1    19    18    2
     2    17    18    2
     3    17    15    2
     4    18    20    1
     5     2     1    2
     6    16    15    2
     7    15    14   am
     8    20    21    1
     9     4     1    1
    10     1     5    1
    11     1     3    1
    12    14    21   am
    13    14    13    1
    14    21    22    2
    15     6     5    1
    16     6     7    1
    17     8    13    1
    18     8     7    1
    19    13    11    1
    20     7     9    1
    21    11     9    1
    22    11    12    1
    23     9    10    1
