@<TRIPOS>MOLECULE
3qms_BMP_A_1.pdb
 22 23 0 0 0
SMALL
GASTEIGER

@<TRIPOS>ATOM
      1  P         25.1500   -2.4400    8.2860 P.3   229  BMP229      0.5327
      2  OP1       24.4010   -3.1890    7.2480 O.2   229  BMP229     -0.2224
      3  OP2       25.8870   -3.3880    9.3210 O.3   229  BMP229     -0.1145
      4  OP3       26.1450   -1.4030    7.6380 O.3   229  BMP229     -0.1145
      5  O5'       24.1530   -1.6290    9.2270 O.3   229  BMP229     -0.2675
      6  C5'       22.9450   -1.0560    8.7420 C.3   229  BMP229      0.1859
      7  C4'       22.2660   -0.3090    9.8560 C.3   229  BMP229      0.1801
      8  O4'       21.2320    0.5400    9.3160 O.3   229  BMP229     -0.3319
      9  C3'       21.6010   -1.1910   10.9030 C.3   229  BMP229      0.2158
     10  O3'       21.6080   -0.5220   12.1620 O.3   229  BMP229     -0.2175
     11  C2'       20.1690   -1.2880   10.4060 C.3   229  BMP229      0.2320
     12  O2'       19.2400   -1.5430   11.4490 O.3   229  BMP229     -0.2157
     13  C1'       19.9590    0.1040    9.7640 C.3   229  BMP229      0.2425
     14  N1        19.0320    0.1300    8.6100 N.am  229  BMP229     -0.1473
     15  C2        19.1630   -0.6720    7.5320 C.1   229  BMP229      0.2863
     16  O2        20.0760   -1.4890    7.4370 O.2   229  BMP229     -0.1918
     17  N3        18.2720   -0.5800    6.5260 N.2   229  BMP229     -0.2489
     18  C4        17.2450    0.3020    6.5150 C.1   229  BMP229      0.2018
     19  O4        16.4820    0.3160    5.5480 O.2   229  BMP229     -0.2129
     20  C5        17.0800    1.1540    7.6120 C.3   229  BMP229      0.2213
     21  C6        18.0100    1.0610    8.6250 C.2   229  BMP229      0.2591
     22  O1        17.9580    1.8680    9.6820 O.2   229  BMP229     -0.2725
@<TRIPOS>BOND
     1    19    18    2
     2    18    17    2
     3    18    20    1
     4    17    15    2
     5     2     1    2
     6    16    15    2
     7    15    14   am
     8    20    21    1
     9     4     1    1
    10     1     5    1
    11     1     3    1
    12    14    21   am
    13    14    13    1
    14    21    22    2
    15     6     5    1
    16     6     7    1
    17     8    13    1
    18     8     7    1
    19    13    11    1
    20     7     9    1
    21    11     9    1
    22    11    12    1
    23     9    10    1
