@<TRIPOS>MOLECULE
3qmt_BMP_A_1.pdb
 22 23 0 0 0
SMALL
GASTEIGER

@<TRIPOS>ATOM
      1  P         25.1990   -2.4410    8.2790 P.3   229  BMP229      0.5327
      2  OP1       24.4290   -3.2000    7.2660 O.2   229  BMP229     -0.2224
      3  OP2       25.9290   -3.3930    9.3040 O.3   229  BMP229     -0.1145
      4  OP3       26.2020   -1.4190    7.6180 O.3   229  BMP229     -0.1145
      5  O5'       24.2010   -1.6480    9.2290 O.3   229  BMP229     -0.2675
      6  C5'       23.0240   -1.0220    8.7340 C.3   229  BMP229      0.1859
      7  C4'       22.3430   -0.2760    9.8450 C.3   229  BMP229      0.1801
      8  O4'       21.2990    0.5630    9.3000 O.3   229  BMP229     -0.3319
      9  C3'       21.6810   -1.1540   10.8950 C.3   229  BMP229      0.2158
     10  O3'       21.7070   -0.4870   12.1500 O.3   229  BMP229     -0.2175
     11  C2'       20.2410   -1.2450   10.4140 C.3   229  BMP229      0.2320
     12  O2'       19.3190   -1.5020   11.4580 O.3   229  BMP229     -0.2157
     13  C1'       20.0360    0.1440    9.7770 C.3   229  BMP229      0.2425
     14  N1        19.0890    0.1720    8.6400 N.am  229  BMP229     -0.1473
     15  C2        19.2180   -0.6230    7.5630 C.1   229  BMP229      0.2863
     16  O2        20.1300   -1.4360    7.4770 O.2   229  BMP229     -0.1918
     17  N3        18.3100   -0.5330    6.5650 N.2   229  BMP229     -0.2489
     18  C4        17.2790    0.3480    6.5660 C.1   229  BMP229      0.2018
     19  O4        16.5030    0.3710    5.6100 O.2   229  BMP229     -0.2129
     20  C5        17.1440    1.2070    7.6640 C.3   229  BMP229      0.2213
     21  C6        18.0780    1.1080    8.6620 C.2   229  BMP229      0.2591
     22  O1        18.0420    1.9170    9.7140 O.2   229  BMP229     -0.2725
@<TRIPOS>BOND
     1    19    18    2
     2    17    18    2
     3    17    15    2
     4    18    20    1
     5     2     1    2
     6    16    15    2
     7    15    14   am
     8     4     1    1
     9    20    21    1
    10     1     5    1
    11     1     3    1
    12    14    21   am
    13    14    13    1
    14    21    22    2
    15     6     5    1
    16     6     7    1
    17     8    13    1
    18     8     7    1
    19    13    11    1
    20     7     9    1
    21    11     9    1
    22    11    12    1
    23     9    10    1
