@<TRIPOS>MOLECULE
3qmu_XEG_A_1.pdb
 32 35 0 0 0
SMALL
GASTEIGER

@<TRIPOS>ATOM
      1  OAA       -2.8700    0.1750    7.0330 O.2   601  XEG601     -0.2449
      2  OAB      -10.3400    3.5330   11.8620 O.3   601  XEG601     -0.2864
      3  OAC       -5.0730   -0.7410   16.2340 O.3   601  XEG601     -0.2831
      4  OAD       -7.5170   -0.9620   15.1170 O.3   601  XEG601     -0.2832
      5  OAE       -2.9070    5.6650    7.6920 O.3   601  XEG601     -0.2830
      6  OAF       -0.3470    3.2090   11.0000 O.3   601  XEG601     -0.2830
      7  OAG       -5.9530    5.1010   10.5930 O.3   601  XEG601     -0.2867
      8  OAH       -1.0530    5.6900    9.7330 O.3   601  XEG601     -0.2797
      9  CAI       -4.0970   -0.2690   14.0850 C.ar  601  XEG601      0.0452
     10  CAJ       -4.2710   -0.0840   12.7160 C.ar  601  XEG601      0.0028
     11  CAK       -8.1310    4.3140   11.2360 C.ar  601  XEG601      0.0839
     12  CAL       -3.0630    3.2690    7.8300 C.ar  601  XEG601      0.0520
     13  CAM       -1.7790    2.0760    9.4980 C.ar  601  XEG601      0.0520
     14  CAN       -8.7180    1.9210   11.1180 C.ar  601  XEG601      0.0788
     15  CAO       -6.6290   -0.4600   12.9500 C.ar  601  XEG601      0.0447
     16  CAP       -5.0900    2.3420    9.9820 C.3   601  XEG601      0.0805
     17  OAQ       -4.3420    0.3800    8.6920 O.3   601  XEG601     -0.4447
     18  OAR       -7.0490    0.3430   10.3470 O.3   601  XEG601     -0.4711
     19  CAS       -3.3120    0.7870    8.0520 C.2   601  XEG601      0.3414
     20  CAT       -9.0730    3.2490   11.4100 C.ar  601  XEG601      0.2019
     21  CAU       -5.1970   -0.5460   14.8790 C.ar  601  XEG601      0.2342
     22  CAV       -6.4510   -0.6460   14.3120 C.ar  601  XEG601      0.2341
     23  CAW       -2.5190    4.4710    8.2720 C.ar  601  XEG601      0.2377
     24  CAX       -1.2310    3.2680    9.9420 C.ar  601  XEG601      0.2377
     25  CAY       -6.8290    4.0430   10.7710 C.ar  601  XEG601      0.1979
     26  CAZ       -2.6870    2.0800    8.4480 C.ar  601  XEG601      0.0822
     27  CBA       -5.5380   -0.1660   12.1370 C.ar  601  XEG601      0.0242
     28  CBB       -1.5990    4.4780    9.3270 C.ar  601  XEG601      0.2727
     29  CBC       -7.4130    1.6410   10.6560 C.ar  601  XEG601      0.1414
     30  CBD       -6.4680    2.6930   10.4810 C.ar  601  XEG601      0.0546
     31  CBE       -4.7070    0.8830    9.9890 C.3   601  XEG601      0.2175
     32  CBF       -5.7370   -0.0090   10.6230 C.3   601  XEG601      0.2282
@<TRIPOS>BOND
     1     1    19    2
     2     5    23    1
     3    12    23   ar
     4    12    26   ar
     5    19    26    1
     6    19    17    1
     7    23    28   ar
     8    26    13   ar
     9    17    31    1
    10    28     8    1
    11    28    24   ar
    12    13    24   ar
    13    24     6    1
    14    16    31    1
    15    16    30    1
    16    31    32    1
    17    18    32    1
    18    18    29    1
    19    30    29   ar
    20    30    25   ar
    21     7    25    1
    22    32    27    1
    23    29    14   ar
    24    25    11   ar
    25    14    20   ar
    26    11    20   ar
    27    20     2    1
    28    27    10   ar
    29    27    15   ar
    30    10     9   ar
    31    15    22   ar
    32     9    21   ar
    33    22    21   ar
    34    22     4    1
    35    21     3    1
