@<TRIPOS>MOLECULE
3qmu_NDP_A_1.pdb
 48 52 0 0 0
SMALL
GASTEIGER

@<TRIPOS>ATOM
      1  PA         9.1110   -2.2970   36.7310 P.3   552  NDP552      0.2189
      2  O1A       10.0430   -1.2050   36.3920 O.2   552  NDP552     -0.5170
      3  O2A        9.8480   -3.5350   37.0490 O.3   552  NDP552     -0.4371
      4  O5B        8.1100   -1.8520   37.9040 O.3   552  NDP552     -0.3112
      5  C5B        8.5620   -1.9100   39.2300 C.3   552  NDP552      0.1813
      6  C4B        8.4540   -0.5600   39.9230 C.3   552  NDP552      0.1820
      7  O4B        7.1950   -0.4090   40.5600 O.3   552  NDP552     -0.3136
      8  C3B        9.4950   -0.5130   41.0230 C.3   552  NDP552      0.2157
      9  O3B        9.8420    0.8360   41.2330 O.3   552  NDP552     -0.2175
     10  C2B        8.7100   -1.0540   42.1990 C.3   552  NDP552      0.2314
     11  O2B        9.3690   -0.8410   43.4340 O.3   552  NDP552     -0.2630
     12  C1B        7.3910   -0.3300   41.9630 C.3   552  NDP552      0.3158
     13  N9A        6.2360   -0.8990   42.6650 N.pl3 552  NDP552     -0.1439
     14  C8A        5.6930   -2.1360   42.4830 C.3   552  NDP552      0.3377
     15  N7A        4.6320   -2.2590   43.3110 N.2   552  NDP552     -0.2095
     16  C5A        4.4860   -1.1150   44.0100 C.2   552  NDP552      0.2526
     17  C6A        3.5580   -0.7200   44.9700 C.2   552  NDP552      0.4393
     18  N6A        2.3560   -1.2980   44.9470 N.pl3 552  NDP552      0.2180
     19  N1A        3.6720    0.5490   45.5180 N.2   552  NDP552      0.0021
     20  C2A        4.6760    1.4080   45.1050 C.3   552  NDP552      0.5254
     21  N3A        5.5850    0.9970   44.1460 N.2   552  NDP552     -0.0055
     22  C4A        5.4910   -0.2460   43.6080 C.2   552  NDP552      0.3518
     23  O3         8.0760   -2.4990   35.5390 O.3   552  NDP552     -0.2703
     24  PN         7.6190   -1.1670   34.7850 P.3   552  NDP552      0.2189
     25  O1N        8.2650   -1.1240   33.4560 O.2   552  NDP552     -0.5170
     26  O2N        7.7570   -0.0550   35.7470 O.3   552  NDP552     -0.4371
     27  O5D        6.0560   -1.4480   34.6030 O.3   552  NDP552     -0.3112
     28  C5D        5.1740   -1.0540   35.6270 C.3   552  NDP552      0.1813
     29  C4D        3.9260   -0.4280   35.0100 C.3   552  NDP552      0.1799
     30  O4D        4.2490    0.1570   33.7590 O.3   552  NDP552     -0.3327
     31  C3D        2.8430   -1.4750   34.7670 C.3   552  NDP552      0.2158
     32  O3D        1.5940   -1.0370   35.2420 O.3   552  NDP552     -0.2175
     33  C2D        2.7660   -1.6290   33.2670 C.3   552  NDP552      0.2309
     34  O2D        1.4180   -1.7300   32.8790 O.3   552  NDP552     -0.2158
     35  C1D        3.4070   -0.3570   32.7340 C.3   552  NDP552      0.2263
     36  N1N        4.1120   -0.5950   31.4460 N.pl3 552  NDP552     -0.2787
     37  C2N        3.3560   -0.9560   30.3740 C.3   552  NDP552      0.1244
     38  C3N        3.9090   -1.1910   29.1210 C.2   552  NDP552      0.0544
     39  C7N        2.9580   -1.6000   28.0260 C.2   552  NDP552      0.2818
     40  O7N        2.6090   -0.6620   27.0180 O.2   552  NDP552     -0.2670
     41  N7N        2.4770   -2.8550   28.0550 N.am  552  NDP552     -0.0839
     42  C4N        5.4060   -1.0710   28.8650 C.2   552  NDP552      0.0033
     43  C5N        6.1420   -0.6710   30.1090 C.2   552  NDP552      0.0157
     44  C6N        5.4730   -0.4570   31.3170 C.2   552  NDP552      0.0633
     45  P2B       10.3780   -1.9650   44.0240 P.3   552  NDP552      0.5328
     46  O1X       11.2490   -1.3600   45.0980 O.3   552  NDP552     -0.1145
     47  O2X        9.5720   -3.0700   44.6570 O.3   552  NDP552     -0.1145
     48  O3X       11.2630   -2.5090   42.9230 O.2   552  NDP552     -0.2224
@<TRIPOS>BOND
     1    40    39    2
     2    39    41   am
     3    39    38    1
     4    42    38    2
     5    42    43    1
     6    38    37    1
     7    43    44    2
     8    37    36    1
     9    44    36    1
    10    36    35    1
    11    35    33    1
    12    35    30    1
    13    34    33    1
    14    33    31    1
    15    25    24    2
    16    30    29    1
    17    27    24    1
    18    27    28    1
    19    31    29    1
    20    31    32    1
    21    24    23    1
    22    24    26    1
    23    29    28    1
    24    23     1    1
    25     2     1    2
    26     1     3    1
    27     1     4    1
    28     4     5    1
    29     5     6    1
    30     6     7    1
    31     6     8    1
    32     7    12    1
    33     8     9    1
    34     8    10    1
    35    12    10    1
    36    12    13    1
    37    10    11    1
    38    14    13    1
    39    14    15    1
    40    13    22    1
    41    48    45    2
    42    15    16    2
    43    11    45    1
    44    22    16    1
    45    22    21    2
    46    16    17    1
    47    45    47    1
    48    45    46    1
    49    21    20    1
    50    18    17    1
    51    17    19    2
    52    20    19    1
