@<TRIPOS>MOLECULE
3qn1_A8S_A_1.pdb
 19 19 0 0 0
SMALL
GASTEIGER

@<TRIPOS>ATOM
      1  C1         3.3590   22.1480   37.1680 C.2   192  A8S192      0.3689
      2  C2         1.9880   22.0070   37.0880 C.3   192  A8S192      0.1358
      3  C3         1.1620   22.0760   36.0090 C.2   192  A8S192     -0.0369
      4  C4         1.6320   22.2780   34.7650 C.2   192  A8S192     -0.0315
      5  C5         0.8060   22.3300   33.5240 C.3   192  A8S192      0.0558
      6  C6        -0.3310   21.9170   36.1790 C.3   192  A8S192      0.0266
      7  C7         1.4650   22.7090   32.1850 C.3   192  A8S192      0.1305
      8  O7         2.9020   22.8230   32.2410 O.3   192  A8S192     -0.2253
      9  C8         1.2700   21.5980   31.1510 C.3   192  A8S192      0.0309
     10  C9        -0.1620   21.5250   30.6990 C.3   192  A8S192      0.0353
     11  C10       -0.9130   22.6700   30.5140 C.3   192  A8S192      0.1522
     12  O10       -1.9320   22.6480   29.6420 O.3   192  A8S192     -0.2231
     13  C11       -0.6150   23.9090   31.3060 C.3   192  A8S192      0.0352
     14  O11        4.1200   22.2980   36.1660 O.co2 192  A8S192     -0.2453
     15  C12        0.9080   24.0310   31.5930 C.3   192  A8S192      0.0286
     16  O12        3.8540   22.1080   38.3270 O.co2 192  A8S192     -0.2453
     17  C13        2.0400   20.2930   31.4560 C.3   192  A8S192      0.0026
     18  C14        1.6310   24.4240   30.2870 C.3   192  A8S192      0.0025
     19  C15        1.0030   25.2220   32.5410 C.3   192  A8S192      0.0025
@<TRIPOS>BOND
     1    12    11    1
     2    18    15    1
     3    11    10    1
     4    11    13    1
     5    10     9    1
     6     9    17    1
     7     9     7    1
     8    13    15    1
     9    15     7    1
    10    15    19    1
    11     7     8    1
    12     7     5    1
    13     5     4    1
    14     4     3    2
    15     3     6    1
    16     3     2    1
    17    14     1   ar
    18     2     1    1
    19     1    16   ar
