@<TRIPOS>MOLECULE
3qn8_NI7_B_1.pdb
 27 30 0 0 0
SMALL
GASTEIGER

@<TRIPOS>ATOM
      1  C1        16.0250   20.2040    5.5300 C.3   100  NI7100      0.1129
      2  C2        17.3340   19.6500    4.9840 C.3   100  NI7100      0.1129
      3  N3        18.4190   19.9810    5.9140 N.am  100  NI7100     -0.2668
      4  C5        19.4900   18.9870    6.1110 C.3   100  NI7100      0.1207
      5  C6        19.3740   17.9620    7.2440 C.ar  100  NI7100      0.0009
      6  C7        20.1770   16.8230    7.1820 C.ar  100  NI7100      0.0394
      7  C8        20.1310   15.8430    8.1690 C.ar  100  NI7100      0.1955
      8  O9        20.9180   14.7220    8.0650 O.3   100  NI7100     -0.2866
      9  C10       19.2640   15.9910    9.2570 C.ar  100  NI7100      0.0420
     10  C11       18.4620   17.1100    9.3350 C.ar  100  NI7100      0.0030
     11  C12       18.5180   18.0990    8.3370 C.ar  100  NI7100     -0.0024
     12  C13       18.4430   21.2320    6.3700 C.2   100  NI7100      0.3032
     13  O14       19.4000   21.6410    7.0130 O.2   100  NI7100     -0.2649
     14  C15       17.3280   22.1410    6.0370 C.2   100  NI7100      0.3032
     15  O16       17.4760   23.3390    6.1980 O.2   100  NI7100     -0.2649
     16  N17       16.1510   21.6570    5.6280 N.am  100  NI7100     -0.2668
     17  C18       14.9110   22.4480    5.4870 C.3   100  NI7100      0.1207
     18  C19       14.5610   23.0740    4.1410 C.ar  100  NI7100      0.0009
     19  C20       13.3100   23.6800    3.9770 C.ar  100  NI7100      0.0394
     20  C21       12.9440   24.2650    2.7660 C.ar  100  NI7100      0.1955
     21  O22       11.7180   24.8500    2.6080 O.3   100  NI7100     -0.2866
     22  C23       13.8360   24.2450    1.7060 C.ar  100  NI7100      0.0420
     23  C24       15.0820   23.6480    1.8580 C.ar  100  NI7100      0.0030
     24  C25       15.4480   23.0640    3.0700 C.ar  100  NI7100     -0.0024
     25  C26       16.9810   18.1800    4.7830 C.3   100  NI7100      0.1102
     26  N27       15.6030   18.3230    4.3010 N.3   100  NI7100     -0.2144
     27  C28       15.0270   19.6530    4.5170 C.3   100  NI7100      0.1102
@<TRIPOS>BOND
     1    22    23   ar
     2    22    20   ar
     3    23    24   ar
     4    21    20    1
     5    20    19   ar
     6    24    18   ar
     7    19    18   ar
     8    18    17    1
     9    26    27    1
    10    26    25    1
    11    27     1    1
    12    25     2    1
    13     2     1    1
    14     2     3    1
    15    17    16    1
    16     1    16    1
    17    16    14   am
    18     3     4    1
    19     3    12   am
    20    14    15    2
    21    14    12    1
    22     4     5    1
    23    12    13    2
    24     6     5   ar
    25     6     7   ar
    26     5    11   ar
    27     8     7    1
    28     7     9   ar
    29    11    10   ar
    30     9    10   ar
