@<TRIPOS>MOLECULE
3qna_BIO_A_1.pdb
 17 18 0 0 0
SMALL
GASTEIGER

@<TRIPOS>ATOM
      1  N1         3.0680   45.0650   34.0880 N.2   121  BIO121     -0.2672
      2  N2         4.1190   46.6980   35.3730 N.pl3 121  BIO121     -0.0220
      3  C2         3.8700   45.4170   35.1370 C.1   121  BIO121      0.2609
      4  N3         4.3870   44.5210   36.0050 N.2   121  BIO121     -0.2466
      5  C4         4.1490   43.2440   35.8080 C.1   121  BIO121      0.2569
      6  O4         4.6560   42.4410   36.5670 O.2   121  BIO121     -0.2052
      7  C4A        3.3730   42.8300   34.7420 C.2   121  BIO121      0.2989
      8  C8A        2.8080   43.7770   33.8650 C.1   121  BIO121      0.1401
      9  N8         2.0240   43.4010   32.8300 N.2   121  BIO121     -0.1992
     10  C7         1.7930   42.0850   32.6560 C.3   121  BIO121      0.1940
     11  C6         2.3940   41.1380   33.5050 C.2   121  BIO121      0.1466
     12  N5         3.1630   41.5140   34.5590 N.2   121  BIO121     -0.3830
     13  C9         2.1680   39.6920   33.3160 C.3   121  BIO121      0.2313
     14  O9         2.8880   38.8690   34.2580 O.3   121  BIO121     -0.2130
     15  C10        2.8340   39.3650   32.0540 C.3   121  BIO121      0.1888
     16  O10        2.0300   39.9930   31.0880 O.3   121  BIO121     -0.2200
     17  C11        2.6940   37.8850   31.8810 C.3   121  BIO121      0.0387
@<TRIPOS>BOND
     1    16    15    1
     2    17    15    1
     3    15    13    1
     4    10     9    1
     5    10    11    1
     6     9     8    2
     7    13    11    1
     8    13    14    1
     9    11    12    2
    10     8     1    2
    11     8     7    1
    12     1     3    2
    13    12     7    2
    14     7     5    1
    15     3     2    1
    16     3     4    2
    17     5     4    2
    18     5     6    2
