@<TRIPOS>MOLECULE
3qnd_SIA_A_1.pdb
 21 21 0 0 0
SMALL
GASTEIGER

@<TRIPOS>ATOM
      1  C1        36.0540   -6.7380  -22.3420 C.2     1  SIA1        0.4179
      2  C2        35.7100   -6.3710  -20.9090 C.3     1  SIA1        0.3155
      3  C3        34.4380   -5.5090  -20.8550 C.3     1  SIA1        0.1056
      4  C4        33.1670   -6.3330  -21.0890 C.3     1  SIA1        0.1798
      5  C5        33.1150   -7.5430  -20.1640 C.3     1  SIA1        0.1554
      6  C6        34.4050   -8.3550  -20.3020 C.3     1  SIA1        0.1734
      7  C7        34.4550   -9.5540  -19.3550 C.3     1  SIA1        0.2135
      8  C8        35.6610  -10.4560  -19.6310 C.3     1  SIA1        0.2173
      9  C9        35.4510  -11.8470  -19.0420 C.3     1  SIA1        0.2175
     10  C10       30.7920   -8.3210  -19.8600 C.2     1  SIA1        0.2420
     11  C11       29.7690   -9.2870  -20.3760 C.3     1  SIA1        0.0964
     12  N5        31.9690   -8.3730  -20.4870 N.am    1  SIA1       -0.2020
     13  O1A       36.2870   -7.9310  -22.6430 O.co2   1  SIA1       -0.2401
     14  O1B       36.1070   -5.8180  -23.1880 O.co2   1  SIA1       -0.2401
     15  O2        36.8050   -5.6050  -20.3950 O.3     1  SIA1       -0.1830
     16  O4        32.0070   -5.5260  -20.8760 O.3     1  SIA1       -0.2210
     17  O6        35.5620   -7.5350  -20.0760 O.3     1  SIA1       -0.3220
     18  O7        34.5050   -9.0930  -17.9990 O.3     1  SIA1       -0.2176
     19  O8        35.9090  -10.5690  -21.0410 O.3     1  SIA1       -0.2175
     20  O9        34.4460  -12.5450  -19.7870 O.3     1  SIA1       -0.2175
     21  O10       30.5410   -7.5530  -18.9420 O.2     1  SIA1       -0.2733
@<TRIPOS>BOND
     1    14     1   ar
     2    13     1   ar
     3     1     2    1
     4     4    16    1
     5     4     3    1
     6     4     5    1
     7    19     8    1
     8     2     3    1
     9     2    15    1
    10     2    17    1
    11    12     5    1
    12    12    10   am
    13    11    10    1
    14     6     5    1
    15     6    17    1
    16     6     7    1
    17    10    21    2
    18    20     9    1
    19     8     7    1
    20     8     9    1
    21     7    18    1
