@<TRIPOS>MOLECULE
3qng_REJ_A_1.pdb
 14 14 0 0 0
SMALL
GASTEIGER

@<TRIPOS>ATOM
      1 RE          9.7680   -9.2790   -4.0320 Re    200  REJ200      0.0000
      2  OXT       11.7720   -8.6220   -3.6220 O.3   200  REJ200      0.0000
      3  O         12.9640   -6.8190   -2.7000 O.2   200  REJ200      0.0000
      4  OG        10.1370   -7.5240   -0.0380 O.3   200  REJ200      0.0000
      5  N          9.5000   -7.9620   -2.3170 N.3   200  REJ200      0.0000
      6  C         11.9140   -7.5470   -2.8650 C.2   200  REJ200      0.0000
      7  CA        10.5560   -6.9210   -2.4010 C.3   200  REJ200      0.0000
      8  CB        10.7890   -6.6470   -0.9400 C.3   200  REJ200      0.0000
      9  C31        9.4520   -7.9950   -5.4270 C.3   200  REJ200      0.0000
     10  O31        9.1980   -7.5120   -6.4470 O.3   200  REJ200      0.0000
     11  C32       10.1850  -10.5330   -5.4580 C.3   200  REJ200      0.0000
     12  O32       10.3790  -11.1530   -6.3960 O.3   200  REJ200      0.0000
     13  C33        7.9190   -9.7770   -4.1200 C.3   200  REJ200      0.0000
     14  O33        6.9520  -10.2100   -4.6330 O.3   200  REJ200      0.0000
@<TRIPOS>BOND
     1    10     9    1
     2    12    11    1
     3    11     1    1
     4     9     1    1
     5    14    13    1
     6    13     1    1
     7     1     2    1
     8     1     5    1
     9     2     6    1
    10     6     3    2
    11     6     7    1
    12     7     5    1
    13     7     8    1
    14     8     4    1
