@<TRIPOS>MOLECULE
3qnl_ROA_A_1.pdb
 26 27 0 0 0
SMALL
GASTEIGER

@<TRIPOS>ATOM
      1  CAU       -0.9820   21.1490  -14.3980 C.ar  205  ROA205      0.0413
      2  CAV       -1.2520   19.9000  -13.8660 C.ar  205  ROA205      0.2339
      3  OAY       -2.1060   19.7610  -12.8240 O.3   205  ROA205     -0.2832
      4  CAW       -0.7390   18.6970  -14.4110 C.ar  205  ROA205      0.2342
      5  OAZ       -1.1230   17.5720  -13.7530 O.3   205  ROA205     -0.2831
      6  CAX        0.1310   18.7180  -15.5060 C.ar  205  ROA205      0.0451
      7  CAT        0.3480   19.9540  -16.0330 C.ar  205  ROA205     -0.0006
      8  CAS       -0.1560   21.1780  -15.5130 C.ar  205  ROA205     -0.0146
      9  CAO        0.1370   22.5640  -16.1160 C.3   205  ROA205      0.0820
     10  CAN        1.4750   23.2140  -15.7570 C.3   205  ROA205      0.2748
     11  CAP        1.5820   24.6620  -16.0420 C.2   205  ROA205      0.4045
     12  OAR        1.1910   25.1730  -17.1510 O.co2 205  ROA205     -0.2416
     13  OAQ        2.1410   25.3880  -15.1550 O.co2 205  ROA205     -0.2416
     14  OAM        2.4560   22.6280  -16.6220 O.3   205  ROA205     -0.4401
     15  CAK        3.7570   22.9940  -16.1640 C.2   205  ROA205      0.3177
     16  OAL        3.9160   23.9280  -15.3800 O.2   205  ROA205     -0.2501
     17  CAJ        4.8690   22.2630  -16.7470 C.3   205  ROA205      0.1142
     18  CAI        6.0600   22.8180  -16.6550 C.3   205  ROA205      0.0381
     19  CAC        6.9680   21.9640  -17.3780 C.ar  205  ROA205     -0.0182
     20  CAD        8.0710   21.5840  -16.7430 C.ar  205  ROA205      0.0411
     21  CAE        8.8890   20.7660  -17.4720 C.ar  205  ROA205      0.2339
     22  OAG        9.9810   20.3100  -16.7950 O.3   205  ROA205     -0.2832
     23  CAF        8.5620   20.3670  -18.8520 C.ar  205  ROA205      0.2342
     24  OAH        9.4020   19.5690  -19.5010 O.3   205  ROA205     -0.2831
     25  CAB        7.4070   20.7950  -19.5150 C.ar  205  ROA205      0.0451
     26  CAA        6.6380   21.6430  -18.7120 C.ar  205  ROA205     -0.0008
@<TRIPOS>BOND
     1    25    23   ar
     2    25    26   ar
     3    24    23    1
     4    23    21   ar
     5    26    19   ar
     6    21    22    1
     7    21    20   ar
     8    19    20   ar
     9    19    18    1
    10    12    11   ar
    11    17    18    1
    12    17    15    1
    13    14    15    1
    14    14    10    1
    15    15    16    2
    16     9    10    1
    17     9     8    1
    18    11    10    1
    19    11    13   ar
    20     7     8   ar
    21     7     6   ar
    22     8     1   ar
    23     6     4   ar
    24     4     2   ar
    25     4     5    1
    26     1     2   ar
    27     2     3    1
