@<TRIPOS>MOLECULE
3qnn_DGT_A_1.pdb
 31 33 0 0 0
SMALL
GASTEIGER

@<TRIPOS>ATOM
      1  PG        -3.5120   12.6020   14.2030 P.3   902  DGT902      0.5373
      2  O1G       -2.1980   12.5090   13.4670 O.3   902  DGT902     -0.1143
      3  O2G       -4.6970   12.5470   13.2840 O.2   902  DGT902     -0.2221
      4  O3G       -3.5510   13.8430   15.0440 O.3   902  DGT902     -0.1143
      5  O3B       -3.7000   11.3220   15.1630 O.3   902  DGT902     -0.2258
      6  PB        -2.7120   10.0630   15.2500 P.3   902  DGT902      0.2277
      7  O1B       -3.4980    8.9910   15.9800 O.3   902  DGT902     -0.4368
      8  O2B       -2.2170    9.5850   13.9070 O.2   902  DGT902     -0.5168
      9  O3A       -1.5730   10.6550   16.2140 O.3   902  DGT902     -0.2700
     10  PA         0.0160   10.4310   16.1840 P.3   902  DGT902      0.2189
     11  O1A        0.5590   11.2370   17.3190 O.3   902  DGT902     -0.4371
     12  O2A        0.6070   10.7980   14.8460 O.2   902  DGT902     -0.5170
     13  O5'        0.2520    8.8730   16.5070 O.3   902  DGT902     -0.3112
     14  C5'        0.3730    7.9210   15.4730 C.3   902  DGT902      0.1812
     15  C4'       -0.1170    6.5840   15.9950 C.3   902  DGT902      0.1772
     16  O4'        0.7190    6.1810   17.0700 O.3   902  DGT902     -0.3347
     17  C3'       -1.5230    6.5980   16.5810 C.3   902  DGT902      0.1857
     18  O3'       -2.5870    6.5490   15.6450 O.3   902  DGT902     -0.2203
     19  C2'       -1.4410    5.3530   17.4450 C.3   902  DGT902      0.0865
     20  C1'       -0.0230    5.4360   18.0160 C.3   902  DGT902      0.1981
     21  N9        -0.1980    6.1820   19.2800 N.pl3 902  DGT902     -0.2374
     22  C8         0.0820    7.5020   19.5450 C.3   902  DGT902      0.2245
     23  N7        -0.2850    7.7730   20.8210 N.2   902  DGT902     -0.2322
     24  C5        -0.8020    6.6490   21.3680 C.2   902  DGT902      0.2182
     25  C6        -1.3170    6.3630   22.6310 C.1   902  DGT902      0.2372
     26  O6        -1.3810    7.2360   23.5100 O.2   902  DGT902     -0.2069
     27  N1        -1.7800    5.0900   22.8880 N.2   902  DGT902     -0.2485
     28  C2        -1.7290    4.1080   21.9210 C.1   902  DGT902      0.2531
     29  N2        -2.1860    2.8850   22.1850 N.pl3 902  DGT902     -0.0226
     30  N3        -1.2110    4.3980   20.6760 N.2   902  DGT902     -0.3074
     31  C4        -0.7540    5.6460   20.4080 C.2   902  DGT902      0.2299
@<TRIPOS>BOND
     1     3     1    2
     2     2     1    1
     3     8     6    2
     4     1     4    1
     5     1     5    1
     6    12    10    2
     7     5     6    1
     8     6     7    1
     9     6     9    1
    10    14    15    1
    11    14    13    1
    12    18    17    1
    13    15    17    1
    14    15    16    1
    15    10     9    1
    16    10    13    1
    17    10    11    1
    18    17    19    1
    19    16    20    1
    20    19    20    1
    21    20    21    1
    22    21    22    1
    23    21    31    1
    24    22    23    1
    25    31    30    2
    26    31    24    1
    27    30    28    2
    28    23    24    2
    29    24    25    1
    30    28    29    1
    31    28    27    2
    32    25    27    2
    33    25    26    2
