@<TRIPOS>MOLECULE
3qno_ATP_A_1.pdb
 30 32 0 0 0
SMALL
GASTEIGER

@<TRIPOS>ATOM
      1  PG         3.4650  -12.6570  -51.1320 P.3   902  ATP902      0.5373
      2  O1G        2.1520  -12.5160  -51.8620 O.3   902  ATP902     -0.1143
      3  O2G        4.6910  -12.6050  -52.0040 O.2   902  ATP902     -0.2221
      4  O3G        3.4840  -13.7760  -50.1220 O.3   902  ATP902     -0.1143
      5  PB         2.7140  -10.0280  -50.1550 P.3   902  ATP902      0.2277
      6  O1B        3.4880   -8.9920  -49.3810 O.3   902  ATP902     -0.4368
      7  O2B        2.1790   -9.6760  -51.5130 O.2   902  ATP902     -0.5168
      8  O3B        3.6540  -11.3410  -50.2150 O.3   902  ATP902     -0.2258
      9  PA        -0.0150  -10.3860  -49.0940 P.3   902  ATP902      0.2189
     10  O1A       -0.3840  -11.1220  -47.8400 O.3   902  ATP902     -0.4371
     11  O2A       -0.6190  -10.7780  -50.4230 O.2   902  ATP902     -0.5170
     12  O3A        1.5860  -10.5700  -49.1420 O.3   902  ATP902     -0.2700
     13  O5'       -0.2370   -8.8270  -48.7950 O.3   902  ATP902     -0.3112
     14  C5'       -0.2890   -7.8550  -49.8350 C.3   902  ATP902      0.1813
     15  C4'        0.2000   -6.5440  -49.2560 C.3   902  ATP902      0.1795
     16  O4'       -0.6010   -6.1910  -48.1220 O.3   902  ATP902     -0.3155
     17  C3'        1.6200   -6.6280  -48.7100 C.3   902  ATP902      0.1883
     18  O3'        2.6530   -6.5010  -49.7020 O.3   902  ATP902     -0.2202
     19  C2'        1.6120   -5.4760  -47.7260 C.3   902  ATP902      0.1151
     20  C1'        0.2000   -5.5280  -47.1470 C.3   902  ATP902      0.2873
     21  N9         0.2960   -6.3500  -45.9200 N.pl3 902  ATP902     -0.1460
     22  C8        -0.0720   -7.6380  -45.7710 C.3   902  ATP902      0.3377
     23  N7         0.1800   -8.0750  -44.5090 N.2   902  ATP902     -0.2095
     24  C5         0.7320   -7.0530  -43.8360 C.2   902  ATP902      0.2526
     25  C6         1.2380   -6.8300  -42.4620 C.2   902  ATP902      0.4393
     26  N6         1.2130   -7.8160  -41.5340 N.pl3 902  ATP902      0.2180
     27  N1         1.7410   -5.6060  -42.1810 N.2   902  ATP902      0.0021
     28  C2         1.7840   -4.6100  -43.0850 C.3   902  ATP902      0.5254
     29  N3         1.3370   -4.7410  -44.3530 N.2   902  ATP902     -0.0055
     30  C4         0.8080   -5.9180  -44.7710 C.2   902  ATP902      0.3518
@<TRIPOS>BOND
     1     3     1    2
     2     2     1    1
     3     7     5    2
     4     1     8    1
     5     1     4    1
     6    11     9    2
     7     8     5    1
     8     5     6    1
     9     5    12    1
    10    14    15    1
    11    14    13    1
    12    18    17    1
    13    15    17    1
    14    15    16    1
    15    12     9    1
    16     9    13    1
    17     9    10    1
    18    17    19    1
    19    16    20    1
    20    19    20    1
    21    20    21    1
    22    21    22    1
    23    21    30    1
    24    22    23    1
    25    30    29    2
    26    30    24    1
    27    23    24    2
    28    29    28    1
    29    24    25    1
    30    28    27    1
    31    25    27    2
    32    25    26    1
