@<TRIPOS>MOLECULE
3qnq_CBS_A_1.pdb
 29 30 0 0 0
SMALL
GASTEIGER

@<TRIPOS>ATOM
      1  C1A       29.9430  117.0490   49.6610 C.3   500  CBS500      0.2586
      2  C2A       29.3980  118.3300   50.1870 C.3   500  CBS500      0.1842
      3  C3A       30.4010  119.1160   50.8170 C.3   500  CBS500      0.2094
      4  C4A       31.0510  118.3750   51.9060 C.3   500  CBS500      0.2136
      5  C5A       31.6540  117.0900   51.4250 C.3   500  CBS500      0.1834
      6  C6A       31.9840  116.2960   52.6670 C.3   500  CBS500      0.2142
      7  C7A       27.2300  119.2360   49.2750 C.2   500  CBS500      0.2420
      8  C8A       26.4420  119.9800   48.2340 C.3   500  CBS500      0.0964
      9  N2A       28.6550  119.0710   49.1260 N.am  500  CBS500     -0.1992
     10  O1A       28.8310  116.2870   49.3870 O.3   500  CBS500     -0.3264
     11  O3A       29.7560  120.2920   51.3880 O.3   500  CBS500     -0.2183
     12  O4A       32.0400  119.1750   52.5320 O.3   500  CBS500     -0.2176
     13  O5A       30.7930  116.3330   50.6410 O.3   500  CBS500     -0.3262
     14  O6A       30.9260  115.7360   53.3550 O.3   500  CBS500     -0.2176
     15  O7A       26.6640  118.7690   50.2550 O.2   500  CBS500     -0.2733
     16  C1B       27.8690  112.8700   47.5630 C.3   500  CBS500      0.2917
     17  C2B       29.3290  113.1580   47.6660 C.3   500  CBS500      0.1870
     18  C3B       29.4330  114.0730   48.7830 C.3   500  CBS500      0.2063
     19  C4B       29.0900  115.3500   48.2790 C.3   500  CBS500      0.1795
     20  C5B       27.9100  115.3030   47.3690 C.3   500  CBS500      0.1803
     21  C6B       28.2950  115.7420   45.9780 C.3   500  CBS500      0.2141
     22  C7B       30.0480  110.7120   48.3600 C.2   500  CBS500      0.2420
     23  C8B       31.1670  109.7210   48.3010 C.3   500  CBS500      0.0964
     24  N2B       30.2760  112.0220   47.7380 N.am  500  CBS500     -0.1991
     25  O1B       27.5400  111.9190   46.6190 O.3   500  CBS500     -0.1879
     26  O3B       30.7900  114.0860   49.3560 O.3   500  CBS500     -0.2184
     27  O5B       27.1520  114.0460   47.3050 O.3   500  CBS500     -0.3243
     28  O6B       27.3790  115.5250   44.9590 O.3   500  CBS500     -0.2176
     29  O7B       29.0050  110.4440   48.8920 O.2   500  CBS500     -0.2733
@<TRIPOS>BOND
     1    28    21    1
     2    21    20    1
     3    25    16    1
     4    27    20    1
     5    27    16    1
     6    20    19    1
     7    16    17    1
     8    17    24    1
     9    17    18    1
    10    24    22   am
    11     8     7    1
    12    19    18    1
    13    19    10    1
    14    23    22    1
    15    22    29    2
    16    18    26    1
    17     9     7   am
    18     9     2    1
    19     7    15    2
    20    10     1    1
    21     1     2    1
    22     1    13    1
    23     2     3    1
    24    13     5    1
    25     3    11    1
    26     3     4    1
    27     5     4    1
    28     5     6    1
    29     4    12    1
    30     6    14    1
