@<TRIPOS>MOLECULE
3qnq_CIT_C_1.pdb
 13 12 0 0 0
SMALL
GASTEIGER

@<TRIPOS>ATOM
      1  C1        59.2850  105.1170    5.0590 C.2   445  CIT445      0.3680
      2  O1        59.6320  104.2590    5.9030 O.co2 445  CIT445     -0.2455
      3  O2        58.9160  106.2400    5.4760 O.co2 445  CIT445     -0.2455
      4  C2        59.3090  104.8050    3.5730 C.3   445  CIT445      0.1560
      5  C3        60.6980  104.3370    3.1330 C.3   445  CIT445      0.2402
      6  O7        61.6800  105.3440    3.4950 O.3   445  CIT445     -0.2129
      7  C4        60.7680  104.0670    1.6250 C.3   445  CIT445      0.1560
      8  C5        60.8520  105.3320    0.7950 C.2   445  CIT445      0.3680
      9  O3        60.2840  105.3870   -0.3160 O.co2 445  CIT445     -0.2455
     10  O4        61.4860  106.3370    1.1890 O.co2 445  CIT445     -0.2455
     11  C6        61.0190  103.0330    3.8560 C.2   445  CIT445      0.3927
     12  O5        60.1460  102.1440    3.9870 O.co2 445  CIT445     -0.2429
     13  O6        62.1610  102.8390    4.3320 O.co2 445  CIT445     -0.2429
@<TRIPOS>BOND
     1     9     8   ar
     2     8    10   ar
     3     8     7    1
     4     7     5    1
     5     5     6    1
     6     5     4    1
     7     5    11    1
     8     4     1    1
     9    11    12   ar
    10    11    13   ar
    11     1     3   ar
    12     1     2   ar
