@<TRIPOS>MOLECULE
3qnq_ZDM_A_1.pdb
 30 31 0 0 0
SMALL
GASTEIGER

@<TRIPOS>ATOM
      1  C1        30.6590  102.4320   53.6070 C.3   600  ZDM600      0.2404
      2  O1        27.6180  103.5710   57.9660 O.3   600  ZDM600     -0.3256
      3  C2        30.2560  102.0470   54.9620 C.3   600  ZDM600      0.2167
      4  O2        29.6600  104.9060   60.7140 O.3   600  ZDM600     -0.2176
      5  C3        28.8680  102.2870   55.0790 C.3   600  ZDM600      0.1804
      6  O3        28.6440  100.9330   59.0030 O.3   600  ZDM600     -0.2149
      7  C4        28.1550  101.4650   54.0760 C.3   600  ZDM600      0.1803
      8  O4        31.3280  102.8180   59.6490 O.3   600  ZDM600     -0.2174
      9  C5        29.4120  102.0180   58.4800 C.3   600  ZDM600      0.2406
     10  O5        28.6290  101.6180   52.6670 O.3   600  ZDM600     -0.3257
     11  C6        30.0130  101.5180   52.5930 C.3   600  ZDM600      0.2695
     12  O6        27.4500  106.3240   58.5180 O.3   600  ZDM600     -0.2176
     13  C7        29.8550  102.8140   59.6090 C.3   600  ZDM600      0.2198
     14  O7        28.2340  101.9800   56.3990 O.3   600  ZDM600     -0.3257
     15  C8        29.3230  104.1100   59.5520 C.3   600  ZDM600      0.2144
     16  C9        27.8700  104.0610   59.3020 C.3   600  ZDM600      0.1835
     17  C10       28.6660  102.8130   57.4530 C.3   600  ZDM600      0.2695
     18  C11       27.2820  105.4100   59.4970 C.3   600  ZDM600      0.2142
     19  O16       30.4740  101.8130   51.2810 O.3   600  ZDM600     -0.3282
     20  C18       31.6050  101.1370   50.7140 C.3   600  ZDM600      0.1495
     21  C19       31.9510  101.3990   49.2580 C.3   600  ZDM600      0.0578
     22  C22       33.4380  101.5000   48.8560 C.2   600  ZDM600     -0.0281
     23  C25       33.8850  101.0620   47.4270 C.2   600  ZDM600     -0.0306
     24  C28       35.3040  101.2740   47.0750 C.3   600  ZDM600      0.0257
     25  C31       35.9840  100.3900   46.1440 C.3   600  ZDM600      0.0047
     26  C34       36.5400  100.9520   44.8800 C.3   600  ZDM600      0.0004
     27  O49       32.0800  102.3950   53.4800 O.3   600  ZDM600     -0.2149
     28  O55       31.0470  102.8220   55.9150 O.3   600  ZDM600     -0.2175
     29  C57       26.7330  101.8200   54.1390 C.3   600  ZDM600      0.2141
     30  O61       25.9830  101.2530   53.1060 O.3   600  ZDM600     -0.2176
@<TRIPOS>BOND
     1    26    25    1
     2    25    24    1
     3    24    23    1
     4    23    22    2
     5    22    21    1
     6    21    20    1
     7    20    19    1
     8    19    11    1
     9    11    10    1
    10    11     1    1
    11    10     7    1
    12    30    29    1
    13    27     1    1
    14     1     3    1
    15     7    29    1
    16     7     5    1
    17     3     5    1
    18     3    28    1
    19     5    14    1
    20    14    17    1
    21    17     2    1
    22    17     9    1
    23     2    16    1
    24     9     6    1
    25     9    13    1
    26    12    18    1
    27    16    18    1
    28    16    15    1
    29    15    13    1
    30    15     4    1
    31    13     8    1
