@<TRIPOS>MOLECULE
3qnr_HEM_A_1.pdb
 43 50 0 0 0
SMALL
GASTEIGER

@<TRIPOS>ATOM
      1  CHA      -29.1460  -64.7880  -15.1270 C.2   400  HEM400      0.0000
      2  CHB      -33.5770  -62.8460  -14.6730 C.2   400  HEM400      0.0000
      3  CHC      -33.9130  -62.5830  -19.4820 C.2   400  HEM400      0.0000
      4  CHD      -29.4710  -64.3990  -19.9390 C.2   400  HEM400      0.0000
      5  C1A      -30.3100  -64.2970  -14.6050 C.2   400  HEM400      0.0000
      6  C2A      -30.6060  -64.2000  -13.1780 C.2   400  HEM400      0.0000
      7  C3A      -31.8280  -63.6750  -13.0570 C.2   400  HEM400      0.0000
      8  C4A      -32.3340  -63.3890  -14.3960 C.2   400  HEM400      0.0000
      9  CMA      -32.6080  -63.3590  -11.7590 C.3   400  HEM400      0.0000
     10  CAA      -29.6770  -64.6850  -12.0510 C.3   400  HEM400      0.0000
     11  CBA      -28.6670  -63.6130  -11.5930 C.3   400  HEM400      0.0000
     12  CGA      -27.6620  -63.2740  -12.6550 C.2   400  HEM400      0.0000
     13  O1A      -27.9610  -62.3380  -13.4460 O.co2 400  HEM400      0.0000
     14  O2A      -26.5860  -63.9440  -12.7170 O.co2 400  HEM400      0.0000
     15  C1B      -34.0670  -62.6260  -15.9400 C.ar  400  HEM400      0.0000
     16  C2B      -35.3640  -62.0790  -16.2770 C.ar  400  HEM400      0.0000
     17  C3B      -35.4370  -62.0110  -17.6010 C.ar  400  HEM400      0.0000
     18  C4B      -34.2000  -62.5010  -18.1470 C.ar  400  HEM400      0.0000
     19  CMB      -36.4540  -61.6620  -15.2680 C.3   400  HEM400      0.0000
     20  CAB      -36.6120  -61.4960  -18.4590 C.2   400  HEM400      0.0000
     21  CBB      -37.8510  -61.9180  -18.2280 C.2   400  HEM400      0.0000
     22  C1C      -32.7550  -63.0980  -19.9940 C.2   400  HEM400      0.0000
     23  C2C      -32.5020  -63.2870  -21.4080 C.2   400  HEM400      0.0000
     24  C3C      -31.2710  -63.7820  -21.5300 C.2   400  HEM400      0.0000
     25  C4C      -30.7350  -63.9310  -20.1970 C.2   400  HEM400      0.0000
     26  CMC      -33.5040  -62.9270  -22.5240 C.3   400  HEM400      0.0000
     27  CAC      -30.4780  -64.1950  -22.8060 C.2   400  HEM400      0.0000
     28  CBC      -30.5920  -63.5730  -23.9780 C.2   400  HEM400      0.0000
     29  C1D      -28.9390  -64.6230  -18.6950 C.ar  400  HEM400      0.0000
     30  C2D      -27.6000  -65.1010  -18.4680 C.ar  400  HEM400      0.0000
     31  C3D      -27.4860  -65.2390  -16.9620 C.ar  400  HEM400      0.0000
     32  C4D      -28.7860  -64.8150  -16.4480 C.ar  400  HEM400      0.0000
     33  CMD      -26.5100  -65.3970  -19.5080 C.3   400  HEM400      0.0000
     34  CAD      -26.2240  -65.7060  -16.2000 C.3   400  HEM400      0.0000
     35  CBD      -26.3380  -67.2290  -16.0960 C.3   400  HEM400      0.0000
     36  CGD      -25.0610  -67.7990  -15.5390 C.2   400  HEM400      0.0000
     37  O1D      -25.0130  -68.0670  -14.3100 O.co2 400  HEM400      0.0000
     38  O2D      -24.0840  -67.9560  -16.3190 O.co2 400  HEM400      0.0000
     39  NA       -31.3800  -63.7910  -15.3290 N.2   400  HEM400      0.0000
     40  NB       -33.3780  -62.8850  -17.1160 N.ar  400  HEM400      0.0000
     41  NC       -31.6630  -63.5130  -19.2680 N.2   400  HEM400      0.0000
     42  ND       -29.6190  -64.4740  -17.4930 N.ar  400  HEM400      0.0000
     43 FE        -31.5380  -63.6970  -17.2990 Fe    400  HEM400      0.0000
@<TRIPOS>BOND
     1    28    27    2
     2    27    24    1
     3    26    23    1
     4    24    23    2
     5    24    25    1
     6    23    22    1
     7    25     4    1
     8    25    41    2
     9    22     3    2
    10    22    41    1
    11     4    29    2
    12    33    30    1
    13     3    18    1
    14    41    43    1
    15    29    30   ar
    16    29    42   ar
    17    30    31   ar
    18    20    21    2
    19    20    17    1
    20    18    17   ar
    21    18    40   ar
    22    17    16   ar
    23    42    43    1
    24    42    32   ar
    25    43    40    1
    26    43    39    1
    27    40    15   ar
    28    31    32   ar
    29    31    34    1
    30    32     1    2
    31    38    36   ar
    32    16    15   ar
    33    16    19    1
    34    34    35    1
    35    35    36    1
    36    15     2    1
    37    36    37   ar
    38    39     5    2
    39    39     8    1
    40     1     5    1
    41     2     8    2
    42     5     6    1
    43     8     7    1
    44    13    12   ar
    45     6     7    2
    46     6    10    1
    47     7     9    1
    48    14    12   ar
    49    12    11    1
    50    10    11    1
