@<TRIPOS>MOLECULE
3qns_HEM_A_1.pdb
 43 50 0 0 0
SMALL
GASTEIGER

@<TRIPOS>ATOM
      1  CHA      -70.6240   11.9960  -14.2280 C.2   351  HEM351      0.0000
      2  CHB      -68.3160   10.1360  -18.0730 C.2   351  HEM351      0.0000
      3  CHC      -64.8450    8.3130  -15.1830 C.2   351  HEM351      0.0000
      4  CHD      -67.0370   10.3330  -11.3620 C.2   351  HEM351      0.0000
      5  C1A      -70.2770   11.6550  -15.5240 C.ar  351  HEM351      0.0000
      6  C2A      -71.0520   11.9570  -16.7090 C.ar  351  HEM351      0.0000
      7  C3A      -70.4200   11.4520  -17.7770 C.ar  351  HEM351      0.0000
      8  C4A      -69.2220   10.8170  -17.3030 C.ar  351  HEM351      0.0000
      9  CMA      -70.8370   11.5000  -19.2570 C.3   351  HEM351      0.0000
     10  CAA      -72.3870   12.7230  -16.6610 C.3   351  HEM351      0.0000
     11  CBA      -72.2600   14.2510  -16.6960 C.3   351  HEM351      0.0000
     12  CGA      -71.5620   14.7880  -15.4650 C.2   351  HEM351      0.0000
     13  O1A      -70.3250   14.9470  -15.4970 O.co2 351  HEM351      0.0000
     14  O2A      -72.2500   15.1170  -14.4610 O.co2 351  HEM351      0.0000
     15  C1B      -67.2080    9.4510  -17.6310 C.2   351  HEM351      0.0000
     16  C2B      -66.3090    8.6490  -18.4440 C.2   351  HEM351      0.0000
     17  C3B      -65.3560    8.1550  -17.6330 C.2   351  HEM351      0.0000
     18  C4B      -65.6130    8.6310  -16.2960 C.2   351  HEM351      0.0000
     19  CMB      -66.4920    8.4640  -19.9680 C.3   351  HEM351      0.0000
     20  CAB      -64.1500    7.2750  -17.9540 C.2   351  HEM351      0.0000
     21  CBB      -64.0640    6.5350  -19.0430 C.2   351  HEM351      0.0000
     22  C1C      -65.1660    8.6520  -13.8790 C.ar  351  HEM351      0.0000
     23  C2C      -64.4620    8.2340  -12.6920 C.ar  351  HEM351      0.0000
     24  C3C      -65.0950    8.7810  -11.6250 C.ar  351  HEM351      0.0000
     25  C4C      -66.1960    9.5700  -12.1230 C.ar  351  HEM351      0.0000
     26  CMC      -63.2310    7.3010  -12.7270 C.3   351  HEM351      0.0000
     27  CAC      -64.7950    8.6410  -10.1210 C.2   351  HEM351      0.0000
     28  CBC      -63.6430    8.2920   -9.5900 C.2   351  HEM351      0.0000
     29  C1D      -68.1480   11.0040  -11.8040 C.2   351  HEM351      0.0000
     30  C2D      -69.0160   11.7630  -10.9390 C.2   351  HEM351      0.0000
     31  C3D      -70.1240   12.2390  -11.7980 C.2   351  HEM351      0.0000
     32  C4D      -69.8250   11.7580  -13.1310 C.2   351  HEM351      0.0000
     33  CMD      -68.8200   12.0470   -9.4510 C.3   351  HEM351      0.0000
     34  CAD      -71.3150   13.0840  -11.3420 C.3   351  HEM351      0.0000
     35  CBD      -72.4380   12.1200  -10.9210 C.3   351  HEM351      0.0000
     36  CGD      -73.5810   12.9540  -10.3890 C.2   351  HEM351      0.0000
     37  O1D      -74.5470   13.2450  -11.1290 O.co2 351  HEM351      0.0000
     38  O2D      -73.5410   13.3210   -9.1860 O.co2 351  HEM351      0.0000
     39  NA       -69.1420   10.9610  -15.9180 N.ar  351  HEM351      0.0000
     40  NB       -66.7560    9.4080  -16.3190 N.2   351  HEM351      0.0000
     41  NC       -66.2340    9.4620  -13.5050 N.ar  351  HEM351      0.0000
     42  ND       -68.6490   11.0150  -13.1240 N.2   351  HEM351      0.0000
     43 FE        -67.7190   10.1680  -14.7140 Fe    351  HEM351      0.0000
@<TRIPOS>BOND
     1    19    16    1
     2     9     7    1
     3    21    20    2
     4    16    17    2
     5    16    15    1
     6     2    15    1
     7     2     8    2
     8    20    17    1
     9     7     8   ar
    10     7     6   ar
    11    17    18    1
    12    15    40    2
    13     8    39   ar
    14     6    10    1
    15     6     5   ar
    16    11    10    1
    17    11    12    1
    18    40    18    1
    19    40    43    1
    20    18     3    2
    21    39     5   ar
    22    39    43    1
    23     5     1    2
    24    13    12   ar
    25    12    14   ar
    26     3    22    1
    27    43    41    1
    28    43    42    1
    29     1    32    1
    30    22    41   ar
    31    22    23   ar
    32    41    25   ar
    33    32    42    2
    34    32    31    1
    35    42    29    1
    36    26    23    1
    37    23    24   ar
    38    25    24   ar
    39    25     4    1
    40    29     4    2
    41    29    30    1
    42    31    34    1
    43    31    30    2
    44    24    27    1
    45    34    35    1
    46    37    36   ar
    47    30    33    1
    48    35    36    1
    49    36    38   ar
    50    27    28    2
