@<TRIPOS>MOLECULE
3qnu_GDP_A_1.pdb
 28 30 0 0 0
SMALL
GASTEIGER

@<TRIPOS>ATOM
      1  PB        34.5070  -13.5170   -2.6170 P.3   593  GDP593      0.5373
      2  O1B       35.2180  -14.2150   -1.4670 O.3   593  GDP593     -0.1143
      3  O2B       35.4590  -12.5290   -3.2450 O.3   593  GDP593     -0.1143
      4  O3B       34.0360  -14.5290   -3.6410 O.2   593  GDP593     -0.2221
      5  O3A       33.1920  -12.7190   -2.1130 O.3   593  GDP593     -0.2261
      6  PA        31.7010  -13.3590   -2.0800 P.3   593  GDP593      0.2231
      7  O1A       31.1890  -13.4340   -3.4960 O.2   593  GDP593     -0.5169
      8  O2A       31.6990  -14.7180   -1.3690 O.3   593  GDP593     -0.4370
      9  O5'       30.8500  -12.2280   -1.3160 O.3   593  GDP593     -0.3111
     10  C5'       31.1840  -11.7770    0.0020 C.3   593  GDP593      0.1813
     11  C4'       30.0050  -10.9540    0.5280 C.3   593  GDP593      0.1799
     12  O4'       29.8150   -9.7780   -0.2730 O.3   593  GDP593     -0.3326
     13  C3'       28.6850  -11.6970    0.4170 C.3   593  GDP593      0.2158
     14  O3'       27.8770  -11.3040    1.5420 O.3   593  GDP593     -0.2175
     15  C2'       28.0950  -11.2070   -0.9030 C.3   593  GDP593      0.2310
     16  O2'       26.6670  -11.3130   -0.9650 O.3   593  GDP593     -0.2158
     17  C1'       28.5220   -9.7640   -0.8940 C.3   593  GDP593      0.2293
     18  N9        28.6830   -9.2420   -2.2580 N.pl3 593  GDP593     -0.2354
     19  C8        28.6800   -9.9400   -3.3890 C.3   593  GDP593      0.2246
     20  N7        28.8760   -9.1050   -4.4390 N.2   593  GDP593     -0.2322
     21  C5        29.0280   -7.8490   -3.9660 C.2   593  GDP593      0.2182
     22  C6        29.2840   -6.4850   -4.5240 C.1   593  GDP593      0.2372
     23  O6        29.3980   -6.3190   -5.7650 O.2   593  GDP593     -0.2069
     24  N1        29.3700   -5.4520   -3.6630 N.2   593  GDP593     -0.2485
     25  C2        29.2310   -5.6350   -2.3310 C.1   593  GDP593      0.2531
     26  N2        29.3090   -4.5880   -1.4650 N.pl3 593  GDP593     -0.0226
     27  N3        29.0000   -6.8470   -1.7810 N.2   593  GDP593     -0.3074
     28  C4        28.8960   -7.9630   -2.5280 C.2   593  GDP593      0.2300
@<TRIPOS>BOND
     1    23    22    2
     2    22    21    1
     3    22    24    2
     4    20    21    2
     5    20    19    1
     6    21    28    1
     7    24    25    2
     8     4     1    2
     9     7     6    2
    10    19    18    1
    11     3     1    1
    12     1     5    1
    13     1     2    1
    14    28    18    1
    15    28    27    2
    16    25    27    2
    17    25    26    1
    18    18    17    1
    19     5     6    1
    20     6     8    1
    21     6     9    1
    22     9    10    1
    23    16    15    1
    24    15    17    1
    25    15    13    1
    26    17    12    1
    27    12    11    1
    28    10    11    1
    29    13    11    1
    30    13    14    1
