@<TRIPOS>MOLECULE
3qnw_III_X_1.pdb
 31 31 0 0 0
SMALL
GASTEIGER

@<TRIPOS>ATOM
      1  C1         9.7650  -12.1450    1.5120 C.2     1  PHQ1        0.4218
      2  O1        10.5020  -13.0750    1.1880 O.2     1  PHQ1       -0.2245
      3  O2         8.4970  -11.9480    0.8060 O.3     1  PHQ1       -0.4285
      4  C2         7.8600  -12.9820    0.0590 C.3     1  PHQ1        0.2368
      5  C3         6.5410  -13.3590    0.6900 C.ar    1  PHQ1        0.0213
      6  C4         5.5450  -13.9180   -0.1080 C.ar    1  PHQ1       -0.0007
      7  C5         4.3190  -14.2720    0.4470 C.ar    1  PHQ1       -0.0002
      8  C6         4.0870  -14.0670    1.8040 C.ar    1  PHQ1       -0.0000
      9  C7         5.0790  -13.5070    2.6050 C.ar    1  PHQ1       -0.0002
     10  C8         6.3060  -13.1520    2.0490 C.ar    1  PHQ1       -0.0007
     11  N         10.1180  -11.3010    2.5100 N.am    2  VAL2       -0.1611
     12  CA        11.5070  -11.2900    3.0990 C.3     2  VAL2        0.1760
     13  C         11.5480  -12.0900    4.4000 C.2     2  VAL2        0.2617
     14  O         10.6530  -11.9690    5.2370 O.2     2  VAL2       -0.2715
     15  CB        11.9720   -9.8500    3.3880 C.3     2  VAL2        0.0291
     16  CG1       13.4290   -9.8370    3.8310 C.3     2  VAL2        0.0023
     17  CG2       11.7740   -8.9750    2.1590 C.3     2  VAL2        0.0023
     18  N         12.5970  -12.8940    4.5650 N.am    3  ALA3       -0.1963
     19  CA        12.7380  -13.7770    5.7270 C.3     3  ALA3        0.1728
     20  C         12.7860  -13.0010    7.0460 C.2     3  ALA3        0.2616
     21  O         13.7660  -12.3080    7.3280 O.2     3  ALA3       -0.2715
     22  CB        13.9900  -14.6520    5.5800 C.3     3  ALA3        0.0334
     23  N         11.7200  -13.1270    7.8380 N.am    4  ASP4       -0.1976
     24  CA        11.6040  -12.4890    9.1600 C.3     4  ASP4        0.1635
     25  C         11.5650  -10.9570    9.1220 C.2     4  ASP4        0.1713
     26  O         11.4240  -10.3040   10.1610 O.2     4  ASP4       -0.2942
     27  CB        12.7140  -12.9790   10.1130 C.3     4  ASP4        0.1432
     28  CG        12.3150  -14.2230   10.8900 C.2     4  ASP4        0.3671
     29  OD1       13.1090  -15.1890   10.9270 O.co2   4  ASP4       -0.2456
     30  OD2       11.2080  -14.2350   11.4700 O.co2   4  ASP4       -0.2456
     31  C1        11.6830  -10.2190    7.7940 C.3     5  CF05        0.0741
@<TRIPOS>BOND
     1     6     7   ar
     2     6     5   ar
     3     4     5    1
     4     4     3    1
     5     7     8   ar
     6     5    10   ar
     7     3     1    1
     8     2     1    2
     9     1    11   am
    10     8     9   ar
    11    10     9   ar
    12    17    15    1
    13    11    12    1
    14    12    15    1
    15    12    13    1
    16    15    16    1
    17    13    18   am
    18    13    14    2
    19    18    19    1
    20    22    19    1
    21    19    20    1
    22    20    21    2
    23    20    23   am
    24    31    25    1
    25    23    24    1
    26    25    24    1
    27    25    26    2
    28    24    27    1
    29    27    28    1
    30    28    29   ar
    31    28    30   ar
