@<TRIPOS>MOLECULE
3qnz_III_C_1.pdb
 19 18 0 0 0
SMALL
GASTEIGER

@<TRIPOS>ATOM
      1  N        -31.3970    5.5910    1.9030 N.3     1  ALA1       -0.1231
      2  CA       -30.5170    4.4220    1.8580 C.3     1  ALA1        0.1694
      3  C        -31.2650    3.1260    2.0990 C.2     1  ALA1        0.2592
      4  O        -32.3220    2.9040    1.5000 O.2     1  ALA1       -0.2718
      5  CB       -29.3820    4.5750    2.8610 C.3     1  ALA1        0.0304
      6  N        -30.7060    2.2670    2.9700 N.am    2  GLU2       -0.1966
      7  CA       -31.3070    1.0050    3.3510 C.3     2  GLU2        0.1733
      8  C        -32.3090    1.1490    4.5330 C.2     2  GLU2        0.2616
      9  O        -32.2360    2.1360    5.2830 O.2     2  GLU2       -0.2715
     10  CB       -30.2490   -0.1240    3.4700 C.3     2  GLU2        0.0429
     11  CG       -29.6620   -0.4130    4.8400 C.3     2  GLU2        0.1163
     12  CD       -28.6970    0.5950    5.4310 C.2     2  GLU2        0.3649
     13  OE1      -28.0150    1.3210    4.6700 O.co2   2  GLU2       -0.2457
     14  OE2      -28.6050    0.6290    6.6780 O.co2   2  GLU2       -0.2457
     15  N        -33.2800    0.1970    4.6360 N.am    3  GLU3       -0.1977
     16  CA       -34.3590    0.1100    5.6420 C.3     3  GLU3        0.1597
     17  C        -35.2100    1.3750    5.7700 C.2     3  GLU3        0.2287
     18  O        -36.4330    1.3110    5.6550 O.2     3  GLU3       -0.2864
     19  CB       -33.8070   -0.3050    7.0000 C.3     3  GLU3        0.0319
@<TRIPOS>BOND
     1     4     3    2
     2     2     1    1
     3     2     3    1
     4     2     5    1
     5     3     6   am
     6     6     7    1
     7     7    10    1
     8     7     8    1
     9    10    11    1
    10     8    15   am
    11     8     9    2
    12    15    16    1
    13    13    12   ar
    14    11    12    1
    15    12    14   ar
    16    16    17    1
    17    16    19    1
    18    18    17    2
