@<TRIPOS>MOLECULE
3qo0_III_C_1.pdb
 14 13 0 0 0
SMALL
GASTEIGER

@<TRIPOS>ATOM
      1  N         23.3390   -0.2850   -3.0450 N.3     1  GLU1       -0.1231
      2  CA        23.5300   -1.6400   -3.6040 C.3     1  GLU1        0.1699
      3  C         24.5100   -1.7200   -4.8420 C.2     1  GLU1        0.2592
      4  O         24.6670   -0.7410   -5.5980 O.2     1  GLU1       -0.2718
      5  CB        22.1650   -2.3960   -3.7190 C.3     1  GLU1        0.0402
      6  CG        21.9130   -3.3690   -4.8620 C.3     1  GLU1        0.1161
      7  CD        20.7660   -2.9920   -5.7910 C.2     1  GLU1        0.3649
      8  OE1       19.9910   -2.0700   -5.4390 O.co2   1  GLU1       -0.2457
      9  OE2       20.6810   -3.5720   -6.9020 O.co2   1  GLU1       -0.2457
     10  N         25.2440   -2.8320   -4.9810 N.am    2  ALA2       -0.1980
     11  CA        26.2290   -2.9440   -6.0640 C.3     2  ALA2        0.1597
     12  C         25.8570   -3.9720   -7.1270 C.2     2  ALA2        0.2287
     13  O         25.1700   -3.6380   -8.0920 O.2     2  ALA2       -0.2864
     14  CB        27.5960   -3.2410   -5.4910 C.3     2  ALA2        0.0319
@<TRIPOS>BOND
     1    13    12    2
     2    12    11    1
     3     9     7   ar
     4    11    14    1
     5    11    10    1
     6     7     8   ar
     7     7     6    1
     8     4     3    2
     9    10     3   am
    10     6     5    1
    11     3     2    1
    12     5     2    1
    13     2     1    1
