@<TRIPOS>MOLECULE
3qo3_ATP_A_1.pdb
 31 33 0 0 0
SMALL
GASTEIGER

@<TRIPOS>ATOM
      1  PG       -41.5660  -15.0600  -21.6770 P.3    66  ATP66       0.5373
      2  O1G      -42.6320  -16.1620  -21.5600 O.3    66  ATP66      -0.1143
      3  O2G      -40.2720  -15.5530  -22.2790 O.3    66  ATP66      -0.1143
      4  O3G      -42.0970  -13.7920  -22.3010 O.2    66  ATP66      -0.2221
      5  PB       -41.5790  -15.5960  -18.9640 P.3    66  ATP66       0.2277
      6  O1B      -43.0320  -15.3430  -18.6270 O.3    66  ATP66      -0.4368
      7  O2B      -41.0840  -16.9770  -19.3430 O.2    66  ATP66      -0.5168
      8  O3B      -41.1810  -14.6250  -20.1730 O.3    66  ATP66      -0.2258
      9  PA       -39.9800  -16.1070  -16.7890 P.3    66  ATP66       0.2189
     10  O1A      -39.8680  -15.4670  -15.4090 O.3    66  ATP66      -0.4371
     11  O2A      -40.6630  -17.4810  -16.9280 O.2    66  ATP66      -0.5170
     12  O3A      -40.6910  -15.0360  -17.7530 O.3    66  ATP66      -0.2700
     13  O5'      -38.4850  -16.2400  -17.4120 O.3    66  ATP66      -0.3112
     14  C5'      -38.1610  -15.7850  -18.7440 C.3    66  ATP66       0.1813
     15  C4'      -37.1700  -14.6290  -18.6670 C.3    66  ATP66       0.1821
     16  O4'      -37.6680  -13.4960  -19.3900 O.3    66  ATP66      -0.3135
     17  C3'      -36.9470  -14.1850  -17.2300 C.3    66  ATP66       0.2184
     18  O3'      -35.5400  -14.1920  -16.9490 O.3    66  ATP66      -0.2174
     19  C2'      -37.5060  -12.7780  -17.1610 C.3    66  ATP66       0.2570
     20  O2'      -36.6710  -11.9180  -16.3820 O.3    66  ATP66      -0.2130
     21  C1'      -37.5680  -12.3080  -18.6060 C.3    66  ATP66       0.3186
     22  N9       -38.7640  -11.4580  -18.8130 N.pl3  66  ATP66      -0.1439
     23  C8       -40.0270  -11.8090  -18.5050 C.3    66  ATP66       0.3377
     24  N7       -40.9010  -10.8190  -18.8060 N.2    66  ATP66      -0.2095
     25  C5       -40.1900   -9.8030  -19.3230 C.2    66  ATP66       0.2526
     26  C6       -40.5020   -8.4540  -19.8480 C.2    66  ATP66       0.4393
     27  N6       -41.7800   -7.9980  -19.8760 N.pl3  66  ATP66       0.2180
     28  N1       -39.4710   -7.7000  -20.2970 N.2    66  ATP66       0.0021
     29  C2       -38.2010   -8.1470  -20.2710 C.3    66  ATP66       0.5254
     30  N3       -37.8450   -9.3630  -19.8080 N.2    66  ATP66      -0.0055
     31  C4       -38.7780  -10.2250  -19.3280 C.2    66  ATP66       0.3518
@<TRIPOS>BOND
     1     4     1    2
     2     3     1    1
     3     1     2    1
     4     1     8    1
     5    28    29    1
     6    28    26    2
     7    29    30    1
     8     8     5    1
     9    27    26    1
    10    26    25    1
    11    30    31    2
    12    16    15    1
    13    16    21    1
    14     7     5    2
    15    31    25    1
    16    31    22    1
    17    25    24    2
    18     5     6    1
    19     5    12    1
    20    22    21    1
    21    22    23    1
    22    24    23    1
    23    14    15    1
    24    14    13    1
    25    15    17    1
    26    21    19    1
    27    12     9    1
    28    13     9    1
    29    17    19    1
    30    17    18    1
    31    19    20    1
    32    11     9    2
    33     9    10    1
