@<TRIPOS>MOLECULE
3qo6_III_D_1.pdb
 35 34 0 0 0
SMALL
GASTEIGER

@<TRIPOS>ATOM
      1  N         49.0370  -26.6710   22.5600 N.3     0  UNK0       -0.1231
      2  CA        50.0730  -26.9330   21.5080 C.3     0  UNK0        0.1694
      3  C         49.8100  -28.2250   20.7000 C.2     0  UNK0        0.2592
      4  O         50.3960  -29.2750   20.9790 O.2     0  UNK0       -0.2718
      5  CB        51.4720  -26.9900   22.1560 C.3     0  UNK0        0.0304
      6  N         48.9370  -28.1370   19.6950 N.am    1  UNK1       -0.1966
      7  CA        48.5970  -29.2790   18.8400 C.3     1  UNK1        0.1728
      8  C         49.6840  -29.5170   17.7820 C.2     1  UNK1        0.2616
      9  O         50.2910  -28.5580   17.2970 O.2     1  UNK1       -0.2715
     10  CB        47.2620  -29.0230   18.1650 C.3     1  UNK1        0.0334
     11  N         49.9050  -30.7850   17.4180 N.am    2  UNK2       -0.1963
     12  CA        50.9320  -31.1810   16.4290 C.3     2  UNK2        0.1728
     13  C         50.7860  -30.5850   15.0070 C.2     2  UNK2        0.2616
     14  O         49.6660  -30.2190   14.6060 O.2     2  UNK2       -0.2715
     15  CB        50.9880  -32.7220   16.3410 C.3     2  UNK2        0.0334
     16  N         51.9080  -30.4940   14.2610 N.am    3  UNK3       -0.1963
     17  CA        51.9080  -29.9590   12.8790 C.3     3  UNK3        0.1728
     18  C         51.6480  -31.0560   11.8270 C.2     3  UNK3        0.2616
     19  O         52.5080  -31.3140   10.9930 O.2     3  UNK3       -0.2715
     20  CB        53.2430  -29.2560   12.5710 C.3     3  UNK3        0.0334
     21  N         50.4520  -31.6540   11.8580 N.am    4  UNK4       -0.1963
     22  CA        50.0390  -32.7510   10.9750 C.3     4  UNK4        0.1728
     23  C         49.9360  -32.5270    9.4510 C.2     4  UNK4        0.2616
     24  O         49.2660  -31.6100    8.9720 O.2     4  UNK4       -0.2715
     25  CB        48.7080  -33.3430   11.5030 C.3     4  UNK4        0.0334
     26  N         50.6090  -33.3840    8.6860 N.am    5  UNK5       -0.1963
     27  CA        50.5350  -33.2980    7.2290 C.3     5  UNK5        0.1728
     28  C         49.1950  -33.9720    6.8610 C.2     5  UNK5        0.2616
     29  O         48.8950  -35.0600    7.3610 O.2     5  UNK5       -0.2715
     30  CB        51.7280  -34.0300    6.5880 C.3     5  UNK5        0.0334
     31  N         48.3890  -33.3320    6.0100 N.am    6  UNK6       -0.1977
     32  CA        47.0810  -33.8720    5.6530 C.3     6  UNK6        0.1597
     33  C         46.8820  -34.4230    4.2030 C.2     6  UNK6        0.2287
     34  O         47.3310  -35.5770    3.9700 O.2     6  UNK6       -0.2864
     35  CB        45.9970  -32.8260    6.0120 C.3     6  UNK6        0.0319
@<TRIPOS>BOND
     1    34    33    2
     2    33    32    1
     3    32    31    1
     4    32    35    1
     5    31    28   am
     6    30    27    1
     7    28    27    1
     8    28    29    2
     9    27    26    1
    10    26    23   am
    11    24    23    2
    12    23    22    1
    13    22    25    1
    14    22    21    1
    15    19    18    2
    16    18    21   am
    17    18    17    1
    18    20    17    1
    19    17    16    1
    20    16    13   am
    21    14    13    2
    22    13    12    1
    23    15    12    1
    24    12    11    1
    25     9     8    2
    26    11     8   am
    27     8     7    1
    28    10     7    1
    29     7     6    1
    30     6     3   am
    31     3     4    2
    32     3     2    1
    33     2     5    1
    34     2     1    1
