@<TRIPOS>MOLECULE
3qo7_ATP_A_1.pdb
 31 33 0 0 0
SMALL
GASTEIGER

@<TRIPOS>ATOM
      1  PG       -13.2810  -23.0600    6.1960 P.3   486  ATP486      0.5373
      2  O1G      -11.7710  -23.0150    6.2510 O.3   486  ATP486     -0.1143
      3  O2G      -13.9520  -21.7510    6.5580 O.3   486  ATP486     -0.1143
      4  O3G      -13.8140  -23.7100    4.9410 O.2   486  ATP486     -0.2221
      5  PB       -13.1370  -23.9300    8.8590 P.3   486  ATP486      0.2277
      6  O1B      -12.1930  -22.7490    8.9010 O.2   486  ATP486     -0.5168
      7  O2B      -12.6930  -25.2690    9.3850 O.3   486  ATP486     -0.4368
      8  O3B      -13.7300  -24.0770    7.3770 O.3   486  ATP486     -0.2258
      9  PA       -14.6200  -22.3680   10.6740 P.3   486  ATP486      0.2189
     10  O1A      -13.7020  -21.2350   10.2420 O.2   486  ATP486     -0.5170
     11  O2A      -14.5170  -22.9820   12.0530 O.3   486  ATP486     -0.4371
     12  O3A      -14.4910  -23.5810    9.6310 O.3   486  ATP486     -0.2700
     13  O5'      -16.1470  -22.0850   10.2440 O.3   486  ATP486     -0.3112
     14  C5'      -17.0210  -23.2150   10.1840 C.3   486  ATP486      0.1813
     15  C4'      -18.4330  -22.6930   10.0730 C.3   486  ATP486      0.1821
     16  O4'      -18.5350  -21.4230   10.7350 O.3   486  ATP486     -0.3135
     17  C3'      -18.7120  -22.4210    8.6270 C.3   486  ATP486      0.2184
     18  O3'      -19.3780  -23.5610    8.0830 O.3   486  ATP486     -0.2174
     19  C2'      -19.5630  -21.1660    8.6280 C.3   486  ATP486      0.2570
     20  O2'      -20.9400  -21.5530    8.5960 O.3   486  ATP486     -0.2130
     21  C1'      -19.2750  -20.4810    9.9550 C.3   486  ATP486      0.3186
     22  N9       -18.4970  -19.2230    9.7460 N.pl3 486  ATP486     -0.1439
     23  C8       -17.1630  -19.1550    9.5720 C.3   486  ATP486      0.3377
     24  N7       -16.7530  -17.8680    9.4060 N.2   486  ATP486     -0.2095
     25  C5       -17.8430  -17.0770    9.4660 C.2   486  ATP486      0.2526
     26  C6       -18.1130  -15.6210    9.3690 C.2   486  ATP486      0.4393
     27  N6       -17.0940  -14.7440    9.1700 N.pl3 486  ATP486      0.2180
     28  N1       -19.3880  -15.1960    9.4910 N.2   486  ATP486      0.0021
     29  C2       -20.3990  -16.0550    9.6990 C.3   486  ATP486      0.5254
     30  N3       -20.2210  -17.3900    9.8030 N.2   486  ATP486     -0.0055
     31  C4       -18.9910  -17.9660    9.6940 C.2   486  ATP486      0.3518
@<TRIPOS>BOND
     1     4     1    2
     2     1     2    1
     3     1     3    1
     4     1     8    1
     5     8     5    1
     6    18    17    1
     7    20    19    1
     8    17    19    1
     9    17    15    1
    10    19    21    1
    11     5     6    2
    12     5     7    1
    13     5    12    1
    14    27    26    1
    15    26    25    1
    16    26    28    2
    17    24    25    2
    18    24    23    1
    19    25    31    1
    20    28    29    1
    21    23    22    1
    22    12     9    1
    23    31    22    1
    24    31    30    2
    25    29    30    1
    26    22    21    1
    27    21    16    1
    28    15    14    1
    29    15    16    1
    30    14    13    1
    31    10     9    2
    32    13     9    1
    33     9    11    1
