@<TRIPOS>MOLECULE
3qo8_SSA_A_1.pdb
 29 31 0 0 0
SMALL
GASTEIGER

@<TRIPOS>ATOM
      1  N10      -14.9230  -25.1800   15.4060 N.3   486  SSA486     -0.1202
      2  CA       -14.9640  -25.4140   13.9640 C.3   486  SSA486      0.2036
      3  CB       -16.2170  -26.2090   13.5980 C.3   486  SSA486      0.2104
      4  OG       -17.3960  -25.3960   13.7620 O.3   486  SSA486     -0.2182
      5  C9       -14.9470  -24.1080   13.2210 C.2   486  SSA486      0.2825
      6  O9       -15.0130  -23.0350   13.8090 O.2   486  SSA486     -0.2700
      7  N8       -14.8640  -24.1920   11.8970 N.am  486  SSA486     -0.0576
      8  S1       -15.1370  -22.9480   10.9250 S.3   486  SSA486      0.0852
      9  O1S      -14.1120  -21.9460   10.9880 O.3   486  SSA486     -0.0508
     10  O2S      -15.2570  -23.4390    9.5920 O.3   486  SSA486     -0.0508
     11  O5'      -16.4910  -22.3050   11.2820 O.3   486  SSA486     -0.2230
     12  C5'      -17.6690  -23.0870   11.3780 C.3   486  SSA486      0.2064
     13  C4'      -18.7980  -22.3990   10.6040 C.3   486  SSA486      0.1842
     14  O4'      -19.0930  -21.0840   11.0900 O.3   486  SSA486     -0.3135
     15  C3'      -18.4950  -22.1900    9.1370 C.3   486  SSA486      0.2185
     16  O3'      -18.6710  -23.4210    8.4200 O.3   486  SSA486     -0.2174
     17  C2'      -19.5220  -21.1220    8.7800 C.3   486  SSA486      0.2570
     18  O2'      -20.8210  -21.7170    8.5950 O.3   486  SSA486     -0.2130
     19  C1'      -19.5800  -20.2580   10.0400 C.3   486  SSA486      0.3186
     20  N9       -18.7030  -19.0780    9.8940 N.pl3 486  SSA486     -0.1439
     21  C8       -17.3610  -19.0680    9.8490 C.3   486  SSA486      0.3377
     22  N7       -16.9440  -17.7930    9.6930 N.2   486  SSA486     -0.2095
     23  C5       -18.0410  -17.0140    9.6500 C.2   486  SSA486      0.2526
     24  C6       -18.2330  -15.6520    9.5210 C.2   486  SSA486      0.4393
     25  N6       -17.1560  -14.8460    9.3990 N.pl3 486  SSA486      0.2180
     26  N1       -19.4920  -15.1560    9.5180 N.2   486  SSA486      0.0021
     27  C2       -20.5460  -15.9720    9.6380 C.3   486  SSA486      0.5254
     28  N3       -20.3890  -17.2950    9.7760 N.2   486  SSA486     -0.0055
     29  C4       -19.1470  -17.8310    9.7700 C.2   486  SSA486      0.3518
@<TRIPOS>BOND
     1    16    15    1
     2    18    17    1
     3    17    15    1
     4    17    19    1
     5    15    13    1
     6    25    24    1
     7    26    24    2
     8    26    27    1
     9    24    23    1
    10    10     8    1
    11    27    28    1
    12    23    22    2
    13    23    29    1
    14    22    21    1
    15    29    28    2
    16    29    20    1
    17    21    20    1
    18    20    19    1
    19    19    14    1
    20    13    14    1
    21    13    12    1
    22     8     9    1
    23     8    11    1
    24     8     7    1
    25    11    12    1
    26     7     5   am
    27     5     6    2
    28     5     2    1
    29     3     4    1
    30     3     2    1
    31     2     1    1
