@<TRIPOS>MOLECULE
3qo9_QO9_A_1.pdb
 38 40 0 0 0
SMALL
GASTEIGER

@<TRIPOS>ATOM
      1  C1        46.8950  -30.8140   41.9960 C.1   556  QO9556      0.0000
      2  N1        47.9920  -31.6330   41.8070 N.2   556  QO9556      0.0000
      3  O1        45.9050  -31.2230   42.8290 O.2   556  QO9556      0.0000
      4  S1        53.2030  -29.2090   36.3860 S.3   556  QO9556      0.0000
      5  C2        46.8030  -29.5720   41.3130 C.2   556  QO9556      0.0000
      6  N2        49.0060  -30.0530   40.3050 N.am  556  QO9556      0.0000
      7  O2        50.0890  -32.1120   40.8640 O.2   556  QO9556      0.0000
      8  C3        47.9010  -29.2210   40.4780 C.2   556  QO9556      0.0000
      9  O3        50.7710  -28.4880   40.0020 O.3   556  QO9556      0.0000
     10  C4        49.0400  -31.2710   40.9920 C.1   556  QO9556      0.0000
     11  O4        52.3280  -29.3920   37.7470 O.3   556  QO9556      0.0000
     12  C5        45.7150  -28.7370   41.4820 C.3   556  QO9556      0.0000
     13  O5        50.0250  -30.5430   37.1850 O.3   556  QO9556      0.0000
     14  C6        50.1800  -29.6530   39.4480 C.3   556  QO9556      0.0000
     15  O6        49.5040  -26.3140   40.1590 O.3   556  QO9556      0.0000
     16  C7        51.1470  -27.6230   38.9500 C.3   556  QO9556      0.0000
     17  O7        54.5810  -28.6830   36.6830 O.3   556  QO9556      0.0000
     18  C8        51.1750  -28.5040   37.6950 C.3   556  QO9556      0.0000
     19  O8        53.3370  -30.4900   35.5890 O.3   556  QO9556      0.0000
     20  C9        49.9190  -29.3490   37.9390 C.3   556  QO9556      0.0000
     21  C10       50.1360  -26.4360   38.9180 C.3   556  QO9556      0.0000
     22  C11       51.1970  -27.7110   36.3750 C.2   556  QO9556      0.0000
     23  C12       52.3410  -28.0660   35.5660 C.2   556  QO9556      0.0000
     24  C13       48.8750  -32.7670   35.8170 C.3   556  QO9556      0.0000
     25  C14       47.0820  -30.5930   37.1000 C.3   556  QO9556      0.0000
     26  C15       48.7420  -29.9140   34.6440 C.3   556  QO9556      0.0000
     27  C16       47.6430  -33.2420   35.0420 C.3   556  QO9556      0.0000
     28  C17       50.1370  -32.9840   34.9570 C.3   556  QO9556      0.0000
     29  C18       49.0070  -33.5810   37.1240 C.3   556  QO9556      0.0000
     30  C19       48.3750  -23.5990   39.8710 C.3   556  QO9556      0.0000
     31  C20       46.8200  -26.0880   38.8940 C.3   556  QO9556      0.0000
     32  C21       47.3410  -25.7180   41.8360 C.3   556  QO9556      0.0000
     33  C22       47.0980  -22.8350   40.2580 C.3   556  QO9556      0.0000
     34  C23       49.5310  -23.1170   40.7820 C.3   556  QO9556      0.0000
     35  C24       48.7200  -23.3110   38.4010 C.3   556  QO9556      0.0000
     36 SI1        48.7160  -30.9080   36.2280 Si    556  QO9556      0.0000
     37 SI2        48.0820  -25.4650   40.1410 Si    556  QO9556      0.0000
     38  N3        50.2520  -26.7490   35.9600 N.pl3 556  QO9556      0.0000
@<TRIPOS>BOND
     1    26    36    1
     2    28    24    1
     3    27    24    1
     4    23    22    2
     5    23     4    1
     6    19     4    1
     7    24    36    1
     8    24    29    1
     9    38    22    1
    10    36    25    1
    11    36    13    1
    12    22    18    1
    13     4    17    1
    14     4    11    1
    15    13    20    1
    16    18    11    1
    17    18    20    1
    18    18    16    1
    19    20    14    1
    20    35    30    1
    21    31    37    1
    22    21    16    1
    23    21    15    1
    24    16     9    1
    25    14     9    1
    26    14     6    1
    27    30    37    1
    28    30    33    1
    29    30    34    1
    30    37    15    1
    31    37    32    1
    32     6     8    1
    33     6    10   am
    34     8     5    2
    35     7    10    2
    36    10     2    2
    37     5    12    1
    38     5     1    1
    39     2     1    2
    40     1     3    2
