@<TRIPOS>MOLECULE
3qoa_3QO_A_1.pdb
 13 14 0 0 0
SMALL
GASTEIGER

@<TRIPOS>ATOM
      1  CAA      -41.2930   17.1390  -25.2380 C.ar  501  3QO501     -0.0000
      2  CAB      -41.2980   15.9520  -25.9220 C.ar  501  3QO501     -0.0003
      3  CAC      -41.4610   17.1490  -23.8650 C.ar  501  3QO501     -0.0003
      4  CAD      -45.2180   13.5600  -21.8070 C.ar  501  3QO501      0.0986
      5  CAE      -43.7730   13.2090  -20.0920 C.ar  501  3QO501      0.0986
      6  CAF      -41.4880   14.7610  -25.2250 C.ar  501  3QO501     -0.0039
      7  CAG      -41.6180   15.9590  -23.1880 C.ar  501  3QO501     -0.0039
      8  CAH      -44.2030   13.6000  -22.7090 C.ar  501  3QO501      0.0167
      9  CAI      -42.7120   13.2720  -20.9410 C.ar  501  3QO501      0.0167
     10  CAJ      -41.7970   13.4910  -23.1650 C.3   501  3QO501      0.0527
     11  NAK      -44.9680   13.3630  -20.5640 N.ar  501  3QO501     -0.2423
     12  CAL      -41.6490   14.7840  -23.8610 C.ar  501  3QO501     -0.0178
     13  CAM      -42.9440   13.4610  -22.2430 C.ar  501  3QO501     -0.0147
@<TRIPOS>BOND
     1     2     1   ar
     2     2     6   ar
     3     1     3   ar
     4     6    12   ar
     5     3     7   ar
     6    12     7   ar
     7    12    10    1
     8    10    13    1
     9     8    13   ar
    10     8     4   ar
    11    13     9   ar
    12     4    11   ar
    13     9     5   ar
    14    11     5   ar
