@<TRIPOS>MOLECULE
3qoa_HEM_A_1.pdb
 43 50 0 0 0
SMALL
GASTEIGER

@<TRIPOS>ATOM
      1  CHA      -47.0290   16.1990  -19.2940 C.2   500  HEM500      0.0000
      2  CHB      -44.1260   13.6920  -16.6180 C.2   500  HEM500      0.0000
      3  CHC      -45.8260    9.7450  -18.5620 C.2   500  HEM500      0.0000
      4  CHD      -48.8600   12.2940  -21.0950 C.2   500  HEM500      0.0000
      5  C1A      -46.1030   15.8400  -18.3830 C.2   500  HEM500      0.0000
      6  C2A      -45.3810   16.7830  -17.5570 C.2   500  HEM500      0.0000
      7  C3A      -44.5860   16.0570  -16.8430 C.2   500  HEM500      0.0000
      8  C4A      -44.7970   14.6800  -17.1730 C.2   500  HEM500      0.0000
      9  CMA      -43.6110   16.5870  -15.7960 C.3   500  HEM500      0.0000
     10  CAA      -45.4730   18.3440  -17.5520 C.3   500  HEM500      0.0000
     11  CBA      -46.4900   18.9940  -16.6400 C.3   500  HEM500      0.0000
     12  CGA      -46.4100   20.5020  -16.5660 C.2   500  HEM500      0.0000
     13  O1A      -46.5230   21.1390  -17.5820 O.co2 500  HEM500      0.0000
     14  O2A      -46.2450   21.0210  -15.5040 O.co2 500  HEM500      0.0000
     15  C1B      -44.3230   12.4020  -16.9030 C.ar  500  HEM500      0.0000
     16  C2B      -43.6470   11.3100  -16.3060 C.ar  500  HEM500      0.0000
     17  C3B      -44.1310   10.2260  -16.8450 C.ar  500  HEM500      0.0000
     18  C4B      -45.1060   10.6030  -17.8080 C.ar  500  HEM500      0.0000
     19  CMB      -42.5780   11.3960  -15.2290 C.3   500  HEM500      0.0000
     20  CAB      -43.7320    8.8000  -16.5350 C.2   500  HEM500      0.0000
     21  CBB      -42.6260    8.4510  -15.9610 C.2   500  HEM500      0.0000
     22  C1C      -46.8070   10.0970  -19.3970 C.2   500  HEM500      0.0000
     23  C2C      -47.6110    9.2080  -20.1280 C.2   500  HEM500      0.0000
     24  C3C      -48.4260    9.9340  -20.8340 C.2   500  HEM500      0.0000
     25  C4C      -48.1890   11.2790  -20.5220 C.2   500  HEM500      0.0000
     26  CMC      -47.4690    7.6870  -20.0860 C.3   500  HEM500      0.0000
     27  CAC      -49.5240    9.4880  -21.7890 C.2   500  HEM500      0.0000
     28  CBC      -50.1980    8.3630  -21.6580 C.2   500  HEM500      0.0000
     29  C1D      -48.6450   13.6000  -20.9380 C.ar  500  HEM500      0.0000
     30  C2D      -49.3300   14.6410  -21.6210 C.ar  500  HEM500      0.0000
     31  C3D      -48.7360   15.8900  -21.0210 C.ar  500  HEM500      0.0000
     32  C4D      -47.8020   15.4310  -20.0730 C.ar  500  HEM500      0.0000
     33  CMD      -50.4040   14.4810  -22.6940 C.3   500  HEM500      0.0000
     34  CAD      -49.0690   17.3160  -21.3220 C.3   500  HEM500      0.0000
     35  CBD      -50.1070   17.7580  -20.3010 C.3   500  HEM500      0.0000
     36  CGD      -50.6770   19.0880  -20.6060 C.2   500  HEM500      0.0000
     37  O1D      -51.8570   19.2190  -20.4310 O.co2 500  HEM500      0.0000
     38  O2D      -49.9990   19.9970  -21.0640 O.co2 500  HEM500      0.0000
     39  NA       -45.7460   14.5190  -18.1300 N.2   500  HEM500      0.0000
     40  NB       -45.2250   11.9700  -17.8500 N.ar  500  HEM500      0.0000
     41  NC       -47.1940   11.3500  -19.6480 N.2   500  HEM500      0.0000
     42  ND       -47.7770   14.0990  -20.0460 N.ar  500  HEM500      0.0000
     43 FE        -46.5130   13.0040  -18.8130 Fe    500  HEM500      0.0000
@<TRIPOS>BOND
     1    33    30    1
     2    27    28    2
     3    27    24    1
     4    30    31   ar
     5    30    29   ar
     6    34    31    1
     7    34    35    1
     8     4    29    2
     9     4    25    1
    10    38    36   ar
    11    31    32   ar
    12    29    42   ar
    13    24    25    1
    14    24    23    2
    15    36    37   ar
    16    36    35    1
    17    25    41    2
    18    23    26    1
    19    23    22    1
    20    32    42   ar
    21    32     1    2
    22    42    43    1
    23    41    22    1
    24    41    43    1
    25    22     3    2
    26     1     5    1
    27    43    39    1
    28    43    40    1
    29     3    18    1
    30     5    39    2
    31     5     6    1
    32    39     8    1
    33    40    18   ar
    34    40    15   ar
    35    18    17   ar
    36    13    12   ar
    37     6    10    1
    38     6     7    2
    39    10    11    1
    40     8     7    1
    41     8     2    2
    42    15     2    1
    43    15    16   ar
    44    17    20    1
    45    17    16   ar
    46     7     9    1
    47    11    12    1
    48    12    14   ar
    49    20    21    2
    50    16    19    1
