@<TRIPOS>MOLECULE
3qoa_CM5_A_1.pdb
 12 12 0 0 0
SMALL
GASTEIGER

@<TRIPOS>ATOM
      1  C7       -24.5330   31.5610  -30.8280 C.3   604  CM5604      0.0000
      2  C8       -24.4240   30.1390  -30.2740 C.3   604  CM5604      0.0000
      3  C9       -22.9890   29.7380  -29.9020 C.3   604  CM5604      0.0000
      4  C10      -22.3380   30.8160  -29.0310 C.3   604  CM5604      0.0000
      5  C11      -22.4980   32.2150  -29.6390 C.3   604  CM5604      0.0000
      6  C6       -23.9910   32.5360  -29.7900 C.3   604  CM5604      0.0000
      7  C5       -24.2270   33.9920  -30.1880 C.3   604  CM5604      0.0000
      8  C4       -25.6060   34.2140  -30.7950 C.3   604  CM5604      0.0001
      9  C3       -26.0310   35.6810  -30.8290 C.3   604  CM5604      0.0027
     10  C2       -27.0760   35.8880  -31.9370 C.3   604  CM5604      0.0355
     11  C1       -28.1260   36.9320  -31.5670 C.3   604  CM5604      0.1821
     12  O12      -29.3520   36.7340  -32.2890 O.3   604  CM5604     -0.2204
@<TRIPOS>BOND
     1    12    11    1
     2    10    11    1
     3    10     9    1
     4     9     8    1
     5     1     2    1
     6     1     6    1
     7     8     7    1
     8     2     3    1
     9     7     6    1
    10     3     4    1
    11     6     5    1
    12     5     4    1
