@<TRIPOS>MOLECULE
3qof_GDP_A_1.pdb
 28 30 0 0 0
SMALL
GASTEIGER

@<TRIPOS>ATOM
      1  PB         5.3680   24.9710   17.5680 P.3   593  GDP593      0.5373
      2  O1B        6.4070   24.8230   16.4880 O.2   593  GDP593     -0.2221
      3  O2B        5.1820   23.5900   18.1450 O.3   593  GDP593     -0.1143
      4  O3B        5.7520   25.9840   18.6390 O.3   593  GDP593     -0.1143
      5  O3A        4.0110   25.4440   16.8420 O.3   593  GDP593     -0.2261
      6  PA         2.6670   25.6290   17.6960 P.3   593  GDP593      0.2231
      7  O1A        1.8450   24.3860   17.5320 O.2   593  GDP593     -0.5169
      8  O2A        2.9940   25.8580   19.1570 O.3   593  GDP593     -0.4370
      9  O5'        2.0620   26.9940   17.1020 O.3   593  GDP593     -0.3111
     10  C5'        2.1750   27.3170   15.7210 C.3   593  GDP593      0.1813
     11  C4'        1.1980   28.4470   15.4190 C.3   593  GDP593      0.1799
     12  O4'        0.6180   28.2710   14.1240 O.3   593  GDP593     -0.3326
     13  C3'        0.0550   28.3980   16.4090 C.3   593  GDP593      0.2158
     14  O3'       -0.2830   29.7590   16.6740 O.3   593  GDP593     -0.2175
     15  C2'       -1.0700   27.6490   15.7080 C.3   593  GDP593      0.2310
     16  O2'       -2.3610   28.2220   15.9870 O.3   593  GDP593     -0.2158
     17  C1'       -0.7010   27.7250   14.2260 C.3   593  GDP593      0.2293
     18  N9        -0.7470   26.3900   13.5610 N.pl3 593  GDP593     -0.2354
     19  C8        -0.8730   25.1770   14.1150 C.3   593  GDP593      0.2246
     20  N7        -0.8970   24.1970   13.1600 N.2   593  GDP593     -0.2322
     21  C5        -0.7690   24.7900   11.9640 C.2   593  GDP593      0.2182
     22  C6        -0.7050   24.3770   10.5420 C.1   593  GDP593      0.2372
     23  O6        -0.7700   23.1960   10.1730 O.2   593  GDP593     -0.2069
     24  N1        -0.5730   25.3170    9.6160 N.2   593  GDP593     -0.2485
     25  C2        -0.5000   26.6230    9.9360 C.1   593  GDP593      0.2531
     26  N2        -0.3720   27.5150    8.9420 N.pl3 593  GDP593     -0.0226
     27  N3        -0.5520   27.0820   11.2060 N.2   593  GDP593     -0.3074
     28  C4        -0.6730   26.2250   12.2450 C.2   593  GDP593      0.2300
@<TRIPOS>BOND
     1    26    25    1
     2    24    25    2
     3    24    22    2
     4    25    27    2
     5    23    22    2
     6    22    21    1
     7    27    28    2
     8    21    28    1
     9    21    20    2
    10    28    18    1
    11    20    19    1
    12    18    19    1
    13    18    17    1
    14    12    17    1
    15    12    11    1
    16    17    15    1
    17    11    10    1
    18    11    13    1
    19    15    16    1
    20    15    13    1
    21    10     9    1
    22    13    14    1
    23     2     1    2
    24     5     1    1
    25     5     6    1
    26     9     6    1
    27     7     6    2
    28     1     3    1
    29     1     4    1
    30     6     8    1
