@<TRIPOS>MOLECULE
3qoj_THP_A_1.pdb
 25 26 0 0 0
SMALL
GASTEIGER

@<TRIPOS>ATOM
      1  P2        49.0280   23.6410    4.8630 P.3   151  THP151      0.5327
      2  O4P       49.0360   22.1740    5.1210 O.2   151  THP151     -0.2224
      3  O5P       47.7960   24.3960    5.3790 O.3   151  THP151     -0.1145
      4  O6P       50.3110   24.3700    5.3990 O.3   151  THP151     -0.1145
      5  P1        52.2750   27.1800    1.0500 P.3   151  THP151      0.5326
      6  O1P       53.2800   27.7940    0.1280 O.2   151  THP151     -0.2224
      7  O2P       52.9560   26.0270    1.8810 O.3   151  THP151     -0.1145
      8  O3P       51.6450   28.1180    2.1120 O.3   151  THP151     -0.1145
      9  O5'       49.0090   23.6650    3.2990 O.3   151  THP151     -0.2675
     10  C5'       49.0410   24.9980    2.7390 C.3   151  THP151      0.1857
     11  C4'       49.9490   24.9520    1.5010 C.3   151  THP151      0.1748
     12  O4'       49.6100   23.8640    0.6300 O.3   151  THP151     -0.3340
     13  C3'       49.9080   26.2350    0.6230 C.3   151  THP151      0.1600
     14  O3'       51.2160   26.5170    0.0540 O.3   151  THP151     -0.2700
     15  C2'       49.0140   25.7580   -0.5410 C.3   151  THP151      0.0847
     16  C1'       49.3310   24.2260   -0.6870 C.3   151  THP151      0.2089
     17  N1        48.0180   23.5820   -1.0610 N.am  151  THP151     -0.1794
     18  C2        47.7250   23.3560   -2.3740 C.1   151  THP151      0.2844
     19  O2        48.5910   23.6830   -3.2290 O.2   151  THP151     -0.1918
     20  N3        46.5240   22.8460   -2.7860 N.2   151  THP151     -0.2455
     21  C4        45.5450   22.5400   -1.8910 C.1   151  THP151      0.2134
     22  O4        44.4750   22.1490   -2.3400 O.2   151  THP151     -0.2088
     23  C5        45.8500   22.7410   -0.5150 C.2   151  THP151      0.0891
     24  C5M       44.8040   22.4200    0.5690 C.3   151  THP151      0.0462
     25  C6        47.0560   23.2740   -0.1140 C.2   151  THP151      0.0877
@<TRIPOS>BOND
     1    19    18    2
     2    20    18    2
     3    20    21    2
     4    18    17   am
     5    22    21    2
     6    21    23    1
     7    17    16    1
     8    17    25    1
     9    16    15    1
    10    16    12    1
    11    15    13    1
    12    23    25    2
    13    23    24    1
    14    14    13    1
    15    14     5    1
    16     6     5    2
    17    13    11    1
    18    12    11    1
    19     5     7    1
    20     5     8    1
    21    11    10    1
    22    10     9    1
    23     9     1    1
    24     1     2    2
    25     1     3    1
    26     1     4    1
