@<TRIPOS>MOLECULE
3qol_THP_A_1.pdb
 25 26 0 0 0
SMALL
GASTEIGER

@<TRIPOS>ATOM
      1  P2        17.8590   10.9950    4.7160 P.3   151  THP151      0.5327
      2  O4P       17.8460    9.5260    5.0400 O.2   151  THP151     -0.2224
      3  O5P       16.5780   11.7600    5.2280 O.3   151  THP151     -0.1145
      4  O6P       19.2250   11.6100    5.1070 O.3   151  THP151     -0.1145
      5  P1        21.1840   14.4410    0.7590 P.3   151  THP151      0.5326
      6  O1P       22.1890   15.1070   -0.1010 O.2   151  THP151     -0.2224
      7  O2P       21.9130   13.2400    1.5290 O.3   151  THP151     -0.1145
      8  O3P       20.6660   15.4560    1.8830 O.3   151  THP151     -0.1145
      9  O5'       17.9520   10.9740    3.1040 O.3   151  THP151     -0.2675
     10  C5'       17.9270   12.2760    2.5130 C.3   151  THP151      0.1857
     11  C4'       18.9070   12.1940    1.3460 C.3   151  THP151      0.1748
     12  O4'       18.5270   11.0710    0.5850 O.3   151  THP151     -0.3340
     13  C3'       18.8650   13.4080    0.3660 C.3   151  THP151      0.1600
     14  O3'       20.1380   13.7510   -0.2640 O.3   151  THP151     -0.2700
     15  C2'       17.8880   12.9010   -0.6650 C.3   151  THP151      0.0847
     16  C1'       18.2170   11.3740   -0.7850 C.3   151  THP151      0.2089
     17  N1        16.9630   10.7530   -1.1700 N.am  151  THP151     -0.1794
     18  C2        16.6730   10.5560   -2.5010 C.1   151  THP151      0.2844
     19  O2        17.5290   10.8230   -3.3520 O.2   151  THP151     -0.1918
     20  N3        15.5310    9.9670   -2.9100 N.2   151  THP151     -0.2455
     21  C4        14.5550    9.7010   -2.0170 C.1   151  THP151      0.2134
     22  O4        13.5030    9.3090   -2.4250 O.2   151  THP151     -0.2088
     23  C5        14.7810    9.9390   -0.6470 C.2   151  THP151      0.0891
     24  C5M       13.7420    9.6270    0.4110 C.3   151  THP151      0.0462
     25  C6        15.9680   10.4730   -0.2460 C.2   151  THP151      0.0877
@<TRIPOS>BOND
     1    19    18    2
     2    20    18    2
     3    20    21    2
     4    18    17   am
     5    22    21    2
     6    21    23    1
     7    17    16    1
     8    17    25    1
     9    16    15    1
    10    16    12    1
    11    15    13    1
    12    23    25    2
    13    23    24    1
    14    14    13    1
    15    14     5    1
    16     6     5    2
    17    13    11    1
    18    12    11    1
    19     5     7    1
    20     5     8    1
    21    11    10    1
    22    10     9    1
    23     9     1    1
    24     1     2    2
    25     1     4    1
    26     1     3    1
