@<TRIPOS>MOLECULE
3qom_BGC_A_1.pdb
 12 12 0 0 0
SMALL
GASTEIGER

@<TRIPOS>ATOM
      1  C2        28.6620   51.3730   27.3190 C.3   479  BGC479      0.2434
      2  C3        29.3420   50.3950   28.2600 C.3   479  BGC479      0.2199
      3  C4        29.8980   49.2590   27.4240 C.3   479  BGC479      0.2144
      4  C5        30.8010   49.8380   26.3230 C.3   479  BGC479      0.1836
      5  C6        31.3010   48.7320   25.3810 C.3   479  BGC479      0.2142
      6  C1        29.6590   51.8850   26.2860 C.3   479  BGC479      0.3024
      7  O1        28.9090   52.7200   25.4200 O.3   479  BGC479     -0.1869
      8  O2        28.1280   52.4350   28.1060 O.3   479  BGC479     -0.2148
      9  O3        28.3550   49.9800   29.2010 O.3   479  BGC479     -0.2174
     10  O4        30.6460   48.3970   28.2410 O.3   479  BGC479     -0.2176
     11  O5        30.0470   50.7450   25.5440 O.3   479  BGC479     -0.3236
     12  O6        30.2470   48.1340   24.6170 O.3   479  BGC479     -0.2176
@<TRIPOS>BOND
     1    12     5    1
     2     5     4    1
     3     7     6    1
     4    11     6    1
     5    11     4    1
     6     6     1    1
     7     4     3    1
     8     1     8    1
     9     1     2    1
    10     3    10    1
    11     3     2    1
    12     2     9    1
