@<TRIPOS>MOLECULE
3qon_THP_A_1.pdb
 25 26 0 0 0
SMALL
GASTEIGER

@<TRIPOS>ATOM
      1  P2        17.8240   10.7890    4.8410 P.3   151  THP151      0.5327
      2  O4P       17.7890    9.3190    5.1130 O.2   151  THP151     -0.2224
      3  O5P       16.5370   11.5620    5.4390 O.3   151  THP151     -0.1145
      4  O6P       19.0880   11.4130    5.5030 O.3   151  THP151     -0.1145
      5  P1        21.1260   14.2640    1.0810 P.3   151  THP151      0.5326
      6  O1P       22.1950   14.8920    0.3110 O.2   151  THP151     -0.2224
      7  O2P       21.7450   13.1290    2.0350 O.3   151  THP151     -0.1145
      8  O3P       20.3760   15.3570    1.9530 O.3   151  THP151     -0.1145
      9  O5'       17.8140   10.9170    3.2350 O.3   151  THP151     -0.2675
     10  C5'       18.0020   12.2620    2.8000 C.3   151  THP151      0.1857
     11  C4'       18.8610   12.1470    1.5280 C.3   151  THP151      0.1748
     12  O4'       18.4100   11.0140    0.7870 O.3   151  THP151     -0.3340
     13  C3'       18.8020   13.3620    0.5570 C.3   151  THP151      0.1600
     14  O3'       20.1040   13.5990   -0.0100 O.3   151  THP151     -0.2700
     15  C2'       17.8710   12.8380   -0.5830 C.3   151  THP151      0.0847
     16  C1'       18.1240   11.3010   -0.5680 C.3   151  THP151      0.2089
     17  N1        16.8480   10.6750   -0.9520 N.am  151  THP151     -0.1794
     18  C2        16.5820   10.5170   -2.2910 C.1   151  THP151      0.2844
     19  O2        17.4230   10.8340   -3.1200 O.2   151  THP151     -0.1918
     20  N3        15.4050   10.0280   -2.7530 N.2   151  THP151     -0.2455
     21  C4        14.4390    9.6950   -1.8750 C.1   151  THP151      0.2134
     22  O4        13.4020    9.2800   -2.3490 O.2   151  THP151     -0.2088
     23  C5        14.6620    9.8640   -0.4600 C.2   151  THP151      0.0891
     24  C5M       13.6280    9.5160    0.5820 C.3   151  THP151      0.0462
     25  C6        15.8560   10.3710   -0.0370 C.2   151  THP151      0.0877
@<TRIPOS>BOND
     1    19    18    2
     2    20    18    2
     3    20    21    2
     4    22    21    2
     5    18    17   am
     6    21    23    1
     7    17    16    1
     8    17    25    1
     9    15    16    1
    10    15    13    1
    11    16    12    1
    12    23    25    2
    13    23    24    1
    14    14    13    1
    15    14     5    1
    16     6     5    2
    17    13    11    1
    18    12    11    1
    19     5     8    1
    20     5     7    1
    21    11    10    1
    22    10     9    1
    23     9     1    1
    24     1     2    2
    25     1     3    1
    26     1     4    1
