@<TRIPOS>MOLECULE
3qop_CMP_A_1.pdb
 22 25 0 0 0
SMALL
GASTEIGER

@<TRIPOS>ATOM
      1  P        -14.3210    1.6520   17.2190 P.3   301  CMP301      0.2141
      2  O1P      -13.4850    0.8060   18.1300 O.3   301  CMP301     -0.4373
      3  O2P      -15.4080    1.0350   16.4380 O.2   301  CMP301     -0.5172
      4  O5'      -15.0220    2.5850   18.3700 O.3   301  CMP301     -0.3114
      5  C5'      -14.6200    3.9430   18.7440 C.3   301  CMP301      0.1812
      6  C4'      -13.5120    4.5830   17.8730 C.3   301  CMP301      0.1793
      7  O4'      -12.5760    5.3290   18.5510 O.3   301  CMP301     -0.3136
      8  C3'      -12.6600    3.5790   17.0780 C.3   301  CMP301      0.1884
      9  O3'      -13.3540    2.5770   16.2370 O.3   301  CMP301     -0.3111
     10  C2'      -11.7270    4.5300   16.4660 C.3   301  CMP301      0.2541
     11  O2'      -12.3590    5.1970   15.3990 O.3   301  CMP301     -0.2131
     12  C1'      -11.5830    5.6330   17.5580 C.3   301  CMP301      0.3185
     13  N9       -10.2680    5.4150   18.1690 N.pl3 301  CMP301     -0.1439
     14  C8        -9.9490    4.4610   19.1840 C.3   301  CMP301      0.3377
     15  N7        -8.6870    4.4540   19.5460 N.2   301  CMP301     -0.2095
     16  C5        -8.1140    5.4590   18.7260 C.2   301  CMP301      0.2526
     17  C6        -6.7670    5.9360   18.6310 C.2   301  CMP301      0.4393
     18  N6        -5.8160    5.4130   19.4160 N.pl3 301  CMP301      0.2180
     19  N1        -6.4700    6.9380   17.7180 N.2   301  CMP301      0.0021
     20  C2        -7.5060    7.4560   16.9300 C.3   301  CMP301      0.5254
     21  N3        -8.8350    7.0960   16.9330 N.2   301  CMP301     -0.0055
     22  C4        -9.0670    6.0540   17.8840 C.2   301  CMP301      0.3518
@<TRIPOS>BOND
     1    11    10    1
     2     9     8    1
     3     9     1    1
     4     3     1    2
     5    10     8    1
     6    10    12    1
     7    20    21    1
     8    20    19    1
     9    21    22    2
    10     8     6    1
    11     1     2    1
    12     1     4    1
    13    12    13    1
    14    12     7    1
    15    19    17    2
    16     6     7    1
    17     6     5    1
    18    22    13    1
    19    22    16    1
    20    13    14    1
    21     4     5    1
    22    17    16    1
    23    17    18    1
    24    16    15    2
    25    14    15    1
