@<TRIPOS>MOLECULE
3qov_COA_A_1.pdb
 48 50 0 0 0
SMALL
GASTEIGER

@<TRIPOS>ATOM
      1  N1A        5.6900   45.3970   31.4620 N.2   438  COA438      0.0021
      2  C2A        5.3680   44.2130   32.0730 C.3   438  COA438      0.5254
      3  N3A        6.1660   43.1180   32.2170 N.2   438  COA438     -0.0055
      4  C4A        7.4040   43.2560   31.6510 C.2   438  COA438      0.3518
      5  C5A        7.8530   44.3970   30.9780 C.2   438  COA438      0.2526
      6  C6A        6.9330   45.5150   30.8890 C.2   438  COA438      0.4393
      7  N6A        7.2570   46.7010   30.2890 N.pl3 438  COA438      0.2180
      8  N7A        9.1430   44.1800   30.5340 N.2   438  COA438     -0.2095
      9  C8A        9.4720   42.9610   30.9250 C.3   438  COA438      0.3377
     10  N9A        8.4540   42.3600   31.6000 N.pl3 438  COA438     -0.1439
     11  C1B        8.4650   41.0400   32.1960 C.3   438  COA438      0.3185
     12  C2B        9.2130   39.9180   31.4690 C.3   438  COA438      0.2543
     13  O2B        8.5730   39.3530   30.3250 O.3   438  COA438     -0.2131
     14  C3B        9.4860   38.9630   32.6460 C.3   438  COA438      0.1928
     15  O3B        8.3650   38.1610   33.0590 O.3   438  COA438     -0.2673
     16  P3B        7.9540   36.7220   32.3430 P.3   438  COA438      0.5327
     17  O7A        7.3810   37.0230   30.9790 O.2   438  COA438     -0.2224
     18  O8A        9.2540   35.9460   32.2980 O.3   438  COA438     -0.1145
     19  O9A        7.0050   36.1200   33.3550 O.3   438  COA438     -0.1145
     20  C4B        9.8360   39.9520   33.7960 C.3   438  COA438      0.1795
     21  O4B        9.1910   41.2120   33.4470 O.3   438  COA438     -0.3136
     22  C5B       11.3340   40.2480   34.0330 C.3   438  COA438      0.1812
     23  O5B       12.2010   39.8020   32.9500 O.3   438  COA438     -0.3112
     24  P1A       13.4820   40.6200   32.2410 P.3   438  COA438      0.2189
     25  O1A       12.9240   41.4470   31.0740 O.2   438  COA438     -0.5170
     26  O2A       14.6730   39.6710   32.0050 O.3   438  COA438     -0.4371
     27  O3A       13.9460   41.5490   33.5150 O.3   438  COA438     -0.2703
     28  P2A       13.6020   42.8370   34.4720 P.3   438  COA438      0.2188
     29  O4A       14.7580   43.5340   35.1550 O.2   438  COA438     -0.5170
     30  O5A       12.4200   42.5600   35.4280 O.3   438  COA438     -0.4371
     31  O6A       13.1740   43.8870   33.2550 O.3   438  COA438     -0.3138
     32  CBP       11.3450   45.3900   34.3180 C.3   438  COA438      0.0645
     33  CCP       11.8220   44.3770   33.1960 C.3   438  COA438      0.1519
     34  CDP       12.4070   45.7410   35.4050 C.3   438  COA438      0.0056
     35  CEP       10.1610   44.6860   35.0630 C.3   438  COA438      0.0056
     36  CAP       10.9430   46.8070   33.7410 C.3   438  COA438      0.2312
     37  OAP       11.0400   46.8600   32.3160 O.3   438  COA438     -0.2131
     38  C9P        9.6900   47.5550   34.3210 C.2   438  COA438      0.2719
     39  O9P        9.5770   47.8140   35.5360 O.2   438  COA438     -0.2706
     40  N8P        8.7330   47.9020   33.3580 N.am  438  COA438     -0.2028
     41  C7P        7.4890   48.5980   33.5900 C.3   438  COA438      0.1248
     42  C6P        6.9730   49.1370   32.2640 C.3   438  COA438      0.1102
     43  C5P        6.5490   50.5920   32.2270 C.2   438  COA438      0.2432
     44  O5P        6.7190   51.3850   33.1470 O.2   438  COA438     -0.2733
     45  N4P        5.9370   50.8770   31.0130 N.am  438  COA438     -0.2044
     46  C3P        5.4000   52.1850   30.6360 C.3   438  COA438      0.1276
     47  C2P        3.8890   52.1830   30.3750 C.3   438  COA438      0.0920
     48  S1P        3.2740   53.7820   29.7110 S.3   438  COA438     -0.0802
@<TRIPOS>BOND
     1    48    47    1
     2     7     6    1
     3    13    12    1
     4    47    46    1
     5     8     9    1
     6     8     5    2
     7    46    45    1
     8     6     5    1
     9     6     1    2
    10     9    10    1
    11     5     4    1
    12    17    16    2
    13    45    43   am
    14    25    24    2
    15     1     2    1
    16    12    11    1
    17    12    14    1
    18    10     4    1
    19    10    11    1
    20     4     3    2
    21    26    24    1
    22     2     3    1
    23    11    21    1
    24    43    42    1
    25    43    44    2
    26    24    23    1
    27    24    27    1
    28    42    41    1
    29    18    16    1
    30    37    36    1
    31    16    15    1
    32    16    19    1
    33    14    15    1
    34    14    20    1
    35    23    22    1
    36    33    31    1
    37    33    32    1
    38    31    28    1
    39    40    41    1
    40    40    38   am
    41    21    20    1
    42    27    28    1
    43    36    32    1
    44    36    38    1
    45    20    22    1
    46    32    35    1
    47    32    34    1
    48    38    39    2
    49    28    29    2
    50    28    30    1
