@<TRIPOS>MOLECULE
3qov_ADP_A_1.pdb
 27 29 0 0 0
SMALL
GASTEIGER

@<TRIPOS>ATOM
      1  PB         7.0690   56.0650   30.3160 P.3   437  ADP437      0.5373
      2  O1B        7.4260   55.6210   31.8610 O.3   437  ADP437     -0.1143
      3  O2B        8.1170   55.4420   29.2800 O.2   437  ADP437     -0.2221
      4  O3B        5.7830   55.4200   29.5140 O.3   437  ADP437     -0.1143
      5  PA         8.1530   58.3380   29.8200 P.3   437  ADP437      0.2231
      6  O1A        9.3150   57.5130   30.4710 O.3   437  ADP437     -0.4370
      7  O2A        8.3580   59.7650   30.3530 O.2   437  ADP437     -0.5169
      8  O3A        6.8400   57.7140   30.1230 O.3   437  ADP437     -0.2261
      9  O5'        8.5440   58.1160   28.1720 O.3   437  ADP437     -0.3111
     10  C5'        7.8170   58.8210   27.1970 C.3   437  ADP437      0.1813
     11  C4'        8.4410   58.5700   25.8450 C.3   437  ADP437      0.1821
     12  O4'        7.9620   57.2450   25.4450 O.3   437  ADP437     -0.3135
     13  C3'        7.8760   59.5420   24.7830 C.3   437  ADP437      0.2184
     14  O3'        8.5300   60.8420   24.8240 O.3   437  ADP437     -0.2174
     15  C2'        8.0640   58.7000   23.4980 C.3   437  ADP437      0.2570
     16  O2'        9.4580   58.8590   23.0910 O.3   437  ADP437     -0.2130
     17  C1'        7.7590   57.2090   24.0090 C.3   437  ADP437      0.3186
     18  N9         6.3680   56.8400   23.8640 N.pl3 437  ADP437     -0.1439
     19  C8         5.3480   56.9490   24.8000 C.3   437  ADP437      0.3377
     20  N7         4.1860   56.5620   24.2960 N.2   437  ADP437     -0.2095
     21  C5         4.5060   56.1760   22.9650 C.2   437  ADP437      0.2526
     22  C6         3.7540   55.6750   21.8990 C.2   437  ADP437      0.4393
     23  N6         2.3950   55.4050   21.9500 N.pl3 437  ADP437      0.2180
     24  N1         4.3710   55.4790   20.7260 N.2   437  ADP437      0.0021
     25  C2         5.7180   55.6530   20.5860 C.3   437  ADP437      0.5254
     26  N3         6.5960   56.1300   21.4980 N.2   437  ADP437     -0.0055
     27  C4         5.8880   56.3640   22.6950 C.2   437  ADP437      0.3518
@<TRIPOS>BOND
     1    25    24    1
     2    25    26    1
     3    24    22    2
     4    26    27    2
     5    22    23    1
     6    22    21    1
     7    27    21    1
     8    27    18    1
     9    21    20    2
    10    16    15    1
    11    15    17    1
    12    15    13    1
    13    18    17    1
    14    18    19    1
    15    17    12    1
    16    20    19    1
    17    13    14    1
    18    13    11    1
    19    12    11    1
    20    11    10    1
    21    10     9    1
    22     9     5    1
    23     3     1    2
    24     4     1    1
    25     5     8    1
    26     5     7    2
    27     5     6    1
    28     8     1    1
    29     1     2    1
