@<TRIPOS>MOLECULE
3qow_SAM_A_1.pdb
 27 29 0 0 0
SMALL
GASTEIGER

@<TRIPOS>ATOM
      1  N         23.5640   62.1640   -3.2720 N.3   417  SAM417     -0.1208
      2  CA        24.9460   62.5820   -3.6710 C.3   417  SAM417      0.1952
      3  C         25.5400   63.5130   -2.6050 C.2   417  SAM417      0.3819
      4  O         24.7940   64.2340   -1.9170 O.co2 417  SAM417     -0.2441
      5  OXT       26.7650   63.5700   -2.4140 O.co2 417  SAM417     -0.2441
      6  CB        24.9130   63.2620   -5.0470 C.3   417  SAM417      0.0414
      7  CG        23.9190   64.4390   -5.1540 C.3   417  SAM417      0.0503
      8  SD        23.9050   65.2620   -6.7670 S.3   417  SAM417     -0.1761
      9  CE        23.8720   67.0340   -6.3800 C.3   417  SAM417      0.0590
     10  C5'       22.1910   65.0280   -7.2930 C.3   417  SAM417      0.0806
     11  C4'       21.9950   63.7410   -8.0770 C.3   417  SAM417      0.1622
     12  O4'       20.5950   63.5330   -8.2080 O.3   417  SAM417     -0.3153
     13  C3'       22.5500   63.8960   -9.4860 C.3   417  SAM417      0.2168
     14  O3'       23.6250   63.0120   -9.7450 O.3   417  SAM417     -0.2175
     15  C2'       21.3570   63.6720  -10.4080 C.3   417  SAM417      0.2569
     16  O2'       21.6650   62.8240  -11.4850 O.3   417  SAM417     -0.2130
     17  C1'       20.3980   62.9520   -9.4800 C.3   417  SAM417      0.3185
     18  N9        18.9970   62.9590   -9.9500 N.pl3 417  SAM417     -0.1439
     19  C8        18.2760   64.0270  -10.4270 C.3   417  SAM417      0.3377
     20  N7        17.0360   63.5890  -10.7560 N.2   417  SAM417     -0.2095
     21  C5        16.9520   62.2690  -10.4970 C.2   417  SAM417      0.2526
     22  C6        15.9290   61.3330  -10.6340 C.2   417  SAM417      0.4393
     23  N6        14.7310   61.6640  -11.1230 N.pl3 417  SAM417      0.2180
     24  N1        16.1690   60.0270  -10.2720 N.2   417  SAM417      0.0021
     25  C2        17.3940   59.6240   -9.7650 C.3   417  SAM417      0.5254
     26  N3        18.3940   60.5670   -9.6360 N.2   417  SAM417     -0.0055
     27  C4        18.1860   61.8600   -9.9870 C.2   417  SAM417      0.3518
@<TRIPOS>BOND
     1    16    15    1
     2    23    22    1
     3    20    21    2
     4    20    19    1
     5    22    21    1
     6    22    24    2
     7    21    27    1
     8    19    18    1
     9    15    13    1
    10    15    17    1
    11    24    25    1
    12    27    18    1
    13    27    26    2
    14    18    17    1
    15    25    26    1
    16    14    13    1
    17    13    11    1
    18    17    12    1
    19    12    11    1
    20    11    10    1
    21    10     8    1
    22     8     9    1
    23     8     7    1
    24     7     6    1
    25     6     2    1
    26     2     1    1
    27     2     3    1
    28     3     5   ar
    29     3     4   ar
