@<TRIPOS>MOLECULE
3qox_SAH_A_1.pdb
 26 28 0 0 0
SMALL
GASTEIGER

@<TRIPOS>ATOM
      1  N         41.8560   51.3360    1.4430 N.3   417  SAH417     -0.1208
      2  CA        41.5950   52.7270    1.9560 C.3   417  SAH417      0.1952
      3  CB        42.2760   52.9610    3.3260 C.3   417  SAH417      0.0422
      4  CG        43.8070   52.8570    3.3140 C.3   417  SAH417      0.0597
      5  SD        44.4650   53.1980    4.9230 S.3   417  SAH417     -0.1375
      6  C         42.0710   53.7240    0.9240 C.2   417  SAH417      0.3819
      7  O         41.5410   54.8350    0.7830 O.co2 417  SAH417     -0.2441
      8  OXT       43.0140   53.4450    0.1850 O.co2 417  SAH417     -0.2441
      9  C5'       45.1710   51.6630    5.4490 C.3   417  SAH417      0.0899
     10  C4'       44.1380   50.8630    6.2410 C.3   417  SAH417      0.1630
     11  O4'       44.6050   49.5150    6.3440 O.3   417  SAH417     -0.3153
     12  C3'       43.9540   51.3520    7.6820 C.3   417  SAH417      0.2168
     13  O3'       42.5650   51.5950    7.9370 O.3   417  SAH417     -0.2175
     14  C2'       44.4170   50.1910    8.5490 C.3   417  SAH417      0.2569
     15  O2'       43.5890   50.0310    9.6960 O.3   417  SAH417     -0.2130
     16  C1'       44.1750   49.0340    7.6140 C.3   417  SAH417      0.3185
     17  N9        44.8820   47.8210    8.0420 N.pl3 417  SAH417     -0.1439
     18  C8        46.1780   47.7380    8.4470 C.3   417  SAH417      0.3377
     19  N7        46.4740   46.4620    8.7670 N.2   417  SAH417     -0.2095
     20  C5        45.3670   45.7060    8.5770 C.2   417  SAH417      0.2526
     21  C6        44.9950   44.2720    8.7310 C.2   417  SAH417      0.4393
     22  N6        45.8930   43.3580    9.1770 N.pl3 417  SAH417      0.2180
     23  N1        43.7220   43.9090    8.4150 N.2   417  SAH417      0.0021
     24  C2        42.8150   44.8090    7.9680 C.3   417  SAH417      0.5254
     25  N3        43.0870   46.1190    7.8160 N.2   417  SAH417     -0.0055
     26  C4        44.3170   46.6140    8.0890 C.2   417  SAH417      0.3518
@<TRIPOS>BOND
     1     8     6   ar
     2     7     6   ar
     3     6     2    1
     4     1     2    1
     5     2     3    1
     6     4     3    1
     7     4     5    1
     8     5     9    1
     9     9    10    1
    10    10    11    1
    11    10    12    1
    12    11    16    1
    13    16    17    1
    14    16    14    1
    15    12    13    1
    16    12    14    1
    17    25    24    1
    18    25    26    2
    19    24    23    1
    20    17    26    1
    21    17    18    1
    22    26    20    1
    23    23    21    2
    24    18    19    1
    25    14    15    1
    26    20    21    1
    27    20    19    2
    28    21    22    1
