@<TRIPOS>MOLECULE
3qoz_017_A_1.pdb
 38 41 0 0 0
SMALL
GASTEIGER

@<TRIPOS>ATOM
      1  N1        -8.7330   16.1920   18.4930 N.pl3 201  017201     -0.1281
      2  C2        -8.6570   15.9140   19.8230 C.ar  201  017201      0.0892
      3  C3        -9.8230   15.8320   20.5900 C.ar  201  017201      0.0194
      4  C4        -9.7410   15.5270   21.9500 C.ar  201  017201      0.0213
      5  C5        -8.4980   15.3140   22.5530 C.ar  201  017201      0.1223
      6  C6        -7.3330   15.3770   21.7800 C.ar  201  017201      0.0213
      7  C7        -7.4140   15.6780   20.4150 C.ar  201  017201      0.0194
      8  S8        -8.4140   14.9760   24.1230 S.O2  201  017201      0.0634
      9  O9        -9.5790   14.2360   24.5090 O.2   201  017201     -0.1528
     10  O10       -7.2650   14.1670   24.3760 O.2   201  017201     -0.1528
     11  N11       -8.2940   16.3090   25.0660 N.3   201  017201     -0.1529
     12  C12       -7.1660   17.2020   24.7020 C.3   201  017201      0.0958
     13  C13       -6.5780   17.9220   25.9220 C.3   201  017201      0.0178
     14  C14       -6.2100   16.9650   27.0540 C.3   201  017201      0.0015
     15  C15       -5.3730   18.7850   25.5260 C.3   201  017201      0.0015
     16  C16       -9.5530   17.0780   25.1810 C.3   201  017201      0.1304
     17  C17      -10.0020   17.1060   26.6500 C.3   201  017201      0.1898
     18  O18      -11.0930   18.0270   26.8900 O.3   201  017201     -0.2197
     19  C19      -10.3970   15.7310   27.1650 C.3   201  017201      0.1347
     20  N20      -10.5000   15.9240   28.6050 N.am  201  017201     -0.1675
     21  C21       -9.7170   15.2630   29.4490 C.2   201  017201      0.4211
     22  O22       -8.8460   14.4510   29.1130 O.2   201  017201     -0.2246
     23  O23       -9.9410   15.5760   30.8460 O.3   201  017201     -0.4345
     24  C24       -9.3400   14.7150   31.7900 C.3   201  017201      0.2048
     25  C25       -9.0750   15.6100   32.9840 C.3   201  017201      0.1884
     26  O26      -10.3090   15.6300   33.7050 O.3   201  017201     -0.3265
     27  C27      -11.0960   14.4750   33.3900 C.3   201  017201      0.2388
     28  O28      -12.3540   14.8590   32.8350 O.3   201  017201     -0.3304
     29  C29      -12.7160   13.9880   31.7570 C.3   201  017201      0.1451
     30  C30      -11.4350   13.3300   31.2890 C.3   201  017201      0.0409
     31  C31      -10.3730   13.7320   32.2990 C.3   201  017201      0.1016
     32  C32      -11.7890   15.2890   26.7070 C.3   201  017201      0.0508
     33  C33      -13.2750   13.8690   28.1460 C.ar  201  017201     -0.0042
     34  C34      -13.6400   12.6440   28.7040 C.ar  201  017201     -0.0003
     35  C35      -12.8800   11.5090   28.4200 C.ar  201  017201     -0.0000
     36  C36      -11.7690   11.6010   27.5800 C.ar  201  017201     -0.0003
     37  C37      -11.4000   12.8210   27.0180 C.ar  201  017201     -0.0042
     38  C38      -12.1540   13.9570   27.3080 C.ar  201  017201     -0.0204
@<TRIPOS>BOND
     1     1     2    1
     2     2     7   ar
     3     2     3   ar
     4     7     6   ar
     5     3     4   ar
     6     6     5   ar
     7     4     5   ar
     8     5     8    1
     9     8    10    2
    10     8     9    2
    11     8    11    1
    12    12    11    1
    13    12    13    1
    14    11    16    1
    15    16    17    1
    16    15    13    1
    17    13    14    1
    18    17    18    1
    19    17    19    1
    20    32    19    1
    21    32    38    1
    22    37    38   ar
    23    37    36   ar
    24    19    20    1
    25    38    33   ar
    26    36    35   ar
    27    33    34   ar
    28    35    34   ar
    29    20    21   am
    30    22    21    2
    31    21    23    1
    32    23    24    1
    33    30    29    1
    34    30    31    1
    35    29    28    1
    36    24    31    1
    37    24    25    1
    38    31    27    1
    39    28    27    1
    40    25    26    1
    41    27    26    1
