@<TRIPOS>MOLECULE
3qp0_NI8_B_1.pdb
 29 32 0 0 0
SMALL
GASTEIGER

@<TRIPOS>ATOM
      1  C1       -16.2190   19.8250   -5.7530 C.3   102  NI8102      0.1129
      2  C2       -17.5200   19.4090   -5.1000 C.3   102  NI8102      0.1129
      3  N3       -18.5880   19.6690   -6.0670 N.am  102  NI8102     -0.2668
      4  C5       -19.6340   18.6610   -6.2070 C.3   102  NI8102      0.1206
      5  C6       -19.4930   17.7290   -7.3960 C.ar  102  NI8102     -0.0026
      6  C7       -20.5230   16.8310   -7.6540 C.ar  102  NI8102     -0.0044
      7  C8       -20.4360   15.9530   -8.7230 C.ar  102  NI8102      0.0103
      8  C9       -21.5580   14.9780   -8.9860 C.3   102  NI8102      0.2086
      9  C10      -19.3190   15.9680   -9.5450 C.ar  102  NI8102     -0.0018
     10  C11      -18.2920   16.8650   -9.2960 C.ar  102  NI8102     -0.0005
     11  C12      -18.3770   17.7520   -8.2250 C.ar  102  NI8102     -0.0026
     12  C13      -18.6130   20.8690   -6.6380 C.2   102  NI8102      0.3032
     13  O14      -19.5350   21.2250   -7.3630 O.2   102  NI8102     -0.2649
     14  C15      -17.5060   21.7840   -6.3510 C.2   102  NI8102      0.3032
     15  O16      -17.6700   22.9890   -6.4910 O.2   102  NI8102     -0.2649
     16  N17      -16.3290   21.2620   -5.9970 N.am  102  NI8102     -0.2668
     17  C18      -15.0630   21.9760   -6.0040 C.3   102  NI8102      0.1206
     18  C19      -14.7030   22.7180   -4.7370 C.ar  102  NI8102     -0.0026
     19  C20      -13.4610   23.3310   -4.7320 C.ar  102  NI8102     -0.0044
     20  C21      -13.0210   24.0400   -3.6280 C.ar  102  NI8102      0.0103
     21  C22      -11.6490   24.6710   -3.6820 C.3   102  NI8102      0.2086
     22  C23      -13.8280   24.1340   -2.4970 C.ar  102  NI8102     -0.0018
     23  C24      -15.0860   23.5350   -2.4970 C.ar  102  NI8102     -0.0005
     24  C25      -15.5310   22.8190   -3.6150 C.ar  102  NI8102     -0.0026
     25  C26      -17.2090   17.9610   -4.7360 C.3   102  NI8102      0.1102
     26  N27      -15.7990   18.0830   -4.3350 N.3   102  NI8102     -0.2144
     27  C28      -15.2120   19.3770   -4.6940 C.3   102  NI8102      0.1102
     28  O29      -10.7960   23.9010   -4.5530 O.3   102  NI8102     -0.2152
     29  O30      -21.4530   13.9590   -7.9890 O.3   102  NI8102     -0.2152
@<TRIPOS>BOND
     1     9    10   ar
     2     9     7   ar
     3    10    11   ar
     4     8     7    1
     5     8    29    1
     6     7     6   ar
     7    11     5   ar
     8     6     5   ar
     9     5     4    1
    10    13    12    2
    11    12    14    1
    12    12     3   am
    13    15    14    2
    14    14    16   am
    15     4     3    1
    16     3     2    1
    17    17    16    1
    18    17    18    1
    19    16     1    1
    20     1     2    1
    21     1    27    1
    22     2    25    1
    23    18    19   ar
    24    18    24   ar
    25    25    26    1
    26    19    20   ar
    27    27    26    1
    28    28    21    1
    29    21    20    1
    30    20    22   ar
    31    24    23   ar
    32    22    23   ar
