@<TRIPOS>MOLECULE
3qp1_HL6_A_1.pdb
 14 14 0 0 0
SMALL
GASTEIGER

@<TRIPOS>ATOM
      1  N         21.1230   13.7040   48.2300 N.am    1  HL61       -0.1956
      2  C1        21.5230   11.4040   47.5310 C.2     1  HL61        0.3371
      3  O1        20.7180   10.8180   48.2370 O.2     1  HL61       -0.2482
      4  C2        23.4330   11.6830   46.1920 C.3     1  HL61        0.2109
      5  O2        22.6530   10.7500   46.9550 O.3     1  HL61       -0.4473
      6  C3        22.9460   13.0610   46.6730 C.3     1  HL61        0.0805
      7  O3        19.0330   14.0400   47.4470 O.2     1  HL61       -0.2733
      8  C4        21.5080   12.8440   47.1280 C.3     1  HL61        0.1971
      9  C5        19.8950   14.2260   48.2980 C.2     1  HL61        0.2418
     10  C6        19.6320   15.0740   49.5040 C.3     1  HL61        0.0868
     11  C7        18.4400   14.5590   50.2800 C.3     1  HL61        0.0096
     12  C8        18.7920   13.2900   51.0250 C.3     1  HL61        0.0005
     13  C9        17.9400   13.2200   52.2800 C.3     1  HL61        0.0000
     14  C10       17.6580   11.7820   52.6280 C.3     1  HL61        0.0000
@<TRIPOS>BOND
     1     4     6    1
     2     4     5    1
     3     6     8    1
     4     5     2    1
     5     8     2    1
     6     8     1    1
     7     7     9    2
     8     2     3    2
     9     1     9   am
    10     9    10    1
    11    10    11    1
    12    11    12    1
    13    12    13    1
    14    13    14    1
