@<TRIPOS>MOLECULE
3qp2_HTF_A_1.pdb
 16 16 0 0 0
SMALL
GASTEIGER

@<TRIPOS>ATOM
      1  C8        17.1700   10.6080   -7.8840 C.3     1  HTF1        0.0000
      2  C7        17.2150   11.9610   -8.5580 C.3     1  HTF1        0.0000
      3  C6        18.0830   11.9280   -9.8120 C.3     1  HTF1        0.0000
      4  C5        18.0080   13.2870  -10.4810 C.3     1  HTF1        0.0000
      5  C4        18.9490   13.4300  -11.6610 C.3     1  HTF1        0.0005
      6  C3        18.6470   14.7890  -12.2610 C.3     1  HTF1        0.0096
      7  C2        19.7550   15.2620  -13.1850 C.3     1  HTF1        0.0868
      8  C1        19.9730   14.2890  -14.3080 C.2     1  HTF1        0.2418
      9  O1        19.0980   14.0700  -15.1370 O.2     1  HTF1       -0.2733
     10  N         21.1800   13.7280  -14.3330 N.am    1  HTF1       -0.1956
     11  CA        21.5520   12.8350  -15.4060 C.3     1  HTF1        0.1971
     12  C         21.6140   11.4060  -14.9770 C.2     1  HTF1        0.3371
     13  O         20.8320   10.8480  -14.2280 O.2     1  HTF1       -0.2482
     14  OD        22.7670   10.7760  -15.5500 O.3     1  HTF1       -0.4473
     15  CG        23.4860   11.7040  -16.3710 C.3     1  HTF1        0.2109
     16  CB        22.9810   13.0740  -15.8950 C.3     1  HTF1        0.0805
@<TRIPOS>BOND
     1    15    16    1
     2    15    14    1
     3    16    11    1
     4    14    12    1
     5    11    12    1
     6    11    10    1
     7     9     8    2
     8    12    13    2
     9    10     8   am
    10     8     7    1
    11     7     6    1
    12     6     5    1
    13     5     4    1
    14     4     3    1
    15     3     2    1
    16     2     1    1
