@<TRIPOS>MOLECULE
3qp4_HL0_A_1.pdb
 18 18 0 0 0
SMALL
GASTEIGER

@<TRIPOS>ATOM
      1  N         21.0950   13.7740   48.1690 N.am    1  HL01       -0.1956
      2  C1        17.1190   11.5370   57.2370 C.3     1  HL01        0.0000
      3  O1        19.0440   14.1290   47.3230 O.2     1  HL01       -0.2733
      4  C2        17.8520   10.8730   56.0890 C.3     1  HL01        0.0000
      5  O2        22.6020   10.7890   46.9970 O.3     1  HL01       -0.4473
      6  C3        17.0340   10.8760   54.8030 C.3     1  HL01        0.0000
      7  O3        20.6360   10.8940   48.2370 O.2     1  HL01       -0.2482
      8  C4        17.1820   12.2060   54.0780 C.3     1  HL01        0.0000
      9  C5        17.9290   12.0600   52.7620 C.3     1  HL01        0.0000
     10  C6        17.8210   13.3720   52.0130 C.3     1  HL01        0.0000
     11  C7        18.7750   13.4570   50.8310 C.3     1  HL01        0.0005
     12  C8        18.5120   14.8010   50.1760 C.3     1  HL01        0.0096
     13  C9        19.6640   15.2850   49.3240 C.3     1  HL01        0.0868
     14  C10       19.8950   14.3470   48.1740 C.2     1  HL01        0.2418
     15  C11       21.4680   12.8770   47.1070 C.3     1  HL01        0.1971
     16  C12       22.8960   13.1050   46.6380 C.3     1  HL01        0.0805
     17  C13       23.4140   11.7080   46.2470 C.3     1  HL01        0.2109
     18  C14       21.4660   11.4510   47.5450 C.2     1  HL01        0.3371
@<TRIPOS>BOND
     1    17    16    1
     2    17     5    1
     3    16    15    1
     4     5    18    1
     5    15    18    1
     6    15     1    1
     7     3    14    2
     8    18     7    2
     9     1    14   am
    10    14    13    1
    11    13    12    1
    12    12    11    1
    13    11    10    1
    14    10     9    1
    15     9     8    1
    16     8     6    1
    17     6     4    1
    18     4     2    1
