@<TRIPOS>MOLECULE
3qp5_HLC_A_1.pdb
 20 21 0 0 0
SMALL
GASTEIGER

@<TRIPOS>ATOM
      1  N1        29.2890    9.5570   -6.2160 N.am  266  HLC266     -0.1956
      2  C1        29.9920   10.6020   -8.1700 C.2   266  HLC266      0.3371
      3  O1        30.5870   11.5810   -7.7450 O.2   266  HLC266     -0.2482
      4  C2        28.5760    9.8120   -9.7720 C.3   266  HLC266      0.2109
      5  O2        29.4700   10.8450   -9.4830 O.3   266  HLC266     -0.4473
      6  C3        28.4930    8.9340   -8.5090 C.3   266  HLC266      0.0805
      7  O3        30.6270   12.6310   -2.4740 O.3   266  HLC266     -0.4754
      8  C4        29.6640    9.1960   -7.5430 C.3   266  HLC266      0.1971
      9  O4        31.2130    8.8440   -5.4850 O.2   266  HLC266     -0.2733
     10  C5        30.1260    9.2820   -5.2550 C.2   266  HLC266      0.2419
     11  C6        29.6310    9.4720   -3.8520 C.3   266  HLC266      0.0907
     12  C7        30.4890   10.4230   -3.0840 C.3   266  HLC266      0.0569
     13  C8        30.4970   11.8230   -3.6270 C.3   266  HLC266      0.2059
     14  C9        31.2250   13.8330   -2.3480 C.ar  266  HLC266      0.1386
     15  C10       32.4850   14.0520   -2.8560 C.ar  266  HLC266      0.0378
     16  C11       33.0960   15.2800   -2.6670 C.ar  266  HLC266      0.0145
     17  C12       32.4570   16.2850   -1.9780 C.ar  266  HLC266      0.0579
     18  C13       31.2000   16.0680   -1.4620 C.ar  266  HLC266      0.0145
     19  C14       30.6080   14.8340   -1.6290 C.ar  266  HLC266      0.0378
     20 CL1        33.3170   17.8450   -1.7890 Cl    266  HLC266     -0.0822
@<TRIPOS>BOND
     1     4     5    1
     2     4     6    1
     3     5     2    1
     4     6     8    1
     5     2     3    2
     6     2     8    1
     7     8     1    1
     8     1    10   am
     9     9    10    2
    10    10    11    1
    11    11    12    1
    12    13    12    1
    13    13     7    1
    14    15    16   ar
    15    15    14   ar
    16    16    17   ar
    17     7    14    1
    18    14    19   ar
    19    17    20    1
    20    17    18   ar
    21    19    18   ar
