@<TRIPOS>MOLECULE
3qp6_HL6_A_1.pdb
 14 14 0 0 0
SMALL
GASTEIGER

@<TRIPOS>ATOM
      1  N         16.0320    4.4270   52.4210 N.am  266  HL6266     -0.1956
      2  C1        15.6490    4.1500   54.8350 C.2   266  HL6266      0.3371
      3  O1        14.7370    4.9600   54.9640 O.2   266  HL6266     -0.2482
      4  C2        17.5000    2.8200   55.4330 C.3   266  HL6266      0.2109
      5  O2        16.4940    3.7150   55.9270 O.3   266  HL6266     -0.4473
      6  C3        17.4870    3.0170   53.8980 C.3   266  HL6266      0.0805
      7  O3        14.1290    3.4930   51.6140 O.2   266  HL6266     -0.2733
      8  C4        16.0780    3.5160   53.5470 C.3   266  HL6266      0.1971
      9  C5        15.0130    4.3520   51.5560 C.2   266  HL6266      0.2418
     10  C6        15.0030    5.3810   50.4520 C.3   266  HL6266      0.0868
     11  C7        13.7130    6.2100   50.5400 C.3   266  HL6266      0.0096
     12  C8        13.4570    6.7390   51.9560 C.3   266  HL6266      0.0005
     13  C9        12.4370    7.8810   51.9690 C.3   266  HL6266      0.0000
     14  C10       12.1550    8.3660   53.3800 C.3   266  HL6266      0.0000
@<TRIPOS>BOND
     1    10    11    1
     2    10     9    1
     3    11    12    1
     4     9     7    2
     5     9     1   am
     6    12    13    1
     7    13    14    1
     8     1     8    1
     9     8     6    1
    10     8     2    1
    11     6     4    1
    12     2     3    2
    13     2     5    1
    14     4     5    1
