@<TRIPOS>MOLECULE
3qp8_HL0_A_1.pdb
 18 18 0 0 0
SMALL
GASTEIGER

@<TRIPOS>ATOM
      1  N         17.7150   23.2010   42.7800 N.am    1  HL01       -0.1956
      2  C1        20.3950   24.7970   33.1000 C.3     1  HL01        0.0000
      3  O1        15.5140   23.1200   42.3270 O.2     1  HL01       -0.2733
      4  C2        19.9570   25.4440   34.3930 C.3     1  HL01        0.0000
      5  O2        18.8040   26.2970   44.2670 O.3     1  HL01       -0.4473
      6  C3        18.4590   25.3320   34.6520 C.3     1  HL01        0.0000
      7  O3        18.1200   25.9370   42.0640 O.2     1  HL01       -0.2482
      8  C4        18.1190   24.2070   35.6320 C.3     1  HL01        0.0000
      9  C5        17.8900   24.6960   37.0600 C.3     1  HL01        0.0000
     10  C6        16.9450   23.7410   37.7660 C.3     1  HL01        0.0000
     11  C7        17.4390   23.3160   39.1450 C.3     1  HL01        0.0005
     12  C8        16.5160   22.2350   39.6990 C.3     1  HL01        0.0096
     13  C9        16.9610   21.7160   41.0650 C.3     1  HL01        0.0868
     14  C10       16.6600   22.7470   42.1140 C.2     1  HL01        0.2418
     15  C11       17.5860   24.2750   43.7400 C.3     1  HL01        0.1971
     16  C12       18.4470   24.0660   44.9750 C.3     1  HL01        0.0805
     17  C13       18.9250   25.4600   45.4200 C.3     1  HL01        0.2109
     18  C14       18.1580   25.5570   43.2190 C.2     1  HL01        0.3371
@<TRIPOS>BOND
     1     2     4    1
     2     4     6    1
     3     6     8    1
     4     8     9    1
     5     9    10    1
     6    10    11    1
     7    11    12    1
     8    12    13    1
     9    13    14    1
    10     7    18    2
    11    14     3    2
    12    14     1   am
    13     1    15    1
    14    18    15    1
    15    18     5    1
    16    15    16    1
    17     5    17    1
    18    16    17    1
