@<TRIPOS>MOLECULE
3qpb_R1P_A_1.pdb
 14 14 0 0 0
SMALL
GASTEIGER

@<TRIPOS>ATOM
      1  C5'       14.3760  -22.2890   -7.9340 C.3   1254  R1P1254     0.2142
      2  O5'       14.4920  -23.3670   -8.8670 O.3   1254  R1P1254    -0.2176
      3  C4'       15.1410  -22.6420   -6.6570 C.3   1254  R1P1254     0.1836
      4  O4'       16.5440  -22.8140   -6.9260 O.3   1254  R1P1254    -0.3253
      5  C1'       17.2250  -21.5880   -6.5990 C.3   1254  R1P1254     0.2781
      6  C2'       16.1170  -20.6000   -6.2250 C.3   1254  R1P1254     0.2409
      7  O2'       16.5700  -19.5950   -5.3140 O.3   1254  R1P1254    -0.2149
      8  C3'       15.0670  -21.5250   -5.6150 C.3   1254  R1P1254     0.2168
      9  O3'       15.5140  -22.0180   -4.3490 O.3   1254  R1P1254    -0.2175
     10  O1'       18.0610  -21.8090   -5.4530 O.3   1254  R1P1254    -0.2416
     11  P         18.4660  -23.2990   -4.9930 P.3   1254  R1P1254     0.5346
     12  O1P       19.5750  -23.3300   -4.0140 O.3   1254  R1P1254    -0.1145
     13  O2P       17.1190  -23.9420   -4.3880 O.3   1254  R1P1254    -0.1145
     14  O3P       18.8030  -24.1410   -6.3230 O.2   1254  R1P1254    -0.2223
@<TRIPOS>BOND
     1     2     1    1
     2     1     3    1
     3     4     3    1
     4     4     5    1
     5     3     8    1
     6     5     6    1
     7     5    10    1
     8    14    11    2
     9     6     8    1
    10     6     7    1
    11     8     9    1
    12    10    11    1
    13    11    13    1
    14    11    12    1
