@<TRIPOS>MOLECULE
3qpe_D54_B_1.pdb
 12 11 0 0 0
SMALL
GASTEIGER

@<TRIPOS>ATOM
      1  OAA       57.5160  -27.6160  -11.9650 O.2   401  D54401     -0.2854
      2  OAB       56.3110  -24.9640  -11.1660 O.3   401  D54401     -0.2119
      3  OAC       56.2520  -23.7150  -16.2380 O.2   401  D54401     -0.2842
      4  OAD       59.6260  -24.6060  -16.7600 O.co2 401  D54401     -0.2373
      5  CAE       57.1440  -26.6830  -12.6840 C.2   401  D54401      0.2427
      6  CAF       57.2590  -25.2240  -12.2130 C.3   401  D54401      0.2464
      7  CAG       57.0340  -24.3140  -13.4360 C.3   401  D54401      0.1977
      8  CAH       57.6380  -24.9490  -14.6990 C.3   401  D54401      0.1122
      9  CAI       57.3630  -24.2150  -16.0220 C.2   401  D54401      0.2547
     10  CAJ       58.4960  -24.1500  -17.0790 C.2   401  D54401      0.4219
     11  OAK       57.6150  -23.0220  -13.2030 O.3   401  D54401     -0.2194
     12  OAL       58.2400  -23.6690  -18.2030 O.co2 401  D54401     -0.2373
@<TRIPOS>BOND
     1    12    10   ar
     2    10     4   ar
     3    10     9    1
     4     3     9    2
     5     9     8    1
     6     8     7    1
     7     7    11    1
     8     7     6    1
     9     5     6    1
    10     5     1    2
    11     6     2    1
