@<TRIPOS>MOLECULE
3qpe_DGU_A_1.pdb
 13 12 0 0 0
SMALL
GASTEIGER

@<TRIPOS>ATOM
      1  OAA       27.9260  -25.8120  -23.6400 O.2   401  DGU401     -0.2854
      2  OAB       28.7990  -23.1630  -23.2170 O.3   401  DGU401     -0.2118
      3  OAC       29.0140  -23.8230  -18.1780 O.3   401  DGU401     -0.2080
      4  OAD       27.2170  -24.6350  -16.2030 O.co2 401  DGU401     -0.2427
      5  CAE       27.8380  -25.2710  -22.5310 C.2   401  DGU401      0.2427
      6  CAF       27.8030  -23.7360  -22.3560 C.3   401  DGU401      0.2486
      7  CAG       28.0590  -23.2880  -20.9020 C.3   401  DGU401      0.2230
      8  CAH       27.2330  -24.0600  -19.8440 C.3   401  DGU401      0.2264
      9  CAI       27.5970  -23.7190  -18.3900 C.3   401  DGU401      0.2865
     10  CAJ       26.7720  -24.5370  -17.3710 C.2   401  DGU401      0.3973
     11  OAK       27.7660  -21.8900  -20.7770 O.3   401  DGU401     -0.2171
     12  OAL       27.4490  -25.4610  -20.0100 O.3   401  DGU401     -0.2169
     13  OAM       25.7070  -25.0350  -17.7970 O.co2 401  DGU401     -0.2427
@<TRIPOS>BOND
     1     1     5    2
     2     2     6    1
     3     5     6    1
     4     6     7    1
     5     7    11    1
     6     7     8    1
     7    12     8    1
     8     8     9    1
     9     9     3    1
    10     9    10    1
    11    13    10   ar
    12    10     4   ar
