@<TRIPOS>MOLECULE
3qpg_3QP_A_1.pdb
 24 24 0 0 0
SMALL
GASTEIGER

@<TRIPOS>ATOM
      1  C01      -37.0890   26.8840   -2.5750 C.3   422  3QP422      0.0344
      2  C02      -37.0650   26.1840   -3.9310 C.ar  422  3QP422      0.0171
      3  C03      -36.1010   25.2120   -4.2150 C.ar  422  3QP422      0.1929
      4  O04      -35.1540   24.8050   -3.3220 O.3   422  3QP422     -0.2869
      5  C05      -36.0910   24.5880   -5.4780 C.ar  422  3QP422      0.0557
      6  C06      -37.0120   24.9680   -6.4570 C.ar  422  3QP422      0.0124
      7  C07      -36.9920   24.2380   -7.8330 C.3   422  3QP422      0.1803
      8  O08      -37.7820   23.0750   -7.8970 O.3   422  3QP422     -0.2653
      9  P09      -38.0810   22.3750   -9.2760 P.3   422  3QP422      0.5329
     10  O10      -36.9000   21.5700   -9.6870 O.3   422  3QP422     -0.1145
     11  O11      -38.2440   23.4330  -10.3680 O.2   422  3QP422     -0.2224
     12  O12      -39.3370   21.6280   -9.1400 O.3   422  3QP422     -0.1145
     13  C13      -37.9990   25.9280   -6.1800 C.ar  422  3QP422     -0.0019
     14  C14      -38.0240   26.5310   -4.9080 C.ar  422  3QP422     -0.0013
     15  C15      -35.0400   23.5630   -5.7240 C.2   422  3QP422      0.0966
     16  N16      -33.7580   23.9560   -5.4720 N.2   422  3QP422     -0.2587
     17  C17      -32.5970   23.1050   -5.7340 C.3   422  3QP422      0.2169
     18  C18      -32.3580   22.7610   -7.2000 C.3   422  3QP422      0.1499
     19  C19      -32.2000   24.0140   -8.0640 C.2   422  3QP422      0.3674
     20  O20      -32.6690   24.0330   -9.2220 O.co2 422  3QP422     -0.2456
     21  O21      -31.6450   25.0610   -7.6220 O.co2 422  3QP422     -0.2456
     22  C22      -31.4340   23.6810   -5.0560 C.2   422  3QP422      0.3872
     23  O23      -30.3100   23.1350   -5.1500 O.co2 422  3QP422     -0.2435
     24  O24      -31.5690   24.7710   -4.3750 O.co2 422  3QP422     -0.2435
@<TRIPOS>BOND
     1    11     9    2
     2    10     9    1
     3     9    12    1
     4     9     8    1
     5    20    19   ar
     6    19    21   ar
     7    19    18    1
     8     8     7    1
     9     7     6    1
    10    18    17    1
    11     6    13   ar
    12     6     5   ar
    13    13    14   ar
    14    17    16    1
    15    17    22    1
    16    15     5    1
    17    15    16    2
    18     5     3   ar
    19    23    22   ar
    20    22    24   ar
    21    14     2   ar
    22     3     2   ar
    23     3     4    1
    24     2     1    1
