@<TRIPOS>MOLECULE
3qph_SUC_A_1.pdb
 45 46 0 0 0
SMALL
GASTEIGER

@<TRIPOS>ATOM
      1  C1        75.2050  -55.3000    6.0230 C.3   412  SUC412      0.1912
      2  C2        76.4840  -54.4800    6.2200 C.3   412  SUC412      0.1342
      3  C3        76.3540  -53.2600    7.0830 C.3   412  SUC412      0.1141
      4  C4        74.9190  -53.1550    7.5040 C.3   412  SUC412      0.1119
      5  C5        74.6880  -54.4830    8.1930 C.3   412  SUC412      0.1130
      6  C6        73.5120  -54.4820    9.1510 C.3   412  SUC412      0.0730
      7  O1        75.6640  -56.5990    5.6630 O.3   412  SUC412     -0.3125
      8  O2        77.4190  -55.2800    6.8800 O.3   412  SUC412     -0.3841
      9  O3        76.8010  -52.1430    6.3760 O.3   412  SUC412     -0.3864
     10  O4        74.7470  -52.0400    8.3380 O.3   412  SUC412     -0.3865
     11  O5        74.4300  -55.4290    7.1930 O.3   412  SUC412     -0.3404
     12  O6        73.1260  -55.8200    9.3630 O.3   412  SUC412     -0.3924
     13  C1'       75.9020  -58.6540    4.4860 C.3   412  SUC412      0.1009
     14  C2'       74.9500  -57.5010    4.8290 C.3   412  SUC412      0.2252
     15  C3'       73.7520  -57.9340    5.6330 C.3   412  SUC412      0.1395
     16  C4'       72.5810  -57.2170    5.0620 C.3   412  SUC412      0.1145
     17  C5'       73.0740  -56.6860    3.7190 C.3   412  SUC412      0.1134
     18  C6'       72.8520  -55.1990    3.4130 C.3   412  SUC412      0.0730
     19  O1'       77.2300  -58.2050    4.2400 O.3   412  SUC412     -0.3896
     20  O2'       74.4660  -56.9210    3.6360 O.3   412  SUC412     -0.3362
     21  O3'       73.8560  -57.4990    6.9700 O.3   412  SUC412     -0.3837
     22  O4'       71.5190  -58.1380    4.9270 O.3   412  SUC412     -0.3864
     23  O6'       72.1160  -54.4420    4.3600 O.3   412  SUC412     -0.3924
     24  H1        74.6150  -54.8660    5.2160 H     412  SUC412      0.0939
     25  H2        76.8680  -54.1840    5.2440 H     412  SUC412      0.0671
     26  H3        76.9670  -53.3990    7.9730 H     412  SUC412      0.0648
     27  H4        74.2830  -53.0830    6.6210 H     412  SUC412      0.0647
     28  H5        75.5890  -54.7570    8.7410 H     412  SUC412      0.0647
     29  H61       72.6820  -53.9170    8.7250 H     412  SUC412      0.0584
     30  H62       73.7980  -54.0200   10.0950 H     412  SUC412      0.0584
     31  HO2       77.0300  -56.1630    7.0530 H     412  SUC412      0.2101
     32  HO3       77.0950  -52.4180    5.4820 H     412  SUC412      0.2100
     33  HO4       75.6060  -51.5840    8.4540 H     412  SUC412      0.2100
     34  HO6       73.7090  -56.4140    8.8440 H     412  SUC412      0.2095
     35 H1'1       75.5310  -59.1750    3.6040 H     412  SUC412      0.0612
     36 H1'2       75.9120  -59.3670    5.3110 H     412  SUC412      0.0612
     37  H3'       73.6110  -59.0130    5.5660 H     412  SUC412      0.0675
     38  H4'       72.3020  -56.3860    5.7110 H     412  SUC412      0.0648
     39  H5'       72.5760  -57.2600    2.9380 H     412  SUC412      0.0647
     40 H6'1       72.3440  -55.1240    2.4510 H     412  SUC412      0.0584
     41 H6'2       73.8280  -54.7300    3.2890 H     412  SUC412      0.0584
     42 HO1'       77.2510  -57.2250    4.2520 H     412  SUC412      0.2096
     43 HO3'       74.6940  -57.0040    7.0880 H     412  SUC412      0.2101
     44 HO4'       71.8100  -59.0200    5.2400 H     412  SUC412      0.2100
     45 HO6'       71.8490  -55.0200    5.1040 H     412  SUC412      0.2095
@<TRIPOS>BOND
     1    40    18    1
     2    39    17    1
     3    41    18    1
     4    18    17    1
     5    18    23    1
     6    35    13    1
     7    20    17    1
     8    20    14    1
     9    17    16    1
    10    19    42    1
    11    19    13    1
    12    23    45    1
    13    13    14    1
    14    13    36    1
    15    14    15    1
    16    14     7    1
    17    22    16    1
    18    22    44    1
    19    16    15    1
    20    16    38    1
    21    24     1    1
    22    25     2    1
    23    32     9    1
    24    37    15    1
    25    15    21    1
    26     7     1    1
    27     1     2    1
    28     1    11    1
    29     2     8    1
    30     2     3    1
    31     9     3    1
    32    27     4    1
    33     8    31    1
    34    21    43    1
    35     3     4    1
    36     3    26    1
    37    11     5    1
    38     4     5    1
    39     4    10    1
    40     5    28    1
    41     5     6    1
    42    10    33    1
    43    29     6    1
    44    34    12    1
    45     6    12    1
    46     6    30    1
