@<TRIPOS>MOLECULE
3qpi_HEM_A_1.pdb
 43 50 0 0 0
SMALL
GASTEIGER

@<TRIPOS>ATOM
      1  CHA       21.7550   52.7200   26.6420 C.2   1001  HEM1001     0.0000
      2  CHB       22.1700   56.3280   29.7590 C.2   1001  HEM1001     0.0000
      3  CHC       23.1020   59.3870   26.0950 C.2   1001  HEM1001     0.0000
      4  CHD       22.9690   55.7350   23.0950 C.2   1001  HEM1001     0.0000
      5  C1A       21.7850   53.4850   27.7580 C.2   1001  HEM1001     0.0000
      6  C2A       21.5040   52.9280   29.0720 C.2   1001  HEM1001     0.0000
      7  C3A       21.5960   53.9170   29.9830 C.2   1001  HEM1001     0.0000
      8  C4A       21.9550   55.1180   29.2320 C.2   1001  HEM1001     0.0000
      9  CMA       21.3950   53.7710   31.5360 C.3   1001  HEM1001     0.0000
     10  CAA       21.2090   51.4320   29.2640 C.3   1001  HEM1001     0.0000
     11  CBA       19.7280   51.0880   29.3360 C.3   1001  HEM1001     0.0000
     12  CGA       19.6610   49.6240   29.7210 C.2   1001  HEM1001     0.0000
     13  O1A       19.2580   48.8470   28.8350 O.co2 1001  HEM1001     0.0000
     14  O2A       20.0270   49.2270   30.8730 O.co2 1001  HEM1001     0.0000
     15  C1B       22.4330   57.4080   28.9880 C.ar  1001  HEM1001     0.0000
     16  C2B       22.4530   58.7400   29.5400 C.ar  1001  HEM1001     0.0000
     17  C3B       22.6640   59.5740   28.5320 C.ar  1001  HEM1001     0.0000
     18  C4B       22.8210   58.8060   27.3120 C.ar  1001  HEM1001     0.0000
     19  CMB       22.2160   59.1700   31.0100 C.3   1001  HEM1001     0.0000
     20  CAB       22.7630   61.1060   28.7100 C.2   1001  HEM1001     0.0000
     21  CBB       22.0250   61.9040   27.9350 C.2   1001  HEM1001     0.0000
     22  C1C       23.1820   58.6900   24.9520 C.2   1001  HEM1001     0.0000
     23  C2C       23.4410   59.1920   23.6020 C.2   1001  HEM1001     0.0000
     24  C3C       23.3590   58.1450   22.7830 C.2   1001  HEM1001     0.0000
     25  C4C       23.0940   56.9770   23.6030 C.2   1001  HEM1001     0.0000
     26  CMC       23.6670   60.6790   23.2390 C.3   1001  HEM1001     0.0000
     27  CAC       23.5600   58.0480   21.2610 C.2   1001  HEM1001     0.0000
     28  CBC       24.3470   58.9390   20.6420 C.2   1001  HEM1001     0.0000
     29  C1D       22.5960   54.6150   23.7240 C.ar  1001  HEM1001     0.0000
     30  C2D       22.4410   53.3450   23.0570 C.ar  1001  HEM1001     0.0000
     31  C3D       22.0500   52.4140   24.1960 C.ar  1001  HEM1001     0.0000
     32  C4D       22.0460   53.2180   25.3950 C.ar  1001  HEM1001     0.0000
     33  CMD       22.6000   52.9540   21.5510 C.3   1001  HEM1001     0.0000
     34  CAD       21.7540   50.9110   24.1100 C.3   1001  HEM1001     0.0000
     35  CBD       23.0770   50.2000   24.4350 C.3   1001  HEM1001     0.0000
     36  CGD       22.9140   48.7150   24.1980 C.2   1001  HEM1001     0.0000
     37  O1D       21.9650   48.1310   24.7690 O.co2 1001  HEM1001     0.0000
     38  O2D       23.7290   48.1160   23.4420 O.co2 1001  HEM1001     0.0000
     39  NA        22.0490   54.8630   27.8560 N.2   1001  HEM1001     0.0000
     40  NB        22.6610   57.4550   27.6130 N.ar  1001  HEM1001     0.0000
     41  NC        22.9850   57.3380   24.9180 N.2   1001  HEM1001     0.0000
     42  ND        22.3720   54.5100   25.1080 N.ar  1001  HEM1001     0.0000
     43 FE         22.6980   55.9950   26.2550 Fe    1001  HEM1001     0.0000
@<TRIPOS>BOND
     1    28    27    2
     2    27    24    1
     3    33    30    1
     4    24    23    2
     5    24    25    1
     6    30    29   ar
     7    30    31   ar
     8     4    25    1
     9     4    29    2
    10    26    23    1
    11    38    36   ar
    12    23    22    1
    13    25    41    2
    14    29    42   ar
    15    34    31    1
    16    34    35    1
    17    31    32   ar
    18    36    35    1
    19    36    37   ar
    20    41    22    1
    21    41    43    1
    22    22     3    2
    23    42    32   ar
    24    42    43    1
    25    32     1    2
    26     3    18    1
    27    43    40    1
    28    43    39    1
    29     1     5    1
    30    18    40   ar
    31    18    17   ar
    32    40    15   ar
    33     5    39    2
    34     5     6    1
    35    39     8    1
    36    21    20    2
    37    17    20    1
    38    17    16   ar
    39    13    12   ar
    40    15    16   ar
    41    15     2    1
    42     6    10    1
    43     6     7    2
    44     8     2    2
    45     8     7    1
    46    10    11    1
    47    11    12    1
    48    16    19    1
    49    12    14   ar
    50     7     9    1
