@<TRIPOS>MOLECULE
3qpj_N4I_B_1.pdb
 38 41 0 0 0
SMALL
GASTEIGER

@<TRIPOS>ATOM
      1  C1        16.9520  -18.4760   -5.6110 C.3   100  N4I100      0.1082
      2  C2        16.4620  -19.9150   -5.4580 C.3   100  N4I100      0.1146
      3  C3        15.1040  -19.7990   -4.7460 C.3   100  N4I100      0.1079
      4  C4        13.7580  -24.1820   -3.3400 C.ar  100  N4I100      0.0567
      5  N4        14.8490  -18.3600   -4.6380 N.3   100  N4I100     -0.2150
      6  C5        16.0940  -17.6090   -4.6980 C.3   100  N4I100      0.1075
      7  C6        19.0430  -16.5730   -8.2310 C.ar  100  N4I100      0.0392
      8  N6        16.7240  -18.0520   -6.9840 N.3   100  N4I100     -0.2118
      9  C7        17.5790  -18.5750   -8.0430 C.3   100  N4I100      0.1151
     10  C8        18.9310  -17.9170   -7.9240 C.ar  100  N4I100     -0.0016
     11  C9        20.2760  -15.9470   -8.1390 C.ar  100  N4I100      0.1955
     12  O10       20.3780  -14.6280   -8.4440 O.3   100  N4I100     -0.2866
     13  C11       21.3970  -16.6510   -7.7280 C.ar  100  N4I100      0.0420
     14  C12       21.2820  -18.0060   -7.4200 C.ar  100  N4I100      0.0030
     15  C13       20.0470  -18.6400   -7.5170 C.ar  100  N4I100     -0.0027
     16  C14       20.0820  -19.7070   -3.9630 C.ar  100  N4I100     -0.0029
     17  C15       21.2960  -19.0590   -3.7460 C.ar  100  N4I100      0.0036
     18  C16       21.4230  -18.1390   -2.7040 C.ar  100  N4I100      0.0714
     19  C17       22.7370  -17.4440   -2.4640 C.3   100  N4I100      0.4186
     20  F18       23.6980  -18.3410   -2.3820 F     100  N4I100     -0.1659
     21  F19       22.6750  -16.7710   -1.3360 F     100  N4I100     -0.1659
     22  F20       23.0300  -16.6310   -3.4530 F     100  N4I100     -0.1659
     23  N21       17.2800  -20.7490   -4.5730 N.3   100  N4I100     -0.1496
     24  C22       17.6500  -20.1430   -3.2860 C.3   100  N4I100      0.1221
     25  C23       18.9950  -19.4420   -3.1290 C.ar  100  N4I100     -0.0045
     26  C24       20.3480  -17.8740   -1.8700 C.ar  100  N4I100      0.0036
     27  C25       19.1380  -18.5260   -2.0910 C.ar  100  N4I100     -0.0029
     28  C26       12.5200  -24.8340   -2.7610 C.2   100  N4I100      0.2842
     29  S27       17.4760  -22.2630   -4.8800 S.O2  100  N4I100      0.0636
     30  N28       11.8230  -25.6960   -3.4960 N.am  100  N4I100     -0.0837
     31  O28       18.5960  -22.7400   -4.1310 O.2   100  N4I100     -0.1528
     32  O29       17.5860  -22.4400   -6.2780 O.2   100  N4I100     -0.1528
     33  C30       16.1210  -22.9820   -4.3380 C.ar  100  N4I100      0.1222
     34  C31       15.9650  -23.2630   -2.9870 C.ar  100  N4I100      0.0201
     35  C32       14.8010  -23.8490   -2.4820 C.ar  100  N4I100      0.0060
     36  O33       12.1920  -24.5710   -1.6100 O.2   100  N4I100     -0.2667
     37  C34       13.8940  -23.9160   -4.7020 C.ar  100  N4I100      0.0060
     38  C35       15.0670  -23.3120   -5.2000 C.ar  100  N4I100      0.0201
@<TRIPOS>BOND
     1    12    11    1
     2     7    11   ar
     3     7    10   ar
     4    11    13   ar
     5     9    10    1
     6     9     8    1
     7    10    15   ar
     8    13    14   ar
     9    15    14   ar
    10     8     1    1
    11    32    29    2
    12     1     2    1
    13     1     6    1
    14     2     3    1
    15     2    23    1
    16    38    37   ar
    17    38    33   ar
    18    29    23    1
    19    29    33    1
    20    29    31    2
    21     3     5    1
    22    37     4   ar
    23     6     5    1
    24    23    24    1
    25    33    34   ar
    26    16    17   ar
    27    16    25   ar
    28    17    18   ar
    29    30    28   am
    30    22    19    1
    31     4    28    1
    32     4    35   ar
    33    24    25    1
    34    25    27   ar
    35    34    35   ar
    36    28    36    2
    37    18    19    1
    38    18    26   ar
    39    19    20    1
    40    19    21    1
    41    27    26   ar
