@<TRIPOS>MOLECULE
3qpn_PFK_A_1.pdb
 25 28 0 0 0
SMALL
GASTEIGER

@<TRIPOS>ATOM
      1  C1         6.1630   17.5600   34.7520 C.ar  999  PFK999      0.0002
      2  C2         6.5490   16.2680   35.1110 C.ar  999  PFK999      0.0026
      3  C3         7.6360   16.0680   35.9580 C.ar  999  PFK999      0.0320
      4  C4         8.3600   17.1770   36.4390 C.ar  999  PFK999      0.1303
      5  C5         7.9740   18.4880   36.0850 C.ar  999  PFK999      0.0257
      6  C6         6.8890   18.6620   35.2180 C.ar  999  PFK999      0.0022
      7  N7         9.4300   16.9840   37.2490 N.2   999  PFK999     -0.4101
      8  C8        10.1440   18.0390   37.7550 C.2   999  PFK999      0.0948
      9  C9         9.8010   19.3590   37.4030 C.3   999  PFK999      0.0805
     10  C10        8.6990   19.6020   36.5680 C.2   999  PFK999     -0.0165
     11  C11       11.3520   17.7640   38.6480 C.3   999  PFK999      0.1020
     12  C12       11.0230   17.3420   40.0780 C.3   999  PFK999      0.2126
     13  O13       12.2450   16.8800   40.6300 O.3   999  PFK999     -0.4719
     14  C14       12.5970   17.0390   41.9480 C.ar  999  PFK999      0.1737
     15  C15       12.0420   18.0590   42.6950 C.ar  999  PFK999      0.0592
     16  C16       12.4070   18.2410   44.0260 C.ar  999  PFK999      0.0878
     17  C17       13.3370   17.3980   44.5990 C.ar  999  PFK999      0.0401
     18  C18       13.9290   16.3740   43.8550 C.ar  999  PFK999      0.0431
     19  C19       13.5540   16.2010   42.5190 C.ar  999  PFK999      0.1725
     20  O20       14.0990   15.1920   41.7610 O.3   999  PFK999     -0.4684
     21  C21       15.2440   14.4530   42.1920 C.3   999  PFK999      0.2526
     22  N22       11.8390   19.2490   44.7480 N.ar  999  PFK999     -0.2238
     23  C23       12.1960   19.4480   46.0230 C.ar  999  PFK999      0.1989
     24  N24       13.1030   18.6350   46.5990 N.ar  999  PFK999     -0.2224
     25  C25       13.6930   17.6240   45.9360 C.ar  999  PFK999      0.1022
@<TRIPOS>BOND
     1     1     2   ar
     2     1     6   ar
     3     2     3   ar
     4     6     5   ar
     5     3     4   ar
     6     5     4   ar
     7     5    10    2
     8     4     7    2
     9    10     9    1
    10     7     8    2
    11     9     8    1
    12     8    11    1
    13    11    12    1
    14    12    13    1
    15    13    14    1
    16    20    21    1
    17    20    19    1
    18    14    19   ar
    19    14    15   ar
    20    19    18   ar
    21    15    16   ar
    22    18    17   ar
    23    16    17   ar
    24    16    22   ar
    25    17    25   ar
    26    22    23   ar
    27    25    24   ar
    28    23    24   ar
