@<TRIPOS>MOLECULE
3qpo_PFR_A_1.pdb
 33 37 0 0 0
SMALL
GASTEIGER

@<TRIPOS>ATOM
      1  C1        13.1690   16.4320   42.1420 C.2   999  PFR999      0.1733
      2  C2        12.4320   17.3330   41.3490 C.2   999  PFR999      0.1690
      3  C3        11.9290   18.4820   41.9120 C.2   999  PFR999      0.0316
      4  C4        13.3120   16.6670   43.5110 C.2   999  PFR999      0.0553
      5  C5        12.7880   17.8270   44.0910 C.2   999  PFR999      0.0768
      6  C6        12.0820   18.7650   43.2950 C.3   999  PFR999      0.1700
      7  C7        11.5600   19.9440   43.9330 C.2   999  PFR999      0.3063
      8  N8        11.7470   20.0680   45.2400 N.2   999  PFR999     -0.0404
      9  C9        12.4120   19.1520   45.9350 C.3   999  PFR999      0.3912
     10  N10       12.9200   18.0700   45.3980 N.2   999  PFR999     -0.2220
     11  O11       13.6280   15.2960   41.4970 O.2   999  PFR999     -0.4683
     12  O12       12.3290   17.0530   39.9930 O.2   999  PFR999     -0.4723
     13  C13       14.8030   14.7260   42.0350 C.3   999  PFR999      0.2526
     14  N14       10.8840   20.9220   43.2030 N.pl3 999  PFR999     -0.1935
     15  C15       10.1170   21.9150   43.9790 C.3   999  PFR999      0.2020
     16  C16        9.3490   22.9130   43.0750 C.3   999  PFR999      0.0513
     17  C17       10.0930   23.3570   41.7820 C.3   999  PFR999      0.0128
     18  C18       11.0560   22.2560   41.2570 C.3   999  PFR999      0.0692
     19  C19       11.8680   21.6710   42.4040 C.3   999  PFR999      0.2062
     20  C20       11.9380   22.7210   40.1130 C.ar  999  PFR999     -0.0185
     21  C21       11.9250   21.9650   38.9460 C.ar  999  PFR999     -0.0041
     22  C22       12.6800   22.3590   37.8800 C.ar  999  PFR999     -0.0003
     23  C23       13.4520   23.5150   37.9570 C.ar  999  PFR999     -0.0000
     24  C24       13.4720   24.2740   39.0980 C.ar  999  PFR999     -0.0003
     25  C25       12.7050   23.8780   40.1860 C.ar  999  PFR999     -0.0041
     26  C26       11.0080   17.0670   39.4450 C.3   999  PFR999      0.2118
     27  C27       11.1970   17.9070   38.2010 C.3   999  PFR999      0.0931
     28  C28       10.0260   18.0390   37.2730 C.ar  999  PFR999      0.0628
     29  N29        9.3800   16.9720   36.8700 N.ar  999  PFR999     -0.2480
     30  C30        8.3490   17.0350   36.0360 C.ar  999  PFR999      0.0984
     31  C31        7.8830   18.2390   35.5140 C.ar  999  PFR999      0.0207
     32  C32        8.5740   19.3990   35.9240 C.ar  999  PFR999      0.0028
     33  C33        9.6570   19.2870   36.8000 C.ar  999  PFR999      0.0149
@<TRIPOS>BOND
     1    31    32   ar
     2    31    30   ar
     3    32    33   ar
     4    30    29   ar
     5    33    28   ar
     6    29    28   ar
     7    28    27    1
     8    22    23   ar
     9    22    21   ar
    10    23    24   ar
    11    27    26    1
    12    21    20   ar
    13    24    25   ar
    14    26    12    1
    15    12     2    1
    16    20    25   ar
    17    20    18    1
    18    18    17    1
    19    18    19    1
    20     2     3    2
    21     2     1    1
    22    11    13    1
    23    11     1    1
    24    17    16    1
    25     3     6    1
    26     1     4    2
    27    19    14    1
    28    16    15    1
    29    14     7    1
    30    14    15    1
    31     6     7    1
    32     6     5    1
    33     4     5    1
    34     7     8    2
    35     5    10    2
    36     8     9    1
    37    10     9    1
