@<TRIPOS>MOLECULE
3qpp_PFW_A_1.pdb
 37 42 0 0 0
SMALL
GASTEIGER

@<TRIPOS>ATOM
      1  C1        13.3440   16.3370   43.1300 C.2   999  PFW999      0.1733
      2  C2        12.5170   17.2500   42.4480 C.2   999  PFW999      0.1690
      3  C3        11.9910   18.3470   43.0870 C.2   999  PFW999      0.0316
      4  C4        13.6090   16.5220   44.4870 C.2   999  PFW999      0.0553
      5  C5        13.0600   17.6450   45.1520 C.2   999  PFW999      0.0768
      6  C6        12.2500   18.5890   44.4550 C.3   999  PFW999      0.1700
      7  C7        11.7260   19.7290   45.1680 C.2   999  PFW999      0.3063
      8  N8        12.0130   19.8130   46.4680 N.2   999  PFW999     -0.0404
      9  C9        12.7880   18.9180   47.0730 C.3   999  PFW999      0.3912
     10  N10       13.2930   17.8720   46.4570 N.2   999  PFW999     -0.2220
     11  N11       10.9600   20.7050   44.5330 N.pl3 999  PFW999     -0.1935
     12  C12       10.4520   21.7460   45.4610 C.3   999  PFW999      0.2020
     13  C13        9.6970   22.8710   44.7100 C.3   999  PFW999      0.0513
     14  C14       10.5130   23.4610   43.5380 C.3   999  PFW999      0.0128
     15  C15       11.1370   22.3210   42.6890 C.3   999  PFW999      0.0692
     16  C16       11.9090   21.4080   43.6400 C.3   999  PFW999      0.2062
     17  C17       11.9990   22.7890   41.5220 C.ar  999  PFW999     -0.0185
     18  C18       12.0320   22.0340   40.3500 C.ar  999  PFW999     -0.0041
     19  C19       12.7970   22.4470   39.2680 C.ar  999  PFW999     -0.0003
     20  C20       13.5470   23.6150   39.3470 C.ar  999  PFW999     -0.0000
     21  C21       13.5180   24.3780   40.5030 C.ar  999  PFW999     -0.0003
     22  C22       12.7550   23.9670   41.5930 C.ar  999  PFW999     -0.0041
     23  O23       13.8080   15.2720   42.4170 O.2   999  PFW999     -0.4683
     24  O24       12.2970   17.0210   41.1120 O.2   999  PFW999     -0.4723
     25  C25       15.0430   14.7340   42.9090 C.3   999  PFW999      0.2526
     26  C26       10.9870   17.3770   40.6780 C.3   999  PFW999      0.2130
     27  C27       11.2640   17.8040   39.2400 C.3   999  PFW999      0.1062
     28  C28       10.0790   18.0490   38.3350 C.2   999  PFW999      0.1121
     29  N29        9.3810   17.0310   37.9040 N.2   999  PFW999     -0.4098
     30  C30        8.7350   19.5860   37.0920 C.2   999  PFW999     -0.0128
     31  C31        9.7850   19.3510   37.9440 C.2   999  PFW999      0.0238
     32  C32        7.9690   18.4810   36.6440 C.3   999  PFW999      0.0962
     33  C33        8.3280   17.1780   37.0990 C.2   999  PFW999      0.1163
     34  C34        7.5920   16.0560   36.6790 C.2   999  PFW999      0.0282
     35  C35        6.5460   16.2320   35.8270 C.2   999  PFW999      0.0020
     36  C36        6.1710   17.5100   35.3820 C.2   999  PFW999     -0.0038
     37  C37        6.8640   18.6290   35.7720 C.2   999  PFW999     -0.0150
@<TRIPOS>BOND
     1    36    37    2
     2    36    35    1
     3    37    32    1
     4    35    34    2
     5    32    30    1
     6    32    33    1
     7    34    33    1
     8    30    31    2
     9    33    29    2
    10    29    28    2
    11    31    28    1
    12    28    27    1
    13    27    26    1
    14    19    20   ar
    15    19    18   ar
    16    20    21   ar
    17    18    17   ar
    18    21    22   ar
    19    26    24    1
    20    24     2    1
    21    17    22   ar
    22    17    15    1
    23    23    25    1
    24    23     1    1
    25     2     3    2
    26     2     1    1
    27    15    14    1
    28    15    16    1
    29     3     6    1
    30     1     4    2
    31    14    13    1
    32    16    11    1
    33     6     5    1
    34     6     7    1
    35     4     5    1
    36    11     7    1
    37    11    12    1
    38    13    12    1
    39     5    10    2
    40     7     8    2
    41    10     9    1
    42     8     9    1
