@<TRIPOS>MOLECULE
3qps_CHD_A_1.pdb
 29 32 0 0 0
SMALL
GASTEIGER

@<TRIPOS>ATOM
      1  C1        -9.1180   -4.9580  -15.7460 C.3   211  CHD211      0.0026
      2  C2        -8.2860   -5.6610  -16.8050 C.3   211  CHD211      0.0329
      3  C3        -7.2720   -4.6610  -17.3140 C.3   211  CHD211      0.1520
      4  O3        -7.9710   -3.6980  -18.1100 O.3   211  CHD211     -0.2232
      5  C4        -6.6010   -3.9660  -16.1290 C.3   211  CHD211      0.0330
      6  C5        -6.8370   -4.5940  -14.7470 C.3   211  CHD211      0.0050
      7  C6        -6.2040   -3.6960  -13.6790 C.3   211  CHD211      0.0330
      8  C7        -6.7590   -3.9900  -12.2840 C.3   211  CHD211      0.1519
      9  O7        -6.0120   -3.2840  -11.2890 O.3   211  CHD211     -0.2232
     10  C8        -8.2580   -3.6680  -12.2110 C.3   211  CHD211      0.0306
     11  C9        -8.8440   -3.6850  -13.6210 C.3   211  CHD211      0.0050
     12  C10       -8.3170   -4.8480  -14.4560 C.3   211  CHD211      0.0004
     13  C11      -10.3690   -3.6570  -13.5620 C.3   211  CHD211      0.0330
     14  C12      -10.9200   -2.4050  -12.8490 C.3   211  CHD211      0.1519
     15  O12      -11.0300   -1.2660  -13.7330 O.3   211  CHD211     -0.2232
     16  C13      -10.1630   -2.1130  -11.5290 C.3   211  CHD211      0.0282
     17  C14       -8.6500   -2.3080  -11.6260 C.3   211  CHD211      0.0048
     18  C15       -8.2090   -1.9310  -10.2170 C.3   211  CHD211      0.0002
     19  C16       -9.1180   -0.7250   -9.9060 C.3   211  CHD211      0.0001
     20  C17      -10.2240   -0.6910  -10.9690 C.3   211  CHD211      0.0024
     21  C18      -10.6920   -3.0470  -10.4390 C.3   211  CHD211      0.0025
     22  C19       -8.4690   -6.1720  -13.7020 C.3   211  CHD211      0.0000
     23  C20      -11.5820   -0.2880  -10.3820 C.3   211  CHD211      0.0006
     24  C21      -12.4040    0.5580  -11.3600 C.3   211  CHD211      0.0000
     25  C22      -11.4270    0.4360   -9.0430 C.3   211  CHD211      0.0118
     26  C23      -11.8010    1.9220   -9.1080 C.3   211  CHD211      0.1141
     27  O25       -9.6140    2.7860   -8.7310 O.co2 211  CHD211     -0.2457
     28  C24      -10.6220    2.8000   -9.4860 C.2   211  CHD211      0.3649
     29  O26      -10.9130    3.8180  -10.1540 O.co2 211  CHD211     -0.2457
@<TRIPOS>BOND
     1     4     3    1
     2     3     2    1
     3     3     5    1
     4     2     1    1
     5     5     6    1
     6     1    12    1
     7     6    12    1
     8     6     7    1
     9    12    22    1
    10    12    11    1
    11    15    14    1
    12     7     8    1
    13    11    13    1
    14    11    10    1
    15    13    14    1
    16    14    16    1
    17     8    10    1
    18     8     9    1
    19    10    17    1
    20    17    16    1
    21    17    18    1
    22    16    20    1
    23    16    21    1
    24    24    23    1
    25    20    23    1
    26    20    19    1
    27    23    25    1
    28    18    19    1
    29    29    28   ar
    30    28    26    1
    31    28    27   ar
    32    26    25    1
