@<TRIPOS>MOLECULE
3qpv_FDP_A_1.pdb
 20 20 0 0 0
SMALL
GASTEIGER

@<TRIPOS>ATOM
      1  P1        -7.5850   47.9300   -1.0700 P.3   524  FDP524      0.5345
      2  O1P       -8.3320   47.6780   -2.3790 O.2   524  FDP524     -0.2223
      3  O2P       -7.7230   46.7740   -0.0820 O.3   524  FDP524     -0.1145
      4  O3P       -7.8150   49.3560   -0.6280 O.3   524  FDP524     -0.1145
      5  O1        -5.1840   45.8300   -0.7070 O.3   524  FDP524     -0.2149
      6  C1        -4.1590   46.5930   -1.3060 C.3   524  FDP524      0.2410
      7  C2        -4.8340   47.7910   -1.9480 C.3   524  FDP524      0.2588
      8  O2        -5.9650   48.1910   -1.1650 O.3   524  FDP524     -0.2440
      9  C3        -5.0160   47.5780   -3.4390 C.3   524  FDP524      0.2385
     10  O3        -6.2860   47.1730   -3.8680 O.3   524  FDP524     -0.2150
     11  C4        -4.7070   48.9200   -4.0390 C.3   524  FDP524      0.2166
     12  O4        -4.4080   48.7100   -5.4070 O.3   524  FDP524     -0.2175
     13  C5        -3.5350   49.2960   -3.1880 C.3   524  FDP524      0.1807
     14  O5        -3.9080   48.8780   -1.8470 O.3   524  FDP524     -0.3271
     15  C6        -3.1020   50.7440   -3.1450 C.3   524  FDP524      0.1859
     16  O6        -2.0860   50.7070   -2.1270 O.3   524  FDP524     -0.2675
     17  P2        -0.6110   50.9610   -2.6720 P.3   524  FDP524      0.5327
     18  O4P       -0.3830   49.6460   -3.4420 O.3   524  FDP524     -0.1145
     19  O5P       -0.6460   52.1450   -3.5820 O.2   524  FDP524     -0.2224
     20  O6P        0.3200   51.2320   -1.4650 O.3   524  FDP524     -0.1145
@<TRIPOS>BOND
     1    12    11    1
     2    11     9    1
     3    11    13    1
     4    10     9    1
     5    19    17    2
     6    18    17    1
     7     9     7    1
     8    13    15    1
     9    13    14    1
    10    15    16    1
    11    17    16    1
    12    17    20    1
    13     2     1    2
    14     7    14    1
    15     7     6    1
    16     7     8    1
    17     6     5    1
    18     8     1    1
    19     1     4    1
    20     1     3    1
