@<TRIPOS>MOLECULE
3qpv_F6P_A_1.pdb
 16 16 0 0 0
SMALL
GASTEIGER

@<TRIPOS>ATOM
      1  O1       -44.3590   67.4180   13.5840 O.3   720  F6P720     -0.2148
      2  C1       -43.6500   67.2300   14.7920 C.3   720  F6P720      0.2434
      3  C2       -42.2650   67.8530   14.6370 C.3   720  F6P720      0.2807
      4  O2       -41.3210   67.0960   15.4970 O.3   720  F6P720     -0.1896
      5  C3       -42.3850   69.3480   14.9560 C.3   720  F6P720      0.2409
      6  O3       -42.2580   69.5910   16.3340 O.3   720  F6P720     -0.2149
      7  C4       -41.2420   69.9500   14.1510 C.3   720  F6P720      0.2167
      8  O4       -41.3890   71.3100   13.8620 O.3   720  F6P720     -0.2175
      9  C5       -41.4610   69.1600   12.8980 C.3   720  F6P720      0.1808
     10  O5       -41.7940   67.8430   13.2980 O.3   720  F6P720     -0.3254
     11  C6       -40.2480   69.2140   12.0090 C.3   720  F6P720      0.1859
     12  O6       -40.5580   68.5680   10.7970 O.3   720  F6P720     -0.2675
     13  P        -40.2790   69.3980    9.4710 P.3   720  F6P720      0.5327
     14  O1P      -38.8400   69.9420    9.4390 O.3   720  F6P720     -0.1145
     15  O2P      -40.4440   68.3960    8.3490 O.2   720  F6P720     -0.2224
     16  O3P      -41.2190   70.5520    9.2850 O.3   720  F6P720     -0.1145
@<TRIPOS>BOND
     1    15    13    2
     2    16    13    1
     3    14    13    1
     4    13    12    1
     5    12    11    1
     6    11     9    1
     7     9    10    1
     8     9     7    1
     9    10     3    1
    10     1     2    1
    11     8     7    1
    12     7     5    1
    13     3     2    1
    14     3     5    1
    15     3     4    1
    16     5     6    1
