@<TRIPOS>MOLECULE
3qpv_ADP_A_1.pdb
 27 29 0 0 0
SMALL
GASTEIGER

@<TRIPOS>ATOM
      1  PB        -7.6520   48.0400    4.7320 P.3   700  ADP700      0.5373
      2  O1B       -6.5540   48.3590    5.7850 O.3   700  ADP700     -0.1143
      3  O2B       -8.3230   49.1990    4.0220 O.3   700  ADP700     -0.1143
      4  O3B       -7.3200   46.8960    3.7460 O.2   700  ADP700     -0.2221
      5  PA       -10.3600   47.6570    5.6270 P.3   700  ADP700      0.2231
      6  O1A      -10.7930   48.9350    6.2750 O.3   700  ADP700     -0.4370
      7  O2A      -10.9790   47.3610    4.2830 O.2   700  ADP700     -0.5169
      8  O3A       -8.7790   47.4370    5.7150 O.3   700  ADP700     -0.2261
      9  O5'      -10.8290   46.6020    6.7560 O.3   700  ADP700     -0.3111
     10  C5'      -12.1070   46.7270    7.4220 C.3   700  ADP700      0.1813
     11  C4'      -12.0430   45.9610    8.7440 C.3   700  ADP700      0.1821
     12  O4'      -11.0500   46.5490    9.6100 O.3   700  ADP700     -0.3135
     13  C3'      -13.3410   45.9540    9.5390 C.3   700  ADP700      0.2184
     14  O3'      -13.5840   44.5800    9.7950 O.3   700  ADP700     -0.2174
     15  C2'      -13.0070   46.6640   10.8490 C.3   700  ADP700      0.2570
     16  O2'      -13.4770   45.9650   11.9940 O.3   700  ADP700     -0.2130
     17  C1'      -11.5090   46.5380   10.9400 C.3   700  ADP700      0.3186
     18  N9       -10.9040   47.6530   11.6670 N.pl3 700  ADP700     -0.1439
     19  C8       -11.4520   48.8810   11.9110 C.3   700  ADP700      0.3377
     20  N7       -10.5520   49.6360   12.6280 N.2   700  ADP700     -0.2095
     21  C5        -9.4420   48.8960   12.8430 C.2   700  ADP700      0.2526
     22  C6        -8.1580   49.0940   13.5250 C.2   700  ADP700      0.4393
     23  N6        -7.8950   50.2680   14.1200 N.pl3 700  ADP700      0.2180
     24  N1        -7.2580   48.0750   13.5490 N.2   700  ADP700      0.0021
     25  C2        -7.5530   46.8870   12.9390 C.3   700  ADP700      0.5254
     26  N3        -8.7260   46.6470   12.3070 N.2   700  ADP700     -0.0055
     27  C4        -9.6710   47.5950   12.2220 C.2   700  ADP700      0.3518
@<TRIPOS>BOND
     1     4     1    2
     2     3     1    1
     3     7     5    2
     4     1     8    1
     5     1     2    1
     6     5     8    1
     7     5     6    1
     8     5     9    1
     9     9    10    1
    10    10    11    1
    11    11    13    1
    12    11    12    1
    13    13    14    1
    14    13    15    1
    15    12    17    1
    16    15    17    1
    17    15    16    1
    18    17    18    1
    19    18    19    1
    20    18    27    1
    21    19    20    1
    22    27    26    2
    23    27    21    1
    24    26    25    1
    25    20    21    2
    26    21    22    1
    27    25    24    1
    28    22    24    2
    29    22    23    1
