@<TRIPOS>MOLECULE
3qpw_ADP_A_1.pdb
 27 29 0 0 0
SMALL
GASTEIGER

@<TRIPOS>ATOM
      1  PB        -7.6820   48.3770    4.4150 P.3   800  ADP800      0.5373
      2  O1B       -6.5680   48.6860    5.3800 O.3   800  ADP800     -0.1143
      3  O2B       -8.2010   49.5970    3.6620 O.3   800  ADP800     -0.1143
      4  O3B       -7.2570   47.1830    3.5710 O.2   800  ADP800     -0.2221
      5  PA       -10.3930   47.9390    5.3460 P.3   800  ADP800      0.2231
      6  O1A      -10.7850   49.3000    5.8560 O.3   800  ADP800     -0.4370
      7  O2A      -10.9810   47.4610    4.0360 O.2   800  ADP800     -0.5169
      8  O3A       -8.8000   47.8080    5.4080 O.3   800  ADP800     -0.2261
      9  O5'      -10.7290   46.9270    6.5170 O.3   800  ADP800     -0.3111
     10  C5'      -12.0720   46.8840    7.0180 C.3   800  ADP800      0.1813
     11  C4'      -12.0900   46.4260    8.4580 C.3   800  ADP800      0.1821
     12  O4'      -11.2040   47.1910    9.2700 O.3   800  ADP800     -0.3135
     13  C3'      -13.4380   46.5130    9.1900 C.3   800  ADP800      0.2184
     14  O3'      -13.8500   45.1860    9.4880 O.3   800  ADP800     -0.2174
     15  C2'      -13.1830   47.1690   10.5430 C.3   800  ADP800      0.2570
     16  O2'      -13.7220   46.3720   11.6000 O.3   800  ADP800     -0.2130
     17  C1'      -11.6630   47.0900   10.6280 C.3   800  ADP800      0.3186
     18  N9       -11.0320   48.1880   11.3520 N.pl3 800  ADP800     -0.1439
     19  C8       -11.5320   49.4310   11.5320 C.3   800  ADP800      0.3377
     20  N7       -10.6660   50.1830   12.2510 N.2   800  ADP800     -0.2095
     21  C5        -9.5850   49.4470   12.4820 C.2   800  ADP800      0.2526
     22  C6        -8.3090   49.6500   13.1820 C.2   800  ADP800      0.4393
     23  N6        -7.9880   50.8440   13.7550 N.pl3 800  ADP800      0.2180
     24  N1        -7.4760   48.5790   13.2130 N.2   800  ADP800      0.0021
     25  C2        -7.7770   47.3920   12.6680 C.3   800  ADP800      0.5254
     26  N3        -8.9170   47.1320   12.0350 N.2   800  ADP800     -0.0055
     27  C4        -9.8360   48.1110   11.9070 C.2   800  ADP800      0.3518
@<TRIPOS>BOND
     1     4     1    2
     2     3     1    1
     3     7     5    2
     4     1     2    1
     5     1     8    1
     6     5     8    1
     7     5     6    1
     8     5     9    1
     9     9    10    1
    10    10    11    1
    11    11    13    1
    12    11    12    1
    13    13    14    1
    14    13    15    1
    15    12    17    1
    16    15    17    1
    17    15    16    1
    18    17    18    1
    19    18    19    1
    20    18    27    1
    21    19    20    1
    22    27    26    2
    23    27    21    1
    24    26    25    1
    25    20    21    2
    26    21    22    1
    27    25    24    1
    28    22    24    2
    29    22    23    1
