@<TRIPOS>MOLECULE
3qpw_PEP_A_1.pdb
 10 9 0 0 0
SMALL
GASTEIGER

@<TRIPOS>ATOM
      1  C1        -4.4480   48.5550   -4.6100 C.2   801  PEP801      0.3919
      2  O1        -4.7220   48.2170   -3.4180 O.co2 801  PEP801     -0.2429
      3  O2'       -5.2820   48.3700   -5.5130 O.co2 801  PEP801     -0.2429
      4  C2        -3.0730   49.0880   -4.9660 C.3   801  PEP801      0.2285
      5  C3        -3.0290   50.1790   -6.0080 C.3   801  PEP801      0.0450
      6  O2        -2.3900   49.3660   -3.7190 O.3   801  PEP801     -0.2611
      7  P         -1.0430   50.1460   -3.2980 P.3   801  PEP801      0.5330
      8  O1P       -0.2760   50.5640   -4.5200 O.2   801  PEP801     -0.2224
      9  O2P       -1.5760   51.3130   -2.4630 O.3   801  PEP801     -0.1145
     10  O3P       -0.3960   49.1910   -2.3750 O.3   801  PEP801     -0.1145
@<TRIPOS>BOND
     1     5     4    1
     2     3     1   ar
     3     4     1    1
     4     4     6    1
     5     1     2   ar
     6     8     7    2
     7     6     7    1
     8     7     9    1
     9     7    10    1
