@<TRIPOS>MOLECULE
3qqa_TCH_A_1.pdb
 35 38 0 0 0
SMALL
GASTEIGER

@<TRIPOS>ATOM
      1  C1       -10.8720  -16.9300  -11.6910 C.3   211  TCH211      0.0026
      2  C2       -12.3500  -17.1920  -11.9600 C.3   211  TCH211      0.0329
      3  C3       -13.2660  -16.4840  -10.9850 C.3   211  TCH211      0.1520
      4  O3       -13.6550  -15.1680  -11.4720 O.3   211  TCH211     -0.2232
      5  C4       -12.6890  -16.6730   -9.5880 C.3   211  TCH211      0.0330
      6  C5       -11.8010  -17.8760   -9.8390 C.3   211  TCH211      0.0050
      7  C6       -11.4650  -19.0100   -8.8990 C.3   211  TCH211      0.0330
      8  C7       -11.3260  -20.1570   -9.8450 C.3   211  TCH211      0.1519
      9  O7       -11.4370  -19.6970  -11.1960 O.3   211  TCH211     -0.2232
     10  C8        -9.8900  -20.0680   -9.7420 C.3   211  TCH211      0.0306
     11  C9        -9.5340  -18.6760  -10.3030 C.3   211  TCH211      0.0050
     12  C10      -10.4830  -17.4430  -10.3220 C.3   211  TCH211      0.0004
     13  C11       -8.0320  -18.4320  -10.1930 C.3   211  TCH211      0.0330
     14  C12       -7.2110  -19.7340  -10.2820 C.3   211  TCH211      0.1519
     15  O12       -5.9140  -19.4530  -10.8510 O.3   211  TCH211     -0.2232
     16  C13       -7.8950  -21.1070  -10.5650 C.3   211  TCH211      0.0282
     17  C14       -9.3960  -21.0470  -10.7270 C.3   211  TCH211      0.0048
     18  C15       -9.8680  -22.4510  -10.8670 C.3   211  TCH211      0.0002
     19  C16       -8.7370  -22.9640  -11.7790 C.3   211  TCH211      0.0001
     20  C17       -7.6900  -21.8570  -11.8710 C.3   211  TCH211      0.0024
     21  C18       -7.5540  -22.0800   -9.4560 C.3   211  TCH211      0.0025
     22  C19      -10.0270  -16.2480   -9.4850 C.3   211  TCH211      0.0000
     23  O1S       -7.4360  -29.5170  -16.1330 O.3   211  TCH211     -0.3074
     24  C20       -6.2950  -22.3690  -12.1120 C.3   211  TCH211      0.0006
     25  C21       -5.8270  -23.0990  -10.8870 C.3   211  TCH211      0.0000
     26  C22       -6.1370  -23.1940  -13.3710 C.3   211  TCH211      0.0096
     27  C23       -7.3080  -23.1240  -14.3320 C.3   211  TCH211      0.0868
     28  C24       -7.8130  -24.5080  -14.5630 C.2   211  TCH211      0.2414
     29  N24       -7.6350  -25.0890  -15.7450 N.am  211  TCH211     -0.2037
     30  O24       -8.3520  -25.0590  -13.6530 O.2   211  TCH211     -0.2733
     31  C25       -7.7360  -26.5420  -15.9000 C.3   211  TCH211      0.1366
     32  C26       -6.6930  -27.1280  -16.8550 C.3   211  TCH211      0.1286
     33  S26       -6.7170  -28.7650  -17.1660 S.3   211  TCH211     -0.1942
     34  O2S       -5.3390  -29.2320  -17.3160 O.3   211  TCH211     -0.3074
     35  O3S       -7.3580  -29.0870  -18.4420 O.3   211  TCH211     -0.3074
@<TRIPOS>BOND
     1    35    33    1
     2    34    33    1
     3    33    32    1
     4    33    23    1
     5    32    31    1
     6    31    29    1
     7    29    28   am
     8    28    27    1
     9    28    30    2
    10    27    26    1
    11    26    24    1
    12    24    20    1
    13    24    25    1
    14     2     1    1
    15     2     3    1
    16    20    19    1
    17    20    16    1
    18    19    18    1
    19     1    12    1
    20     4     3    1
    21     9     8    1
    22     3     5    1
    23    18    17    1
    24    15    14    1
    25    17    16    1
    26    17    10    1
    27    16    14    1
    28    16    21    1
    29    12    11    1
    30    12     6    1
    31    12    22    1
    32    11    13    1
    33    11    10    1
    34    14    13    1
    35     8    10    1
    36     8     7    1
    37     6     5    1
    38     6     7    1
