@<TRIPOS>MOLECULE
3qqf_X07_A_1.pdb
 20 21 0 0 0
SMALL
GASTEIGER

@<TRIPOS>ATOM
      1  C1        65.4340   44.8760  -46.7160 C.ar  543  X07543      0.0179
      2  C2        66.7250   44.4210  -46.3750 C.ar  543  X07543      0.0254
      3  C3        67.8350   44.5940  -47.2670 C.ar  543  X07543      0.1431
      4  C4        67.5910   45.2440  -48.5130 C.ar  543  X07543      0.0300
      5  C5        66.2880   45.7230  -48.9070 C.ar  543  X07543      0.0731
      6  C6        65.1610   45.5400  -47.9850 C.ar  543  X07543      0.0702
      7  N7        63.9290   45.9480  -48.3270 N.pl3 543  X07543     -0.2326
      8  C8        66.1560   46.2640  -50.1740 C.2   543  X07543      0.2855
      9  N9        66.9350   45.8710  -51.2230 N.am  543  X07543     -0.0837
     10  O10       65.2340   47.2030  -50.4170 O.2   543  X07543     -0.2666
     11  N11       69.0590   44.1660  -46.9520 N.pl3 543  X07543      0.0577
     12  O12       70.1020   44.3320  -47.7940 O.2   543  X07543     -0.1261
     13  O13       69.2810   43.6070  -45.8860 O.2   543  X07543     -0.1261
     14  C14       62.6910   45.8150  -47.5360 C.3   543  X07543      0.1401
     15  C15       62.3240   48.7910  -44.3920 C.ar  543  X07543      0.0989
     16  N16       62.5010   49.1660  -45.7110 N.ar  543  X07543     -0.2426
     17  C17       62.6220   48.2440  -46.7390 C.ar  543  X07543      0.0963
     18  C18       62.5630   46.8500  -46.4440 C.ar  543  X07543      0.0185
     19  C19       62.3800   46.4500  -45.0850 C.ar  543  X07543      0.0006
     20  C20       62.2600   47.4160  -44.0540 C.ar  543  X07543      0.0204
@<TRIPOS>BOND
     1     9     8   am
     2    10     8    2
     3     8     5    1
     4     5     4   ar
     5     5     6   ar
     6     4     3   ar
     7     7     6    1
     8     7    14    1
     9     6     1   ar
    10    12    11    2
    11    14    18    1
    12     3    11    1
    13     3     2   ar
    14    11    13    2
    15    17    18   ar
    16    17    16   ar
    17     1     2   ar
    18    18    19   ar
    19    16    15   ar
    20    19    20   ar
    21    15    20   ar
