@<TRIPOS>MOLECULE
3qqg_X06_A_1.pdb
 16 17 0 0 0
SMALL
GASTEIGER

@<TRIPOS>ATOM
      1  N01      -91.4470   -8.3660  -47.6460 N.2   300  X06300     -0.2575
      2  N02      -89.4880   -9.5320  -46.8670 N.2   300  X06300     -0.2413
      3  N03      -90.3510   -9.9570  -49.0660 N.2   300  X06300     -0.2575
      4  N04      -90.5590   -8.0410  -45.6030 N.pl3 300  X06300     -0.0220
      5  N05      -88.5450  -10.9860  -48.2720 N.pl3 300  X06300     -0.0220
      6  C06      -94.2940   -7.6240  -50.6220 C.ar  300  X06300      0.0586
      7  C07      -94.1340   -8.2140  -51.9040 C.ar  300  X06300      0.0147
      8  C08      -93.0370   -9.0940  -52.1500 C.ar  300  X06300      0.0437
      9  C09      -92.0970   -9.3880  -51.1260 C.ar  300  X06300      0.2070
     10  C10      -92.2400   -8.7950  -49.8160 C.ar  300  X06300      0.1269
     11  C11      -93.3540   -7.9090  -49.5820 C.ar  300  X06300      0.0267
     12  C12      -91.3230   -9.0530  -48.8110 C.1   300  X06300      0.1663
     13  C13      -90.4950   -8.6570  -46.7200 C.1   300  X06300      0.2622
     14  C14      -89.4740  -10.1500  -48.0650 C.1   300  X06300      0.2622
     15  O15      -91.0650  -10.2240  -51.3970 O.3   300  X06300     -0.2858
     16 CL16      -95.6260   -6.5550  -50.3430 Cl    300  X06300     -0.0822
@<TRIPOS>BOND
     1     8     7   ar
     2     8     9   ar
     3     7     6   ar
     4    15     9    1
     5     9    10   ar
     6     6    16    1
     7     6    11   ar
     8    10    11   ar
     9    10    12    1
    10     3    12    2
    11     3    14    2
    12    12     1    2
    13     5    14    1
    14    14     2    2
    15     1    13    2
    16     2    13    2
    17    13     4    1
