@<TRIPOS>MOLECULE
3qqh_X0A_A_1.pdb
 22 24 0 0 0
SMALL
GASTEIGER

@<TRIPOS>ATOM
      1  N01       62.8120   80.6110  -48.3790 N.2   303  X0A303     -0.2575
      2  N02       62.0590   80.4130  -46.1120 N.2   303  X0A303     -0.2423
      3  N03       64.1050   79.3470  -46.8010 N.2   303  X0A303     -0.2584
      4  N04       60.9420   81.5570  -47.6620 N.pl3 303  X0A303     -0.0220
      5  N05       63.2760   79.2370  -44.6480 N.pl3 303  X0A303     -0.1243
      6  C06       66.8260   78.3360  -49.7630 C.ar  303  X0A303      0.0586
      7  C07       66.7030   78.8800  -51.0670 C.ar  303  X0A303      0.0147
      8  C08       65.6320   79.7640  -51.3720 C.ar  303  X0A303      0.0437
      9  C09       64.6760   80.1090  -50.3720 C.ar  303  X0A303      0.2070
     10  C10       64.7950   79.5550  -49.0350 C.ar  303  X0A303      0.1269
     11  C11       65.8830   78.6670  -48.7540 C.ar  303  X0A303      0.0267
     12  C12       63.8790   79.8520  -48.0400 C.1   303  X0A303      0.1662
     13  C13       61.9510   80.8520  -47.3780 C.1   303  X0A303      0.2622
     14  C14       63.1560   79.6640  -45.8760 C.1   303  X0A303      0.2454
     15  C15       64.1630   78.4130  -44.1700 C.ar  303  X0A303      0.0835
     16  C16       65.5630   78.5220  -44.4710 C.ar  303  X0A303      0.0174
     17  C17       66.4920   77.6010  -43.9120 C.ar  303  X0A303      0.0014
     18  C18       66.0360   76.5720  -43.0480 C.ar  303  X0A303      0.0001
     19  C19       64.6530   76.4610  -42.7440 C.ar  303  X0A303      0.0014
     20  C20       63.7230   77.3760  -43.3030 C.ar  303  X0A303      0.0174
     21  O21       63.6600   80.9540  -50.6960 O.3   303  X0A303     -0.2858
     22 CL22       68.1240   77.2670  -49.4040 Cl    303  X0A303     -0.0822
@<TRIPOS>BOND
     1     8     7   ar
     2     8     9   ar
     3     7     6   ar
     4    21     9    1
     5     9    10   ar
     6     6    22    1
     7     6    11   ar
     8    10    11   ar
     9    10    12    1
    10     1    12    2
    11     1    13    2
    12    12     3    2
    13     4    13    1
    14    13     2    2
    15     3    14    2
    16     2    14    2
    17    14     5    1
    18     5    15    1
    19    16    15   ar
    20    16    17   ar
    21    15    20   ar
    22    17    18   ar
    23    20    19   ar
    24    18    19   ar
