@<TRIPOS>MOLECULE
3qqj_X11_A_1.pdb
 15 16 0 0 0
SMALL
GASTEIGER

@<TRIPOS>ATOM
      1  N1       -12.0000  -80.2160  -11.1620 N.2   300  X11300     -0.2575
      2  C2       -11.1560  -80.5350  -10.1500 C.1   300  X11300      0.2622
      3  N3       -10.1210  -81.3800  -10.3700 N.2   300  X11300     -0.2413
      4  C4        -9.9330  -81.9050  -11.6010 C.1   300  X11300      0.2622
      5  N5       -10.7730  -81.5850  -12.6040 N.2   300  X11300     -0.2575
      6  C6       -11.8060  -80.7440  -12.3920 C.1   300  X11300      0.1663
      7  N7       -11.3580  -79.9840   -8.8720 N.pl3 300  X11300     -0.0220
      8  N8        -8.8710  -82.7750  -11.8460 N.pl3 300  X11300     -0.0220
      9  C9       -12.7230  -80.3990  -13.5130 C.ar  300  X11300      0.1260
     10  C10      -12.5100  -80.9550  -14.8190 C.ar  300  X11300      0.2070
     11  C11      -13.3820  -80.6100  -15.8820 C.ar  300  X11300      0.0428
     12  C12      -14.4700  -79.7170  -15.6550 C.ar  300  X11300      0.0033
     13  C13      -14.6910  -79.1650  -14.3530 C.ar  300  X11300      0.0010
     14  C14      -13.8160  -79.5060  -13.2890 C.ar  300  X11300      0.0153
     15  O15      -11.4680  -81.8190  -15.0480 O.3   300  X11300     -0.2858
@<TRIPOS>BOND
     1    11    12   ar
     2    11    10   ar
     3    12    13   ar
     4    15    10    1
     5    10     9   ar
     6    13    14   ar
     7     9    14   ar
     8     9     6    1
     9     5     6    2
    10     5     4    2
    11     6     1    2
    12     8     4    1
    13     4     3    2
    14     1     2    2
    15     3     2    2
    16     2     7    1
