@<TRIPOS>MOLECULE
3qqk_X02_A_1.pdb
 18 19 0 0 0
SMALL
GASTEIGER

@<TRIPOS>ATOM
      1  C1        62.6090  153.3670  -46.9750 C.2   497  X02497     -0.0031
      2  C2        62.9490  154.6470  -46.7530 C.2   497  X02497     -0.0029
      3  C3        64.2770  155.2210  -47.1900 C.3   497  X02497      0.1414
      4  N4        64.3310  155.2730  -48.6750 N.pl3 497  X02497     -0.1995
      5  C5        65.2960  154.5150  -49.2260 C.2   497  X02497      0.2289
      6  N6        65.5940  154.5220  -50.4520 N.2   497  X02497     -0.3645
      7  C7        66.6600  153.6400  -50.8810 C.2   497  X02497      0.2162
      8  C8        67.1440  152.9470  -49.8360 C.3   497  X02497      0.1864
      9  S9        66.3090  153.3730  -48.3050 S.3   497  X02497     -0.0498
     10  N10       67.0840  153.5300  -52.1310 N.pl3 497  X02497     -0.0965
     11  C11       68.2350  151.9300  -49.8750 C.2   497  X02497      0.1913
     12  C12       68.7100  151.1570  -48.6490 C.ar  497  X02497      0.0360
     13  C13       67.7700  150.4830  -47.7990 C.ar  497  X02497      0.0029
     14  C14       68.2240  149.7510  -46.6610 C.ar  497  X02497      0.0001
     15  C15       69.6140  149.6850  -46.3670 C.ar  497  X02497      0.0000
     16  C16       70.5530  150.3500  -47.2110 C.ar  497  X02497      0.0001
     17  C17       70.1030  151.0830  -48.3500 C.ar  497  X02497      0.0029
     18  O18       68.7750  151.6840  -50.9510 O.2   497  X02497     -0.2899
@<TRIPOS>BOND
     1    10     7    1
     2    18    11    2
     3     7     6    2
     4     7     8    1
     5     6     5    2
     6    11     8    1
     7    11    12    1
     8     8     9    1
     9     5     4    1
    10     5     9    1
    11     4     3    1
    12    12    17   ar
    13    12    13   ar
    14    17    16   ar
    15    13    14   ar
    16    16    15   ar
    17     3     2    1
    18     1     2    2
    19    14    15   ar
