@<TRIPOS>MOLECULE
3qql_X03_A_1.pdb
 18 19 0 0 0
SMALL
GASTEIGER

@<TRIPOS>ATOM
      1  N1        51.2360  -66.3880 -102.0390 N.2   299  X03299     -0.1479
      2  N2        52.3000  -67.1620 -101.4930 N.2   299  X03299     -0.1565
      3  C3        53.0590  -66.3380 -100.6950 C.2   299  X03299      0.0637
      4  C4        52.5100  -65.0730 -100.7070 C.3   299  X03299      0.0845
      5  C5        51.3220  -65.1270 -101.5860 C.2   299  X03299      0.1415
      6  C6        50.4050  -64.0100 -101.9080 C.2   299  X03299      0.2979
      7  N7        49.3720  -64.2140 -102.7510 N.am  299  X03299     -0.0876
      8  N8        48.4630  -63.1580 -103.0930 N.3   299  X03299      0.0074
      9  O9        50.5850  -62.8870 -101.4060 O.2   299  X03299     -0.2655
     10  C10       54.3370  -66.6920  -99.8840 C.3   299  X03299      0.0435
     11  C11       54.9920  -65.4640  -99.0900 C.3   299  X03299      0.0060
     12  C12       53.9520  -64.3170  -98.6140 C.3   299  X03299      0.0011
     13  C13       53.1150  -63.8930  -99.9150 C.3   299  X03299      0.0118
     14  C14       54.5860  -63.0010  -97.8260 C.3   299  X03299      0.0000
     15  C15       54.0240  -62.9410  -96.3090 C.3   299  X03299      0.0000
     16  C16       54.4120  -64.2200  -95.6690 C.3   299  X03299      0.0000
     17  C17       54.2230  -61.6700  -98.5910 C.3   299  X03299      0.0000
     18  C18       56.1450  -63.0560  -97.7410 C.3   299  X03299      0.0000
@<TRIPOS>BOND
     1     8     7    1
     2     7     6   am
     3     1     5    2
     4     1     2    1
     5     6     5    1
     6     6     9    2
     7     5     4    1
     8     2     3    2
     9     4     3    1
    10     4    13    1
    11     3    10    1
    12    13    12    1
    13    10    11    1
    14    11    12    1
    15    12    14    1
    16    17    14    1
    17    14    18    1
    18    14    15    1
    19    15    16    1
