@<TRIPOS>MOLECULE
3qqp_NDP_A_1.pdb
 48 52 0 0 0
SMALL
GASTEIGER

@<TRIPOS>ATOM
      1  PA        10.1570   -4.9590   22.6590 P.3   293  NDP293      0.2189
      2  O1A       11.4500   -4.4880   23.2580 O.3   293  NDP293     -0.4371
      3  O2A       10.0830   -6.0830   21.6340 O.2   293  NDP293     -0.5170
      4  O5B        9.2700   -5.5310   23.9260 O.3   293  NDP293     -0.3112
      5  C5B        8.1060   -6.3390   23.6900 C.3   293  NDP293      0.1813
      6  C4B        7.7760   -6.9990   25.0390 C.3   293  NDP293      0.1820
      7  O4B        6.5250   -7.8070   24.9780 O.3   293  NDP293     -0.3136
      8  C3B        8.8480   -7.9120   25.6210 C.3   293  NDP293      0.2157
      9  O3B        8.8250   -7.5280   27.0000 O.3   293  NDP293     -0.2175
     10  C2B        8.2840   -9.3470   25.3240 C.3   293  NDP293      0.2314
     11  O2B        8.8080  -10.3010   26.2330 O.3   293  NDP293     -0.2630
     12  C1B        6.7900   -9.1350   25.5320 C.3   293  NDP293      0.3158
     13  N9A        5.9960  -10.0910   24.8330 N.pl3 293  NDP293     -0.1439
     14  C8A        6.2590  -10.6380   23.5600 C.3   293  NDP293      0.3377
     15  N7A        5.3720  -11.5260   23.1650 N.2   293  NDP293     -0.2095
     16  C5A        4.5120  -11.5630   24.2680 C.2   293  NDP293      0.2526
     17  C6A        3.3720  -12.3470   24.5290 C.2   293  NDP293      0.4393
     18  N6A        2.9810  -13.2860   23.6310 N.pl3 293  NDP293      0.2180
     19  N1A        2.7080  -12.2410   25.7020 N.2   293  NDP293      0.0021
     20  C2A        3.1810  -11.3010   26.5870 C.3   293  NDP293      0.5254
     21  N3A        4.2750  -10.4520   26.4590 N.2   293  NDP293     -0.0055
     22  C4A        4.8840  -10.6660   25.2950 C.2   293  NDP293      0.3518
     23  O3         9.1830   -3.8220   22.1280 O.3   293  NDP293     -0.2703
     24  PN         9.2450   -2.2640   22.1210 P.3   293  NDP293      0.2189
     25  O1N        9.6620   -1.8200   23.4770 O.3   293  NDP293     -0.4371
     26  O2N        9.8190   -1.7230   20.8330 O.2   293  NDP293     -0.5170
     27  O5D        7.6540   -1.9810   21.9220 O.3   293  NDP293     -0.3112
     28  C5D        6.7840   -2.0020   23.0540 C.3   293  NDP293      0.1813
     29  C4D        5.4540   -1.2880   22.7120 C.3   293  NDP293      0.1799
     30  O4D        5.7050    0.0630   22.2130 O.3   293  NDP293     -0.3327
     31  C3D        4.4250   -1.9850   21.7540 C.3   293  NDP293      0.2158
     32  O3D        3.0420   -1.7650   21.9990 O.3   293  NDP293     -0.2175
     33  C2D        4.8590   -1.3460   20.4660 C.3   293  NDP293      0.2309
     34  O2D        3.8660   -1.5250   19.4550 O.3   293  NDP293     -0.2158
     35  C1D        5.0310    0.1040   20.9240 C.3   293  NDP293      0.2263
     36  N1N        5.7810    0.8130   19.8890 N.pl3 293  NDP293     -0.2787
     37  C2N        7.1700    0.6260   19.6740 C.3   293  NDP293      0.1244
     38  C3N        7.8480    1.3260   18.6970 C.2   293  NDP293      0.0544
     39  C7N        9.3190    1.2000   18.4450 C.2   293  NDP293      0.2818
     40  O7N        9.8070    1.8920   17.5560 O.2   293  NDP293     -0.2670
     41  N7N       10.0860    0.3480   19.1840 N.am  293  NDP293     -0.0839
     42  C4N        7.1010    2.2810   17.8040 C.2   293  NDP293      0.0033
     43  C5N        5.6330    2.3660   18.0850 C.2   293  NDP293      0.0157
     44  C6N        5.0740    1.6750   19.0780 C.2   293  NDP293      0.0633
     45  P2B        8.7940  -11.8790   26.0390 P.3   293  NDP293      0.5328
     46  O1X        9.6170  -12.3980   27.2230 O.3   293  NDP293     -0.1145
     47  O2X        7.3210  -12.3240   26.1450 O.3   293  NDP293     -0.1145
     48  O3X        9.3470  -12.0980   24.6290 O.2   293  NDP293     -0.2224
@<TRIPOS>BOND
     1    40    39    2
     2    42    43    1
     3    42    38    2
     4    43    44    2
     5    39    38    1
     6    39    41   am
     7    38    37    1
     8    44    36    1
     9    34    33    1
    10    37    36    1
    11    36    35    1
    12    33    35    1
    13    33    31    1
    14    26    24    2
    15    35    30    1
    16     3     1    2
    17    31    32    1
    18    31    29    1
    19    27    24    1
    20    27    28    1
    21    24    23    1
    22    24    25    1
    23    23     1    1
    24    30    29    1
    25     1     2    1
    26     1     4    1
    27    29    28    1
    28    15    14    1
    29    15    16    2
    30    14    13    1
    31    18    17    1
    32     5     4    1
    33     5     6    1
    34    16    17    1
    35    16    22    1
    36    17    19    2
    37    48    45    2
    38    13    22    1
    39    13    12    1
    40     7     6    1
    41     7    12    1
    42     6     8    1
    43    22    21    2
    44    10    12    1
    45    10     8    1
    46    10    11    1
    47     8     9    1
    48    19    20    1
    49    45    47    1
    50    45    11    1
    51    45    46    1
    52    21    20    1
