@<TRIPOS>MOLECULE
3qqp_S05_A_1.pdb
 23 26 0 0 0
SMALL
GASTEIGER

@<TRIPOS>ATOM
      1  C1         7.9640    2.1750   11.7490 C.ar    1  S051       -0.0084
      2  C2         8.7170    3.0330   12.7620 C.3     1  S051        0.0294
      3  C3         7.7240    3.9380   13.5410 C.3     1  S051        0.0267
      4  C4         6.3880    3.2700   13.9370 C.3     1  S051        0.1001
      5  N5         6.2860    1.8440   13.4370 N.am    1  S051       -0.2434
      6  C6         6.7350    1.6100   12.0910 C.ar    1  S051        0.0513
      7  C13        6.0120    0.8630   11.1520 C.ar    1  S051        0.0146
      8  C14        6.5320    0.6600    9.8700 C.ar    1  S051        0.0013
      9  C15        7.7730    1.2110    9.5370 C.ar    1  S051       -0.0002
     10  C16        8.4850    1.9790   10.4710 C.ar    1  S051       -0.0030
     11  C21        6.2950    0.8180   14.3520 C.2     1  S051        0.3109
     12  O22        5.6360    0.9070   15.3930 O.2     1  S051       -0.2520
     13  N23        6.9830   -0.3320   14.1650 N.am    1  S051       -0.2638
     14  C24        6.2350   -1.5440   13.6370 C.3     1  S051        0.0953
     15  C25        6.7730   -2.9190   14.0910 C.3     1  S051        0.0276
     16  C26        8.2220   -2.8960   14.6180 C.3     1  S051        0.0449
     17  C27        9.0750   -1.7310   14.0700 C.3     1  S051        0.0276
     18  C28        8.4710   -0.3390   14.3730 C.3     1  S051        0.0953
     19  C38        8.2540   -2.8690   16.1410 C.2     1  S051        0.0744
     20  N39        9.1810   -3.4950   16.8540 N.2     1  S051       -0.2471
     21  C40        8.8940   -3.2370   18.1290 C.3     1  S051        0.2505
     22  N41        7.8060   -2.4590   18.1810 N.2     1  S051       -0.2415
     23  C42        7.4030   -2.2230   16.9360 C.2     1  S051        0.1097
@<TRIPOS>BOND
     1     9     8   ar
     2     9    10   ar
     3     8     7   ar
     4    10     1   ar
     5     7     6   ar
     6     1     6   ar
     7     1     2    1
     8     6     5    1
     9     2     3    1
    10     5     4    1
    11     5    11   am
    12     3     4    1
    13    14    15    1
    14    14    13    1
    15    17    18    1
    16    17    16    1
    17    15    16    1
    18    13    11   am
    19    13    18    1
    20    11    12    2
    21    16    19    1
    22    19    20    2
    23    19    23    1
    24    20    21    1
    25    23    22    2
    26    21    22    1
