@<TRIPOS>MOLECULE
3qqq_HEM_A_1.pdb
 43 50 0 0 0
SMALL
GASTEIGER

@<TRIPOS>ATOM
      1  CHA       11.9330    9.5850   47.9230 C.2   163  HEM163      0.0000
      2  CHB       13.1250    6.7130   44.1780 C.2   163  HEM163      0.0000
      3  CHC       11.0590   10.0230   41.2480 C.2   163  HEM163      0.0000
      4  CHD       11.1660   13.2900   44.8130 C.2   163  HEM163      0.0000
      5  C1A       12.4180    8.5170   47.1940 C.ar  163  HEM163      0.0000
      6  C2A       13.0000    7.3020   47.7400 C.ar  163  HEM163      0.0000
      7  C3A       13.3290    6.4990   46.7120 C.ar  163  HEM163      0.0000
      8  C4A       12.9680    7.1760   45.4750 C.ar  163  HEM163      0.0000
      9  CMA       13.9730    5.0940   46.8050 C.3   163  HEM163      0.0000
     10  CAA       13.1690    7.0150   49.2560 C.3   163  HEM163      0.0000
     11  CBA       14.5920    7.2960   49.7340 C.3   163  HEM163      0.0000
     12  CGA       14.6140    7.4880   51.2350 C.2   163  HEM163      0.0000
     13  O1A       13.5740    7.1950   51.8910 O.co2 163  HEM163      0.0000
     14  O2A       15.6630    7.9350   51.7830 O.co2 163  HEM163      0.0000
     15  C1B       12.5700    7.3100   43.0540 C.2   163  HEM163      0.0000
     16  C2B       12.3850    6.7180   41.7390 C.2   163  HEM163      0.0000
     17  C3B       11.8150    7.6420   40.9350 C.2   163  HEM163      0.0000
     18  C4B       11.6150    8.8450   41.7170 C.2   163  HEM163      0.0000
     19  CMB       12.7880    5.2820   41.3460 C.3   163  HEM163      0.0000
     20  CAB       11.4050    7.5330   39.4420 C.2   163  HEM163      0.0000
     21  CBB       11.9750    6.7090   38.5600 C.2   163  HEM163      0.0000
     22  C1C       10.9950   11.2310   41.9130 C.ar  163  HEM163      0.0000
     23  C2C       10.6820   12.5300   41.3450 C.ar  163  HEM163      0.0000
     24  C3C       10.7150   13.4470   42.3270 C.ar  163  HEM163      0.0000
     25  C4C       11.0430   12.7440   43.5560 C.ar  163  HEM163      0.0000
     26  CMC       10.3640   12.7610   39.8570 C.3   163  HEM163      0.0000
     27  CAC       10.4450   14.9720   42.2190 C.2   163  HEM163      0.0000
     28  CBC       11.2300   15.7870   41.5050 C.2   163  HEM163      0.0000
     29  C1D       11.2280   12.5840   45.9970 C.2   163  HEM163      0.0000
     30  C2D       10.9200   13.1040   47.3160 C.2   163  HEM163      0.0000
     31  C3D       11.1590   11.9390   48.2800 C.2   163  HEM163      0.0000
     32  C4D       11.5910   10.8350   47.4520 C.2   163  HEM163      0.0000
     33  CMD       10.4440   14.5260   47.6710 C.3   163  HEM163      0.0000
     34  CAD       10.9800   11.9370   49.8140 C.3   163  HEM163      0.0000
     35  CBD       12.2910   12.3730   50.4690 C.3   163  HEM163      0.0000
     36  CGD       12.1360   12.4570   51.9710 C.2   163  HEM163      0.0000
     37  O1D       12.8800   11.7330   52.6810 O.co2 163  HEM163      0.0000
     38  O2D       11.2750   13.2400   52.4640 O.co2 163  HEM163      0.0000
     39  NA        12.4210    8.4010   45.8170 N.ar  163  HEM163      0.0000
     40  NB        12.0860    8.6100   43.0020 N.2   163  HEM163      0.0000
     41  NC        11.2090   11.4100   43.2610 N.ar  163  HEM163      0.0000
     42  ND        11.6130   11.2490   46.1190 N.2   163  HEM163      0.0000
     43 FE         11.8290    9.9170   44.5250 Fe    163  HEM163      0.0000
@<TRIPOS>BOND
     1    21    20    2
     2    20    17    1
     3    26    23    1
     4    17    18    1
     5    17    16    2
     6     3    18    2
     7     3    22    1
     8    23    22   ar
     9    23    24   ar
    10    19    16    1
    11    28    27    2
    12    18    40    1
    13    16    15    1
    14    22    41   ar
    15    27    24    1
    16    24    25   ar
    17    40    15    2
    18    40    43    1
    19    15     2    1
    20    41    25   ar
    21    41    43    1
    22    25     4    1
    23     2     8    2
    24    43    39    1
    25    43    42    1
    26     4    29    2
    27     8    39   ar
    28     8     7   ar
    29    39     5   ar
    30    29    42    1
    31    29    30    1
    32    42    32    2
    33     7     9    1
    34     7     6   ar
    35     5     6   ar
    36     5     1    2
    37    30    33    1
    38    30    31    2
    39    32     1    1
    40    32    31    1
    41     6    10    1
    42    31    34    1
    43    10    11    1
    44    11    12    1
    45    34    35    1
    46    35    36    1
    47    12    14   ar
    48    12    13   ar
    49    36    38   ar
    50    36    37   ar
