@<TRIPOS>MOLECULE
3qqr_HEM_A_1.pdb
 43 50 0 0 0
SMALL
GASTEIGER

@<TRIPOS>ATOM
      1  CHA       11.7190  -26.5970    2.9520 C.2   163  HEM163      0.0000
      2  CHB       12.2120  -29.5720   -0.8240 C.2   163  HEM163      0.0000
      3  CHC       10.6450  -25.8550   -3.5460 C.2   163  HEM163      0.0000
      4  CHD       10.9730  -22.6910    0.1090 C.2   163  HEM163      0.0000
      5  C1A       11.9880  -27.7340    2.2020 C.ar  163  HEM163      0.0000
      6  C2A       12.4160  -29.0510    2.6910 C.ar  163  HEM163      0.0000
      7  C3A       12.5560  -29.8700    1.6390 C.ar  163  HEM163      0.0000
      8  C4A       12.2190  -29.1080    0.4640 C.ar  163  HEM163      0.0000
      9  CMA       12.9830  -31.3640    1.6370 C.3   163  HEM163      0.0000
     10  CAA       12.6690  -29.4570    4.1620 C.3   163  HEM163      0.0000
     11  CBA       11.8980  -28.5150    5.0840 C.3   163  HEM163      0.0000
     12  CGA       11.2590  -29.1910    6.2730 C.2   163  HEM163      0.0000
     13  O1A       10.8440  -30.3990    6.1990 O.co2 163  HEM163      0.0000
     14  O2A       11.1730  -28.4690    7.3110 O.co2 163  HEM163      0.0000
     15  C1B       11.8210  -28.8200   -1.9000 C.2   163  HEM163      0.0000
     16  C2B       11.8140  -29.2730   -3.2760 C.2   163  HEM163      0.0000
     17  C3B       11.3780  -28.2450   -4.0350 C.2   163  HEM163      0.0000
     18  C4B       11.0990  -27.1080   -3.1600 C.2   163  HEM163      0.0000
     19  CMB       12.2510  -30.7070   -3.6910 C.3   163  HEM163      0.0000
     20  CAB       11.1950  -28.2100   -5.5660 C.2   163  HEM163      0.0000
     21  CBB       11.4230  -29.2780   -6.3420 C.2   163  HEM163      0.0000
     22  C1C       10.6400  -24.6730   -2.8290 C.ar  163  HEM163      0.0000
     23  C2C       10.3220  -23.3370   -3.3200 C.ar  163  HEM163      0.0000
     24  C3C       10.4150  -22.4570   -2.3160 C.ar  163  HEM163      0.0000
     25  C4C       10.7920  -23.2080   -1.1430 C.ar  163  HEM163      0.0000
     26  CMC        9.9400  -22.9880   -4.7650 C.3   163  HEM163      0.0000
     27  CAC       10.1810  -20.9280   -2.3590 C.2   163  HEM163      0.0000
     28  CBC       11.0490  -20.1590   -3.0280 C.2   163  HEM163      0.0000
     29  C1D       11.0800  -23.4570    1.2450 C.2   163  HEM163      0.0000
     30  C2D       10.9120  -22.9740    2.5870 C.2   163  HEM163      0.0000
     31  C3D       11.1380  -24.1980    3.4750 C.2   163  HEM163      0.0000
     32  C4D       11.4260  -25.3000    2.5760 C.2   163  HEM163      0.0000
     33  CMD       10.5600  -21.5370    3.0320 C.3   163  HEM163      0.0000
     34  CAD       11.0740  -24.1970    5.0070 C.3   163  HEM163      0.0000
     35  CBD       12.4470  -23.8010    5.5530 C.3   163  HEM163      0.0000
     36  CGD       12.4130  -23.7330    7.0770 C.2   163  HEM163      0.0000
     37  O1D       13.4610  -24.0320    7.7300 O.co2 163  HEM163      0.0000
     38  O2D       11.3420  -23.3670    7.6550 O.co2 163  HEM163      0.0000
     39  NA        11.8850  -27.8270    0.8360 N.ar  163  HEM163      0.0000
     40  NB        11.3850  -27.5040   -1.8650 N.2   163  HEM163      0.0000
     41  NC        10.9170  -24.5430   -1.4840 N.ar  163  HEM163      0.0000
     42  ND        11.3790  -24.8080    1.2810 N.2   163  HEM163      0.0000
     43 FE         11.4030  -26.1690   -0.3290 Fe    163  HEM163      0.0000
@<TRIPOS>BOND
     1    21    20    2
     2    20    17    1
     3    26    23    1
     4    17    16    2
     5    17    18    1
     6    19    16    1
     7     3    18    2
     8     3    22    1
     9    23    22   ar
    10    23    24   ar
    11    16    15    1
    12    18    40    1
    13    28    27    2
    14    22    41   ar
    15    27    24    1
    16    24    25   ar
    17    15    40    2
    18    15     2    1
    19    40    43    1
    20    41    25   ar
    21    41    43    1
    22    25     4    1
    23     2     8    2
    24    43    39    1
    25    43    42    1
    26     4    29    2
    27     8    39   ar
    28     8     7   ar
    29    39     5   ar
    30    29    42    1
    31    29    30    1
    32    42    32    2
    33     9     7    1
    34     7     6   ar
    35     5     6   ar
    36     5     1    2
    37    32     1    1
    38    32    31    1
    39    30    33    1
    40    30    31    2
    41     6    10    1
    42    31    34    1
    43    10    11    1
    44    34    35    1
    45    11    12    1
    46    35    36    1
    47    13    12   ar
    48    12    14   ar
    49    36    38   ar
    50    36    37   ar
