@<TRIPOS>MOLECULE
3qqs_17C_A_1.pdb
 19 20 0 0 0
SMALL
GASTEIGER

@<TRIPOS>ATOM
      1  OAA       30.7020   -4.7710   26.9290 O.co2 404  17C404     -0.2405
      2  OAB       26.9160   -7.3360   28.9720 O.co2 404  17C404     -0.2405
      3  OAC       31.5540   -5.2870   24.9710 O.co2 404  17C404     -0.2405
      4  OAD       28.3070   -5.8560   28.1030 O.co2 404  17C404     -0.2405
      5  CAE       34.0030   -8.3060   28.0840 C.ar  404  17C404      0.0013
      6  CAF       30.5960   -7.5280   32.2850 C.ar  404  17C404      0.0013
      7  CAG       34.3210   -7.8160   26.8240 C.ar  404  17C404      0.0003
      8  CAH       29.2120   -7.6090   32.4320 C.ar  404  17C404      0.0003
      9  CAI       32.8480   -7.8860   28.7450 C.ar  404  17C404      0.0167
     10  CAJ       31.1470   -7.1650   31.0600 C.ar  404  17C404      0.0167
     11  CAK       33.4800   -6.8850   26.2210 C.ar  404  17C404      0.0079
     12  CAL       28.3990   -7.3340   31.3410 C.ar  404  17C404      0.0079
     13  NAM       30.8630   -6.5200   28.7580 N.pl3 404  17C404     -0.2120
     14  CAN       31.4480   -5.4470   26.2010 C.2   404  17C404      0.3890
     15  CAO       27.9900   -6.6880   28.9760 C.2   404  17C404      0.3890
     16  CAP       31.9930   -6.9590   28.1520 C.ar  404  17C404      0.0768
     17  CAQ       30.3420   -6.8890   29.9530 C.ar  404  17C404      0.0768
     18  CAR       32.3270   -6.4740   26.8790 C.ar  404  17C404      0.0950
     19  CAS       28.9540   -6.9630   30.1210 C.ar  404  17C404      0.0950
@<TRIPOS>BOND
     1     3    14   ar
     2    14    18    1
     3    14     1   ar
     4    11     7   ar
     5    11    18   ar
     6     7     5   ar
     7    18    16   ar
     8     5     9   ar
     9     4    15   ar
    10    16     9   ar
    11    16    13    1
    12    13    17    1
    13     2    15   ar
    14    15    19    1
    15    17    19   ar
    16    17    10   ar
    17    19    12   ar
    18    10     6   ar
    19    12     8   ar
    20     6     8   ar
