@<TRIPOS>MOLECULE
3qqs_PRP_A_1.pdb
 22 22 0 0 0
SMALL
GASTEIGER

@<TRIPOS>ATOM
      1  C1        25.1960    2.1290   31.9950 C.3   401  PRP401      0.2742
      2  C2        26.2270    2.1860   30.8430 C.3   401  PRP401      0.2408
      3  C3        25.3110    2.0510   29.6730 C.3   401  PRP401      0.2167
      4  C4        24.4070    3.1180   30.2330 C.3   401  PRP401      0.1808
      5  C5        23.2360    3.5290   29.4260 C.3   401  PRP401      0.1859
      6  O1        24.9500    3.3120   32.7440 O.3   401  PRP401     -0.2857
      7  O2        26.7890    3.5010   30.6900 O.3   401  PRP401     -0.2149
      8  O3        25.9730    2.4850   28.4960 O.3   401  PRP401     -0.2175
      9  O4        23.9770    2.2930   31.3010 O.3   401  PRP401     -0.3255
     10  O5        22.7050    2.3470   29.0000 O.3   401  PRP401     -0.2675
     11  P         22.2480    2.1680   27.5180 P.3   401  PRP401      0.5327
     12  O1P       21.9730    0.5720   27.4080 O.3   401  PRP401     -0.1145
     13  O2P       20.7920    2.8260   27.3590 O.3   401  PRP401     -0.1145
     14  O3P       23.2470    2.6370   26.5350 O.2   401  PRP401     -0.2224
     15  PA        25.6930    3.6810   34.0840 P.3   401  PRP401      0.2249
     16  O1A       24.5970    3.7100   35.1910 O.3   401  PRP401     -0.4370
     17  O2A       26.7760    2.6650   34.2710 O.2   401  PRP401     -0.5169
     18  O3A       26.2000    5.1380   33.9330 O.3   401  PRP401     -0.2260
     19  PB        25.2720    6.4810   33.6520 P.3   401  PRP401      0.5373
     20  O1B       26.2420    7.5880   34.2810 O.3   401  PRP401     -0.1143
     21  O2B       25.2970    6.6000   32.0820 O.2   401  PRP401     -0.2221
     22  O3B       23.9240    6.4490   34.2230 O.3   401  PRP401     -0.1143
@<TRIPOS>BOND
     1    14    11    2
     2    13    11    1
     3    12    11    1
     4    11    10    1
     5     8     3    1
     6    10     5    1
     7     5     4    1
     8     3     4    1
     9     3     2    1
    10     4     9    1
    11     7     2    1
    12     2     1    1
    13     9     1    1
    14     1     6    1
    15    21    19    2
    16     6    15    1
    17    19    18    1
    18    19    22    1
    19    19    20    1
    20    18    15    1
    21    15    17    2
    22    15    16    1
