@<TRIPOS>MOLECULE
3qqt_SDS_B_1.pdb
 17 16 0 0 0
SMALL
GASTEIGER

@<TRIPOS>ATOM
      1  S        -19.9940   40.2080   11.4780 S.3    72  SDS72      -0.0001
      2  O1S      -19.2730   41.4610   11.3830 O.2    72  SDS72      -0.3452
      3  O2S      -20.4840   39.8880   10.1340 O.3    72  SDS72      -0.2412
      4  O3S      -19.1060   39.1400   11.9690 O.2    72  SDS72      -0.3452
      5  O4       -21.0910   40.3560   12.4010 O.3    72  SDS72      -0.2682
      6  C1       -20.4880   40.8850    9.1770 C.3    72  SDS72       0.1725
      7  C2       -21.7540   37.9590    3.1500 C.3    72  SDS72       0.0000
      8  C3       -22.2000   36.5480    3.3200 C.3    72  SDS72       0.0000
      9  C4       -22.7000   36.3410    4.7080 C.3    72  SDS72       0.0000
     10  C5       -22.3880   34.9470    5.1430 C.3    72  SDS72       0.0000
     11  C6       -20.9190   34.8050    5.3670 C.3    72  SDS72       0.0000
     12  C7       -20.6150   34.6630    6.8210 C.3    72  SDS72       0.0000
     13  C8       -20.9810   35.8910    7.5970 C.3    72  SDS72       0.0000
     14  C9       -20.2960   37.0880    7.0350 C.3    72  SDS72       0.0000
     15  C10      -20.4030   38.2530    7.9650 C.3    72  SDS72       0.0001
     16  C11      -20.1020   39.5050    7.2070 C.3    72  SDS72       0.0027
     17  C12      -19.5200   40.5480    8.0970 C.3    72  SDS72       0.0346
@<TRIPOS>BOND
     1     7     8    1
     2     8     9    1
     3     9    10    1
     4    10    11    1
     5    11    12    1
     6    12    13    1
     7    14    13    1
     8    14    15    1
     9    16    15    1
    10    16    17    1
    11    17     6    1
    12     6     3    1
    13     3     1    1
    14     2     1    2
    15     1     4    2
    16     1     5    1
