@<TRIPOS>MOLECULE
3qqu_01P_A_1.pdb
 32 36 0 0 0
SMALL
GASTEIGER

@<TRIPOS>ATOM
      1  C1       -10.8970    0.4580   -0.1090 C.2     1  01P1        0.0720
      2  N1       -12.0770   -7.0030   -4.9250 N.pl3   1  01P1       -0.3004
      3  O1       -12.3850   -9.7470   -4.7760 O.3     1  01P1       -0.3501
      4  C2       -11.0240   -9.2930   -4.8170 C.3     1  01P1        0.1636
      5  N2       -10.8840   -1.6950    0.9790 N.pl3   1  01P1       -0.1812
      6  O2       -10.1160   -6.0660   -3.0510 O.3     1  01P1       -0.4701
      7  C3       -10.8440   -7.7950   -5.0610 C.3     1  01P1        0.1231
      8  N3       -10.1440   -4.8490    2.5880 N.ar    1  01P1       -0.2425
      9  C4       -11.4550   -0.8790   -2.4930 C.1     1  01P1        0.1709
     10  N4       -11.3450    0.4690   -2.4230 N.2     1  01P1       -0.1683
     11  C5       -13.3580   -7.6820   -5.1880 C.3     1  01P1        0.1231
     12  N5       -11.2910   -1.5730   -1.3760 N.2     1  01P1       -0.3189
     13  C6       -13.1970   -9.1000   -5.7170 C.3     1  01P1        0.1636
     14  N6       -11.7160   -1.5240   -3.6850 N.pl3   1  01P1       -0.1356
     15  C7       -12.1830   -6.4200   -0.2960 C.ar    1  01P1        0.0015
     16  C8       -12.0310   -7.8500    0.0270 C.ar    1  01P1        0.0001
     17  C9       -11.2670   -8.2940    1.1980 C.ar    1  01P1        0.0015
     18  C10      -10.6540   -7.2940    2.0570 C.ar    1  01P1        0.0191
     19  C11      -12.8030   -3.3480   -4.8760 C.ar    1  01P1        0.0188
     20  C12      -11.7920   -2.8770   -3.9570 C.ar    1  01P1        0.0857
     21  C13      -10.8890   -3.7970   -3.3570 C.ar    1  01P1        0.0555
     22  C14      -10.9920   -5.1790   -3.6680 C.ar    1  01P1        0.1532
     23  C15      -12.0040   -5.6550   -4.5920 C.ar    1  01P1        0.0825
     24  C16      -12.9320   -4.7390   -5.2120 C.ar    1  01P1        0.0190
     25  C17       -8.7650   -5.6890   -2.6990 C.3     1  01P1        0.2525
     26  C18      -10.9010   -3.0590    1.2020 C.ar    1  01P1        0.0922
     27  C19      -11.5700   -4.0450    0.3540 C.ar    1  01P1        0.0197
     28  C20      -11.5570   -5.4330    0.5670 C.ar    1  01P1        0.0190
     29  C21      -10.7700   -5.8500    1.7840 C.ar    1  01P1        0.0814
     30  C22      -10.1740   -3.5090    2.3560 C.ar    1  01P1        0.1153
     31  C23      -11.0780    1.1590   -1.3060 C.2     1  01P1        0.1158
     32  C24      -11.0190   -0.9590   -0.1910 C.2     1  01P1        0.2178
@<TRIPOS>BOND
     1    13    11    1
     2    13     3    1
     3    24    19   ar
     4    24    23   ar
     5    11     2    1
     6     7     2    1
     7     7     4    1
     8     2    23    1
     9    19    20   ar
    10     4     3    1
    11    23    22   ar
    12    20    14    1
    13    20    21   ar
    14    14     9    1
    15    22    21   ar
    16    22     6    1
    17     6    25    1
    18     9    10    2
    19     9    12    2
    20    10    31    1
    21    12    32    2
    22    31     1    2
    23    15    16   ar
    24    15    28   ar
    25    32     1    1
    26    32     5    1
    27    16    17   ar
    28    27    28   ar
    29    27    26   ar
    30    28    29   ar
    31     5    26    1
    32    17    18   ar
    33    26    30   ar
    34    29    18   ar
    35    29     8   ar
    36    30     8   ar
