@<TRIPOS>MOLECULE
3qqv_IPE_A_1.pdb
 14 13 0 0 0
SMALL
GASTEIGER

@<TRIPOS>ATOM
      1  C1       -55.9770   13.1940    2.4430 C.3   383  IPE383      0.1747
      2  O1       -57.1530   13.5460    3.1470 O.3   383  IPE383     -0.3089
      3  C2       -55.2980   14.4490    2.0280 C.2   383  IPE383     -0.0024
      4  C3       -55.6360   15.0870    0.9310 C.2   383  IPE383     -0.0454
      5  C4       -56.7130   14.5830    0.0590 C.3   383  IPE383      0.0261
      6  C5       -54.9280   16.3510    0.5950 C.3   383  IPE383      0.0261
      7  PA       -57.3220   13.3730    4.6920 P.3   383  IPE383      0.2233
      8  O1A      -58.7550   13.4690    4.9350 O.2   383  IPE383     -0.5169
      9  O2A      -56.4260   14.3910    5.2270 O.3   383  IPE383     -0.4370
     10  O3A      -56.7700   11.9120    5.0600 O.3   383  IPE383     -0.2261
     11  PB       -57.1910   10.9490    6.2390 P.3   383  IPE383      0.5373
     12  O1B      -55.9140   10.4460    6.7090 O.3   383  IPE383     -0.1143
     13  O2B      -58.0230    9.9050    5.6300 O.2   383  IPE383     -0.2221
     14  O3B      -57.9730   11.7280    7.1960 O.3   383  IPE383     -0.1143
@<TRIPOS>BOND
     1     5     4    1
     2     6     4    1
     3     4     3    2
     4     3     1    1
     5     1     2    1
     6     2     7    1
     7     7     8    2
     8     7    10    1
     9     7     9    1
    10    10    11    1
    11    13    11    2
    12    11    12    1
    13    11    14    1
