@<TRIPOS>MOLECULE
3qra_C8E_A_1.pdb
 17 16 0 0 0
SMALL
GASTEIGER

@<TRIPOS>ATOM
      1  C1        19.3140    9.7740   24.0220 C.3     1  C8E1        0.0000
      2  C2        18.6060    8.8010   23.0860 C.3     1  C8E1        0.0000
      3  C3        18.3870    9.4170   21.7080 C.3     1  C8E1        0.0000
      4  C4        18.8870    8.5010   20.5970 C.3     1  C8E1        0.0000
      5  C5        19.9230    9.2030   19.7200 C.3     1  C8E1        0.0001
      6  C6        19.3030    9.5500   18.3720 C.3     1  C8E1        0.0026
      7  C7        20.0400   10.6970   17.6880 C.3     1  C8E1        0.0321
      8  C8        19.1070   11.4800   16.7700 C.3     1  C8E1        0.1423
      9  O9        19.2740   12.8540   17.0450 O.3     1  C8E1       -0.3511
     10  C10       18.5550   13.7080   16.1820 C.3     1  C8E1        0.1741
     11  C11       17.8370   14.7060   17.0770 C.3     1  C8E1        0.1742
     12  O12       17.1930   15.6850   16.2950 O.3     1  C8E1       -0.3484
     13  C13       16.2190   15.1170   15.4700 C.3     1  C8E1        0.1742
     14  C14       15.9970   15.9870   14.2490 C.3     1  C8E1        0.1741
     15  O15       14.8060   15.5540   13.6280 O.3     1  C8E1       -0.3511
     16  C16       15.0200   14.4440   12.7810 C.3     1  C8E1        0.1424
     17  C17       15.9960   14.8010   11.6690 C.3     1  C8E1        0.0346
@<TRIPOS>BOND
     1    17    16    1
     2    16    15    1
     3    15    14    1
     4    14    13    1
     5    13    12    1
     6    10     9    1
     7    10    11    1
     8    12    11    1
     9     8     9    1
    10     8     7    1
    11     7     6    1
    12     6     5    1
    13     5     4    1
    14     4     3    1
    15     3     2    1
    16     2     1    1
