@<TRIPOS>MOLECULE
3qrc_C8E_A_2.pdb
 21 20 0 0 0
SMALL
GASTEIGER

@<TRIPOS>ATOM
      1  C1        33.3710    3.7530    4.0750 C.3   184  C8E184      0.0000
      2  C2        34.2330    3.7260    5.3270 C.3   184  C8E184      0.0000
      3  C3        35.4200    4.6750    5.2150 C.3   184  C8E184      0.0000
      4  C4        36.3440    4.4970    6.4100 C.3   184  C8E184      0.0000
      5  C5        37.7500    5.0650    6.2070 C.3   184  C8E184      0.0001
      6  C6        38.5720    4.7820    7.4620 C.3   184  C8E184      0.0026
      7  C7        40.0640    5.0710    7.3510 C.3   184  C8E184      0.0321
      8  C8        40.7550    4.3390    8.4960 C.3   184  C8E184      0.1423
      9  O9        41.4280    5.1930    9.3980 O.3   184  C8E184     -0.3511
     10  C10       41.6020    6.4980    8.9110 C.3   184  C8E184      0.1741
     11  C11       41.6140    7.4870   10.0720 C.3   184  C8E184      0.1742
     12  O12       41.8520    8.7900    9.5810 O.3   184  C8E184     -0.3484
     13  C13       41.4800    8.9330    8.2230 C.3   184  C8E184      0.1742
     14  C14       40.4350   10.0340    8.0760 C.3   184  C8E184      0.1742
     15  O15       39.6540    9.7800    6.9240 O.3   184  C8E184     -0.3484
     16  C16       38.3250   10.2580    7.0340 C.3   184  C8E184      0.1742
     17  C17       37.3290    9.0970    6.9680 C.3   184  C8E184      0.1742
     18  O18       36.2380    9.3480    7.8330 O.3   184  C8E184     -0.3483
     19  C19       35.3340   10.3130    7.3380 C.3   184  C8E184      0.1777
     20  C20       34.2690   10.6220    8.3850 C.3   184  C8E184      0.2140
     21  O21       33.9680   12.0050    8.3700 O.3   184  C8E184     -0.2176
@<TRIPOS>BOND
     1     1     2    1
     2     3     2    1
     3     3     4    1
     4     5     4    1
     5     5     6    1
     6    15    16    1
     7    15    14    1
     8    17    16    1
     9    17    18    1
    10    19    18    1
    11    19    20    1
    12     7     6    1
    13     7     8    1
    14    14    13    1
    15    13    12    1
    16    21    20    1
    17     8     9    1
    18    10     9    1
    19    10    11    1
    20    12    11    1
