@<TRIPOS>MOLECULE
3qri_919_A_1.pdb
 41 45 0 0 0
SMALL
GASTEIGER

@<TRIPOS>ATOM
      1  C1        26.5400    7.9350   28.7590 C.ar  500  919500      0.0843
      2  C2        26.9920    6.6310   28.5320 C.ar  500  919500      0.0207
      3  C3        27.1300    5.6850   29.5410 C.ar  500  919500      0.0202
      4  C4        26.8920    6.0360   30.8630 C.ar  500  919500      0.0758
      5  C5        26.3500    7.2820   31.1250 C.ar  500  919500      0.0145
      6  C6        26.2240    8.2250   30.0900 C.ar  500  919500      0.0204
      7  C9        26.5480    5.3600   33.0870 C.3   500  919500      0.1301
      8  N10       26.9800    5.1040   31.8390 N.2   500  919500     -0.2701
      9  C13       26.0300    7.6110   32.4420 C.2   500  919500     -0.0225
     10  C14       26.2700    6.6790   33.4480 C.3   500  919500      0.0523
     11  C22       29.0890   20.1520   30.3000 C.ar  500  919500      0.1021
     12  N23       28.6330   21.0580   31.1800 N.ar  500  919500     -0.2390
     13  C24       28.3310   20.7220   32.4460 C.ar  500  919500      0.1392
     14  C25       28.5310   19.4100   32.8760 C.ar  500  919500      0.0613
     15  C26       29.0080   18.4590   31.9850 C.ar  500  919500      0.1485
     16  C27       29.2920   18.8320   30.6840 C.ar  500  919500      0.0582
     17  C34       27.6220   14.5020   30.4660 C.ar  500  919500      0.0221
     18  C35       27.8550   15.7500   31.0450 C.ar  500  919500      0.0390
     19  C36       28.9910   15.9850   31.8080 C.ar  500  919500      0.1476
     20  C37       29.9050   14.9540   31.9970 C.ar  500  919500      0.0684
     21  C38       29.6810   13.7170   31.4130 C.ar  500  919500      0.1584
     22  C39       28.5530   13.4710   30.6310 C.ar  500  919500      0.1025
     23  C46       25.5050    9.5670   25.9910 C.ar  500  919500      0.0811
     24  C47       26.0910   10.6450   26.6250 C.ar  500  919500      0.0527
     25  C48       26.7810   10.1020   27.6990 C.ar  500  919500      0.1587
     26  N49       26.4570    8.7880   27.7170 N.ar  500  919500     -0.2145
     27  N50       25.6590    8.4110   26.6400 N.ar  500  919500     -0.1683
     28  N56       27.5220   10.6070   28.7330 N.am  500  919500     -0.1418
     29  C58       27.6000   11.9190   29.0400 C.2   500  919500      0.3491
     30  N60       28.3470   12.2220   30.1160 N.am  500  919500     -0.1584
     31  O63       27.0330   12.7870   28.3770 O.2   500  919500     -0.2484
     32  O65       29.2240   17.1830   32.4340 O.3   500  919500     -0.4533
     33  F68       30.5930   12.7680   31.6170 F     500  919500     -0.2027
     34  C70       27.8100   21.7820   33.3890 C.2   500  919500      0.2827
     35  O72       27.4140   21.4530   34.4960 O.2   500  919500     -0.2667
     36  N74       27.8050   23.0510   32.9930 N.am  500  919500     -0.1985
     37  C76       27.5850   24.1310   33.9340 C.3   500  919500      0.1389
     38  C79       24.4900    9.7050   24.8860 C.3   500  919500      0.0372
     39  C81       25.2690    9.5690   23.5810 C.3   500  919500      0.0060
     40  C83       23.7790   11.0620   24.9430 C.3   500  919500      0.0060
     41  C85       23.4640    8.5790   24.9890 C.3   500  919500      0.0060
@<TRIPOS>BOND
     1    39    38    1
     2    38    40    1
     3    38    41    1
     4    38    23    1
     5    23    24   ar
     6    23    27   ar
     7    24    25   ar
     8    27    26   ar
     9    25    26   ar
    10    25    28    1
    11    26     1    1
    12    31    29    2
    13     2     1   ar
    14     2     3   ar
    15    28    29   am
    16     1     6   ar
    17    29    30   am
    18     3     4   ar
    19     6     5   ar
    20    30    22    1
    21    11    16   ar
    22    11    12   ar
    23    17    22   ar
    24    17    18   ar
    25    22    21   ar
    26    16    15   ar
    27     4     5   ar
    28     4     8    2
    29    18    19   ar
    30     5     9    2
    31    12    13   ar
    32    21    33    1
    33    21    20   ar
    34    19    20   ar
    35    19    32    1
    36     8     7    1
    37    15    32    1
    38    15    14   ar
    39     9    10    1
    40    13    14   ar
    41    13    34    1
    42    36    34   am
    43    36    37    1
    44     7    10    1
    45    34    35    2
