@<TRIPOS>MOLECULE
3qrj_919_A_1.pdb
 41 45 0 0 0
SMALL
GASTEIGER

@<TRIPOS>ATOM
      1  C1         5.4690   -7.3460   27.0400 C.ar    2  9192        0.0843
      2  C2         4.9360   -6.0800   26.7090 C.ar    2  9192        0.0207
      3  C3         4.6860   -5.0810   27.6660 C.ar    2  9192        0.0206
      4  C4         4.9600   -5.3190   29.0050 C.ar    2  9192        0.0814
      5  C5         5.4910   -6.5580   29.3750 C.ar    2  9192        0.0192
      6  C6         5.7320   -7.5240   28.4090 C.ar    2  9192        0.0207
      7  C9         5.0050   -4.6220   31.2460 C.ar    2  9192        0.0988
      8  N10        4.7450   -4.3740   29.9440 N.ar    2  9192       -0.2438
      9  C13        5.7850   -6.8370   30.7080 C.ar    2  9192        0.0031
     10  C14        5.5390   -5.8460   31.6560 C.ar    2  9192        0.0207
     11  C22        2.8770  -19.7360   28.7390 C.ar    2  9192        0.1021
     12  N23        3.4360  -20.7000   29.5090 N.ar    2  9192       -0.2390
     13  C24        3.9380  -20.3760   30.7400 C.ar    2  9192        0.1392
     14  C25        3.8410  -19.0690   31.2310 C.ar    2  9192        0.0613
     15  C26        3.2610  -18.0690   30.4510 C.ar    2  9192        0.1485
     16  C27        2.7630  -18.4280   29.2060 C.ar    2  9192        0.0582
     17  C34        4.3690  -14.3040   28.5680 C.ar    2  9192        0.0221
     18  C35        4.2140  -15.5140   29.2210 C.ar    2  9192        0.0390
     19  C36        3.3330  -15.6180   30.2950 C.ar    2  9192        0.1476
     20  C37        2.6190  -14.5080   30.6880 C.ar    2  9192        0.0684
     21  C38        2.7920  -13.2940   30.0380 C.ar    2  9192        0.1584
     22  C39        3.6740  -13.1610   28.9860 C.ar    2  9192        0.1025
     23  C46        6.4270   -9.2380   24.3250 C.ar    2  9192        0.0811
     24  C47        5.8040  -10.2410   25.0040 C.ar    2  9192        0.0527
     25  C48        5.4000   -9.6530   26.2090 C.ar    2  9192        0.1587
     26  N49        5.6990   -8.3290   26.1210 N.ar    2  9192       -0.2145
     27  N50        6.3590   -8.0120   24.9090 N.ar    2  9192       -0.1683
     28  N56        4.7230  -10.1840   27.2680 N.am    2  9192       -0.1418
     29  C58        4.6980  -11.5070   27.5410 C.2     2  9192        0.3491
     30  N60        3.7730  -11.9090   28.4380 N.am    2  9192       -0.1584
     31  O63        5.4580  -12.2850   26.9640 O.2     2  9192       -0.2484
     32  O65        3.1430  -16.7870   30.9700 O.3     2  9192       -0.4533
     33  F68        2.1010  -12.2120   30.4320 F       2  9192       -0.2027
     34  C70        4.6000  -21.4230   31.5840 C.2     2  9192        0.2827
     35  O72        5.3880  -21.0560   32.4670 O.2     2  9192       -0.2667
     36  N74        4.2490  -22.6860   31.3570 N.am    2  9192       -0.1985
     37  C76        4.5330  -23.7820   32.2710 C.3     2  9192        0.1389
     38  C79        7.0110   -9.4650   22.9390 C.3     2  9192        0.0372
     39  C81        6.0210  -10.1310   22.0050 C.3     2  9192        0.0060
     40  C83        8.2040  -10.4110   23.0150 C.3     2  9192        0.0060
     41  C85        7.1980   -8.1070   22.3070 C.3     2  9192        0.0060
@<TRIPOS>BOND
     1    39    38    1
     2    41    38    1
     3    38    40    1
     4    38    23    1
     5    23    27   ar
     6    23    24   ar
     7    27    26   ar
     8    24    25   ar
     9    26    25   ar
    10    26     1    1
    11    25    28    1
    12     2     1   ar
    13     2     3   ar
    14    31    29    2
    15     1     6   ar
    16    28    29   am
    17    29    30   am
    18     3     4   ar
    19     6     5   ar
    20    30    22    1
    21    17    22   ar
    22    17    18   ar
    23    11    16   ar
    24    11    12   ar
    25    22    21   ar
    26     4     5   ar
    27     4     8   ar
    28    16    15   ar
    29    18    19   ar
    30     5     9   ar
    31    12    13   ar
    32     8     7   ar
    33    21    33    1
    34    21    20   ar
    35    19    20   ar
    36    19    32    1
    37    15    32    1
    38    15    14   ar
    39     9    10   ar
    40    13    14   ar
    41    13    34    1
    42     7    10   ar
    43    36    34   am
    44    36    37    1
    45    34    35    2
