@<TRIPOS>MOLECULE
3qrk_9DP_A_1.pdb
 34 37 0 0 0
SMALL
GASTEIGER

@<TRIPOS>ATOM
      1  C1        14.9470   19.0200   10.0590 C.ar    1  9DP1        0.0695
      2  N1        17.7130   21.3490   10.7340 N.am    1  9DP1       -0.1598
      3  O1        17.1350   23.2510   11.7860 O.2     1  9DP1       -0.2484
      4 CL1        14.6680   17.2210   10.1100 Cl      1  9DP1       -0.0813
      5  C2        16.1680   19.5970   10.3900 C.ar    1  9DP1        0.0835
      6  N2        19.2890   22.6580   11.7670 N.am    1  9DP1       -0.1418
      7  O2        25.4680   23.0550    5.9730 O.co2   1  9DP1       -0.2441
      8 CL2        17.4920   18.5770   10.9160 Cl      1  9DP1       -0.0800
      9  C3        13.9350   19.8900    9.6660 C.ar    1  9DP1        0.0123
     10  N3        21.1730   25.2170   13.3410 N.ar    1  9DP1       -0.1683
     11  O3        23.5810   22.2420    5.2240 O.co2   1  9DP1       -0.2441
     12  C4        14.1880   21.2720    9.6200 C.ar    1  9DP1        0.0023
     13  N4        20.9340   24.1130   12.5100 N.ar    1  9DP1       -0.2145
     14  C5        15.4290   21.8190    9.9590 C.ar    1  9DP1        0.0176
     15  N5        25.3330   22.3630    8.3570 N.3     1  9DP1       -0.2032
     16  C6        16.4540   20.9600   10.3540 C.ar    1  9DP1        0.0863
     17  C7        18.0070   22.4460   11.4540 C.2     1  9DP1        0.3491
     18  C8        19.6480   23.7270   12.4920 C.ar    1  9DP1        0.1587
     19  C9        18.9570   24.5630   13.3760 C.ar    1  9DP1        0.0527
     20  C10       19.9350   25.4480   13.8450 C.ar    1  9DP1        0.0811
     21  C11       19.6340   26.5720   14.8150 C.3     1  9DP1        0.0372
     22  C12       19.2420   25.9950   16.1710 C.3     1  9DP1        0.0060
     23  C13       18.5110   27.4320   14.2460 C.3     1  9DP1        0.0060
     24  C14       20.8250   27.4900   15.0040 C.3     1  9DP1        0.0060
     25  C15       23.1560   23.3090   12.4830 C.ar    1  9DP1        0.0189
     26  C16       21.9680   23.6200   11.8240 C.ar    1  9DP1        0.0839
     27  C17       21.9810   23.4440   10.4340 C.ar    1  9DP1        0.0147
     28  C18       24.2650   22.8560   11.8090 C.ar    1  9DP1       -0.0016
     29  C19       24.2290   22.6790   10.4430 C.ar    1  9DP1       -0.0086
     30  C20       23.0840   22.9830    9.7330 C.ar    1  9DP1       -0.0213
     31  C21       25.4720   22.1510    9.7820 C.3     1  9DP1        0.1153
     32  C22       24.1270   22.0680    7.6050 C.3     1  9DP1        0.1804
     33  C23       22.9550   22.8240    8.2280 C.3     1  9DP1        0.0550
     34  C24       24.3850   22.4700    6.1670 C.2     1  9DP1        0.3806
@<TRIPOS>BOND
     1    11    34   ar
     2     7    34   ar
     3    34    32    1
     4    32    33    1
     5    32    15    1
     6    33    30    1
     7    15    31    1
     8    12     9   ar
     9    12    14   ar
    10     9     1   ar
    11    30    27   ar
    12    30    29   ar
    13    31    29    1
    14    14    16   ar
    15     1     4    1
    16     1     5   ar
    17    16     5   ar
    18    16     2    1
    19     5     8    1
    20    27    26   ar
    21    29    28   ar
    22     2    17   am
    23    17     6   am
    24    17     3    2
    25     6    18    1
    26    28    25   ar
    27    26    25   ar
    28    26    13    1
    29    18    13   ar
    30    18    19   ar
    31    13    10   ar
    32    10    20   ar
    33    19    20   ar
    34    20    21    1
    35    23    21    1
    36    21    24    1
    37    21    22    1
