@<TRIPOS>MOLECULE
3qrm_NK7_A_1.pdb
 41 44 0 0 0
SMALL
GASTEIGER

@<TRIPOS>ATOM
      1  C1        17.0020   18.7330    5.6710 C.3   100  NK7100      0.1082
      2  C2        16.4150   20.1010    5.3810 C.3   100  NK7100      0.1146
      3  C3        15.0860   19.8470    4.6710 C.3   100  NK7100      0.1079
      4  N4        14.9900   18.4110    4.5260 N.3   100  NK7100     -0.2150
      5  C5        16.2060   17.7170    4.8710 C.3   100  NK7100      0.1075
      6  N6        16.7650   18.4830    7.0750 N.3   100  NK7100     -0.2118
      7  C7        17.6890   19.0420    8.0460 C.3   100  NK7100      0.1150
      8  C8        18.8230   18.0490    8.1510 C.ar  100  NK7100     -0.0048
      9  C9        18.5830   16.8250    8.7420 C.ar  100  NK7100     -0.0029
     10  C10       19.5960   15.8900    8.8340 C.ar  100  NK7100      0.0036
     11  C11       20.8440   16.1700    8.3280 C.ar  100  NK7100      0.0714
     12  C12       21.0890   17.3900    7.7260 C.ar  100  NK7100      0.0036
     13  C13       20.0800   18.3370    7.6380 C.ar  100  NK7100     -0.0029
     14  C14       20.0680   19.7950    4.0250 C.ar  100  NK7100     -0.0029
     15  C15       21.3010   19.1750    3.8600 C.ar  100  NK7100      0.0036
     16  C16       21.5210   18.2850    2.8190 C.ar  100  NK7100      0.0714
     17  C17       22.8250   17.6370    2.6300 C.3   100  NK7100      0.4186
     18  F18       23.7440   18.4470    2.8980 F     100  NK7100     -0.1659
     19  F19       22.9130   16.6340    3.3790 F     100  NK7100     -0.1659
     20  F20       22.9390   17.2560    1.3880 F     100  NK7100     -0.1659
     21  N21       17.2370   20.8750    4.4500 N.3   100  NK7100     -0.1496
     22  C22       17.6540   20.1650    3.2490 C.3   100  NK7100      0.1221
     23  C23       19.0290   19.5310    3.1480 C.ar  100  NK7100     -0.0045
     24  C24       20.4830   18.0320    1.9400 C.ar  100  NK7100      0.0036
     25  C25       19.2520   18.6480    2.1110 C.ar  100  NK7100     -0.0029
     26  C26       12.5690   24.9160    2.6390 C.2   100  NK7100      0.2842
     27  S27       17.4830   22.3650    4.6890 S.O2  100  NK7100      0.0636
     28  O28       18.6000   22.7950    3.9470 O.2   100  NK7100     -0.1528
     29  O29       17.6370   22.6100    6.0570 O.2   100  NK7100     -0.1528
     30  C30       16.1480   23.0810    4.1630 C.ar  100  NK7100      0.1222
     31  C31       15.9690   23.2720    2.8080 C.ar  100  NK7100      0.0201
     32  C32       14.8130   23.8700    2.3270 C.ar  100  NK7100      0.0060
     33  C34       13.9790   24.0730    4.5560 C.ar  100  NK7100      0.0060
     34  C35       15.1440   23.4750    5.0360 C.ar  100  NK7100      0.0201
     35  N36       11.8120   25.6920    3.3960 N.am  100  NK7100     -0.0837
     36  O37       12.2750   24.6920    1.4920 O.2   100  NK7100     -0.2667
     37  C38       21.9140   15.1300    8.4430 C.3   100  NK7100      0.4186
     38  F39       21.5300   14.0980    7.7340 F     100  NK7100     -0.1659
     39  F40       22.0570   14.7740    9.7010 F     100  NK7100     -0.1659
     40  F41       23.0490   15.6110    7.9870 F     100  NK7100     -0.1659
     41  C42       13.8160   24.2740    3.1950 C.ar  100  NK7100      0.0567
@<TRIPOS>BOND
     1    20    17    1
     2    36    26    2
     3    24    25   ar
     4    24    16   ar
     5    25    23   ar
     6    32    31   ar
     7    32    41   ar
     8    17    16    1
     9    17    18    1
    10    17    19    1
    11    26    41    1
    12    26    35   am
    13    31    30   ar
    14    16    15   ar
    15    23    22    1
    16    23    14   ar
    17    41    33   ar
    18    22    21    1
    19    15    14   ar
    20    28    27    2
    21    30    27    1
    22    30    34   ar
    23    21    27    1
    24    21     2    1
    25     4     3    1
    26     4     5    1
    27    33    34   ar
    28     3     2    1
    29    27    29    2
    30     5     1    1
    31     2     1    1
    32     1     6    1
    33     6     7    1
    34    13    12   ar
    35    13     8   ar
    36    12    11   ar
    37    38    37    1
    38    40    37    1
    39     7     8    1
    40     8     9   ar
    41    11    37    1
    42    11    10   ar
    43    37    39    1
    44     9    10   ar
