@<TRIPOS>MOLECULE
3qro_NK9_A_1.pdb
 39 42 0 0 0
SMALL
GASTEIGER

@<TRIPOS>ATOM
      1  C1       -14.9640   19.4030   -4.8700 C.3   100  NK9100      0.1079
      2  N2       -14.7470   17.9610   -4.7570 N.3   100  NK9100     -0.2150
      3  C3       -16.0330   17.2840   -4.7470 C.3   100  NK9100      0.1075
      4  C4       -16.9200   18.1760   -5.6120 C.3   100  NK9100      0.1082
      5  N5       -16.7550   17.7570   -7.0000 N.3   100  NK9100     -0.2118
      6  C6       -17.7340   18.2770   -7.9580 C.3   100  NK9100      0.1152
      7  C7       -19.0300   17.4890   -7.8580 C.ar  100  NK9100      0.0016
      8  C8       -20.2080   18.0760   -7.3940 C.ar  100  NK9100      0.0394
      9  C9       -21.3800   17.3260   -7.3190 C.ar  100  NK9100      0.1987
     10  O10      -22.5550   17.8730   -6.8680 O.3   100  NK9100     -0.2865
     11  C11      -21.3810   15.9860   -7.7010 C.ar  100  NK9100      0.0840
     12  C12      -20.2190   15.4070   -8.1680 C.ar  100  NK9100      0.1987
     13  O13      -20.2450   14.0930   -8.5510 O.3   100  NK9100     -0.2865
     14  C14      -19.0440   16.1490   -8.2420 C.ar  100  NK9100      0.0394
     15  C15      -16.3710   19.5950   -5.4700 C.3   100  NK9100      0.1146
     16  N16      -17.0810   20.5170   -4.5560 N.3   100  NK9100     -0.1496
     17  S17      -17.2620   22.0320   -4.9160 S.O2  100  NK9100      0.0636
     18  O18      -17.4250   22.2030   -6.3280 O.2   100  NK9100     -0.1528
     19  O19      -18.3310   22.5830   -4.1620 O.2   100  NK9100     -0.1528
     20  C20      -15.8630   22.7080   -4.4300 C.ar  100  NK9100      0.1222
     21  C21      -15.6690   23.0490   -3.0910 C.ar  100  NK9100      0.0201
     22  C22      -14.4780   23.6240   -2.6210 C.ar  100  NK9100      0.0060
     23  C23      -13.4500   23.8750   -3.5280 C.ar  100  NK9100      0.0567
     24  C24      -12.1520   24.5120   -3.0880 C.2   100  NK9100      0.2842
     25  N25      -11.5710   25.3720   -3.9200 N.am  100  NK9100     -0.0837
     26  O26      -11.6960   24.2620   -1.9920 O.2   100  NK9100     -0.2667
     27  C27      -13.6140   23.5310   -4.8630 C.ar  100  NK9100      0.0060
     28  C28      -14.8110   22.9530   -5.3130 C.ar  100  NK9100      0.0201
     29  C29      -17.5300   19.9970   -3.2560 C.3   100  NK9100      0.1221
     30  C30      -18.8310   19.2370   -3.1060 C.ar  100  NK9100     -0.0045
     31  C31      -19.9610   19.5480   -3.8520 C.ar  100  NK9100     -0.0029
     32  C32      -21.1450   18.8370   -3.6550 C.ar  100  NK9100      0.0036
     33  C33      -21.2020   17.8260   -2.7040 C.ar  100  NK9100      0.0714
     34  C34      -22.4170   17.0060   -2.4940 C.3   100  NK9100      0.4186
     35  F35      -22.3330   16.0790   -1.6240 F     100  NK9100     -0.1659
     36  F36      -22.9610   16.5540   -3.5620 F     100  NK9100     -0.1659
     37  F37      -23.2070   17.9320   -2.0070 F     100  NK9100     -0.1659
     38  C38      -20.0650   17.5030   -1.9690 C.ar  100  NK9100      0.0036
     39  C39      -18.8850   18.2210   -2.1580 C.ar  100  NK9100     -0.0029
@<TRIPOS>BOND
     1    13    12    1
     2    14    12   ar
     3    14     7   ar
     4    12    11   ar
     5     6     7    1
     6     6     5    1
     7     7     8   ar
     8    11     9   ar
     9     8     9   ar
    10     9    10    1
    11     5     4    1
    12    18    17    2
    13     4    15    1
    14     4     3    1
    15    15     1    1
    16    15    16    1
    17    28    27   ar
    18    28    20   ar
    19    17    16    1
    20    17    20    1
    21    17    19    2
    22     1     2    1
    23    27    23   ar
    24     2     3    1
    25    16    29    1
    26    20    21   ar
    27    25    24   am
    28    31    32   ar
    29    31    30   ar
    30    32    33   ar
    31    36    34    1
    32    23    24    1
    33    23    22   ar
    34    29    30    1
    35    30    39   ar
    36    21    22   ar
    37    24    26    2
    38    33    34    1
    39    33    38   ar
    40    34    37    1
    41    34    35    1
    42    39    38   ar
