@<TRIPOS>MOLECULE
3qrs_NK8_B_1.pdb
 40 43 0 0 0
SMALL
GASTEIGER

@<TRIPOS>ATOM
      1  C1       -19.3600   18.5800   -2.1500 C.ar  100  NK8100     -0.0029
      2  C2       -20.5830   17.9400   -1.9830 C.ar  100  NK8100      0.0036
      3  C3       -21.6270   18.2180   -2.8610 C.ar  100  NK8100      0.0714
      4  C4       -22.9680   17.5570   -2.7060 C.3   100  NK8100      0.4186
      5  F5       -23.0720   17.0250   -1.5100 F     100  NK8100     -0.1659
      6  F6       -23.1430   16.6430   -3.6290 F     100  NK8100     -0.1659
      7  F7       -23.9170   18.4580   -2.8380 F     100  NK8100     -0.1659
      8  C8       -21.4240   19.1340   -3.8900 C.ar  100  NK8100      0.0036
      9  C9       -20.1990   19.7700   -4.0480 C.ar  100  NK8100     -0.0029
     10  C10      -19.1500   19.5040   -3.1730 C.ar  100  NK8100     -0.0045
     11  C11      -17.7860   20.1660   -3.2940 C.3   100  NK8100      0.1221
     12  N12      -17.3910   20.8470   -4.5280 N.3   100  NK8100     -0.1496
     13  S13      -17.6330   22.3590   -4.7650 S.O2  100  NK8100      0.0636
     14  C14      -16.2920   23.0480   -4.1860 C.ar  100  NK8100      0.1222
     15  C15      -15.2660   23.4460   -5.0350 C.ar  100  NK8100      0.0201
     16  C16      -14.1010   24.0220   -4.5060 C.ar  100  NK8100      0.0060
     17  C17      -13.9610   24.2060   -3.1390 C.ar  100  NK8100      0.0567
     18  C18      -12.7200   24.8240   -2.5430 C.2   100  NK8100      0.2842
     19  O19      -12.4990   24.6330   -1.3640 O.2   100  NK8100     -0.2667
     20  N20      -11.8980   25.5480   -3.3040 N.am  100  NK8100     -0.0837
     21  C21      -14.9830   23.8070   -2.2920 C.ar  100  NK8100      0.0060
     22  C22      -16.1330   23.2290   -2.8190 C.ar  100  NK8100      0.0201
     23  O23      -18.7670   22.7740   -4.0020 O.2   100  NK8100     -0.1528
     24  O24      -17.7320   22.6380   -6.1690 O.2   100  NK8100     -0.1528
     25  C25      -16.5380   20.0720   -5.4480 C.3   100  NK8100      0.1146
     26  C26      -17.0880   18.6760   -5.7530 C.3   100  NK8100      0.1082
     27  N27      -16.8220   18.3160   -7.1440 N.3   100  NK8100     -0.2118
     28  C28      -17.7680   18.7580   -8.1850 C.3   100  NK8100      0.1150
     29  C29      -18.9390   17.8050   -8.1380 C.ar  100  NK8100     -0.0048
     30  C30      -18.7850   16.5330   -8.6780 C.ar  100  NK8100     -0.0027
     31  C31      -19.8460   15.6350   -8.6260 C.ar  100  NK8100      0.0043
     32  C32      -21.0380   16.0030   -8.0080 C.ar  100  NK8100      0.0566
     33  C33      -22.1440   14.9990   -7.9410 C.2   100  NK8100      0.2842
     34  N34      -23.3510   15.3690   -7.5200 N.am  100  NK8100     -0.0837
     35  O35      -21.8870   13.8350   -8.2230 O.2   100  NK8100     -0.2667
     36  C36      -21.1890   17.2680   -7.4480 C.ar  100  NK8100      0.0043
     37  C37      -20.1340   18.1680   -7.5130 C.ar  100  NK8100     -0.0027
     38  C38      -16.3150   17.7020   -4.8760 C.3   100  NK8100      0.1075
     39  N40      -15.0500   18.3840   -4.7030 N.3   100  NK8100     -0.2150
     40  C41      -15.1970   19.8330   -4.7350 C.3   100  NK8100      0.1079
@<TRIPOS>BOND
     1    30    31   ar
     2    30    29   ar
     3    31    32   ar
     4    35    33    2
     5    28    29    1
     6    28    27    1
     7    29    37   ar
     8    32    33    1
     9    32    36   ar
    10    33    34   am
    11    37    36   ar
    12    27    26    1
    13    24    13    2
    14    26    25    1
    15    26    38    1
    16    25    40    1
    17    25    12    1
    18    15    16   ar
    19    15    14   ar
    20    38    39    1
    21    13    12    1
    22    13    14    1
    23    13    23    2
    24    40    39    1
    25    12    11    1
    26    16    17   ar
    27    14    22   ar
    28     9     8   ar
    29     9    10   ar
    30     8     3   ar
    31     6     4    1
    32    20    18   am
    33    11    10    1
    34    10     1   ar
    35    17    18    1
    36    17    21   ar
    37     3     4    1
    38     3     2   ar
    39     7     4    1
    40    22    21   ar
    41     4     5    1
    42    18    19    2
    43     1     2   ar
