@<TRIPOS>MOLECULE
3qrt_X14_A_1.pdb
 28 30 0 0 0
SMALL
GASTEIGER

@<TRIPOS>ATOM
      1  N01       92.4740   46.8970  -14.1860 N.2   535  X14535     -0.1480
      2  N02       93.2020   46.1070  -15.0090 N.2   535  X14535     -0.1565
      3  N03       91.2360   47.9650  -11.9720 N.am  535  X14535     -0.1957
      4  N04       87.6810   44.6610   -6.2790 N.3   535  X14535      0.0392
      5  C05       93.9920   45.2340  -14.3410 C.2   535  X14535      0.0637
      6  C06       93.7790   45.4430  -12.9840 C.3   535  X14535      0.0844
      7  C07       92.8250   46.5050  -12.9360 C.2   535  X14535      0.1401
      8  C08       94.9170   44.2400  -14.9690 C.3   535  X14535      0.0435
      9  C09       95.8700   43.6200  -13.9030 C.3   535  X14535      0.0060
     10  C10       95.1440   43.3520  -12.5340 C.3   535  X14535      0.0011
     11  C11       94.4930   44.6480  -11.9180 C.3   535  X14535      0.0118
     12  C12       96.1350   42.7080  -11.5010 C.3   535  X14535      0.0000
     13  C13       92.3110   47.0960  -11.8130 C.2   535  X14535      0.2808
     14  C14       90.6030   48.7110  -10.8700 C.3   535  X14535      0.1418
     15  C15       89.6530   47.9030  -10.0270 C.ar  535  X14535     -0.0005
     16  C16       88.9980   48.5660   -8.9700 C.ar  535  X14535     -0.0012
     17  C17       88.1100   47.8620   -8.1390 C.ar  535  X14535      0.0197
     18  C18       87.8840   46.4930   -8.3760 C.ar  535  X14535      0.1250
     19  C19       88.5310   45.8110   -9.4310 C.ar  535  X14535      0.0197
     20  C20       89.4190   46.5170  -10.2610 C.ar  535  X14535     -0.0012
     21  C21       97.2490   43.6760  -11.0840 C.3   535  X14535      0.0000
     22  C22       96.7870   41.4820  -12.1210 C.3   535  X14535      0.0000
     23  C23       95.3660   42.2970  -10.2440 C.3   535  X14535      0.0000
     24  C24       94.2120   41.3330  -10.5580 C.3   535  X14535      0.0000
     25  O25       92.7860   46.9000  -10.7000 O.2   535  X14535     -0.2670
     26  O26       85.9830   46.5740   -6.5840 O.2   535  X14535     -0.1503
     27  O27       85.9530   44.7970   -8.1760 O.2   535  X14535     -0.1503
     28  S28       86.7840   45.6130   -7.3470 S.O2  535  X14535      0.0935
@<TRIPOS>BOND
     1     2     5    2
     2     2     1    1
     3     8     5    1
     4     8     9    1
     5     5     6    1
     6     1     7    2
     7     9    10    1
     8     6     7    1
     9     6    11    1
    10     7    13    1
    11    10    11    1
    12    10    12    1
    13    22    12    1
    14     3    13   am
    15     3    14    1
    16    13    25    2
    17    12    21    1
    18    12    23    1
    19    14    15    1
    20    24    23    1
    21    20    15   ar
    22    20    19   ar
    23    15    16   ar
    24    19    18   ar
    25    16    17   ar
    26    18    17   ar
    27    18    28    1
    28    27    28    2
    29    28    26    2
    30    28     4    1
