@<TRIPOS>MOLECULE
3qru_X19_A_1.pdb
 18 19 0 0 0
SMALL
GASTEIGER

@<TRIPOS>ATOM
      1  N01      -51.6040  104.4400  -64.1990 N.2   493  X19493     -0.1480
      2  N02      -52.5940  105.1810  -63.6230 N.2   493  X19493     -0.1565
      3  N03      -49.8300  102.3020  -64.8810 N.am  493  X19493     -0.1987
      4  C04      -53.2930  104.4790  -62.6860 C.2   493  X19493      0.0637
      5  C05      -52.7000  103.2110  -62.6700 C.3   493  X19493      0.0844
      6  C06      -51.6540  103.2310  -63.6270 C.2   493  X19493      0.1401
      7  C07      -54.4650  104.8710  -61.7940 C.3   493  X19493      0.0435
      8  C08      -54.7370  103.7850  -60.6930 C.3   493  X19493      0.0060
      9  C09      -54.6230  102.3230  -61.2670 C.3   493  X19493      0.0011
     10  C10      -53.1630  102.0950  -61.7500 C.3   493  X19493      0.0118
     11  C11      -55.1450  101.1800  -60.2740 C.3   493  X19493      0.0000
     12  C12      -50.7630  102.0610  -63.9230 C.2   493  X19493      0.2806
     13  C13      -48.8720  101.2660  -65.3020 C.3   493  X19493      0.1389
     14  C14      -54.4140  101.2220  -58.8980 C.3   493  X19493      0.0000
     15  C15      -54.9100   99.7610  -60.8770 C.3   493  X19493      0.0000
     16  C16      -56.6960  101.3830  -60.1070 C.3   493  X19493      0.0000
     17  C17      -57.4810  100.4000  -59.2100 C.3   493  X19493      0.0000
     18  O18      -50.8490  100.9760  -63.3660 O.2   493  X19493     -0.2670
@<TRIPOS>BOND
     1    13     3    1
     2     3    12   am
     3     1     6    2
     4     1     2    1
     5    12     6    1
     6    12    18    2
     7     6     5    1
     8     2     4    2
     9     4     5    1
    10     4     7    1
    11     5    10    1
    12     7     8    1
    13    10     9    1
    14     9     8    1
    15     9    11    1
    16    15    11    1
    17    11    16    1
    18    11    14    1
    19    16    17    1
