@<TRIPOS>MOLECULE
3qry_DMJ_A_1.pdb
 11 11 0 0 0
SMALL
GASTEIGER

@<TRIPOS>ATOM
      1  C4        31.7510  102.1130   36.1900 C.3   430  DMJ430      0.2031
      2  O4        31.4710  101.8000   34.8440 O.3   430  DMJ430     -0.2187
      3  C3        31.8860  103.6370   36.2880 C.3   430  DMJ430      0.2151
      4  O3        32.9810  103.9550   35.4600 O.3   430  DMJ430     -0.2176
      5  C2        32.1320  104.0380   37.7440 C.3   430  DMJ430      0.2020
      6  O2        33.3650  103.4670   38.2180 O.3   430  DMJ430     -0.2188
      7  C1        30.9490  103.5490   38.6000 C.3   430  DMJ430      0.1243
      8  N5        30.7710  102.0860   38.4550 N.3   430  DMJ430     -0.2113
      9  C5        30.6280  101.5860   37.0790 C.3   430  DMJ430      0.1386
     10  C6        30.5460  100.0170   37.0100 C.3   430  DMJ430      0.2020
     11  O6        31.7360   99.4290   37.5570 O.3   430  DMJ430     -0.2188
@<TRIPOS>BOND
     1     2     1    1
     2     4     3    1
     3     1     3    1
     4     1     9    1
     5     3     5    1
     6    10     9    1
     7    10    11    1
     8     9     8    1
     9     5     6    1
    10     5     7    1
    11     8     7    1
