@<TRIPOS>MOLECULE
3qs0_NAG_B_1.pdb
 15 15 0 0 0
SMALL
GASTEIGER

@<TRIPOS>ATOM
      1  C1        -8.0430  -30.5450  -41.3070 C.3   172  NAG172      0.2917
      2  C2        -8.7760  -29.6060  -42.2770 C.3   172  NAG172      0.1871
      3  C3       -10.3240  -29.6810  -42.2750 C.3   172  NAG172      0.2095
      4  C4       -10.8990  -31.0160  -41.7810 C.3   172  NAG172      0.2136
      5  C5       -10.0650  -31.5490  -40.6330 C.3   172  NAG172      0.1835
      6  C6       -10.5710  -32.8650  -40.1170 C.3   172  NAG172      0.2142
      7  C7        -8.7530  -27.2120  -42.6390 C.2   172  NAG172      0.2421
      8  C8        -8.1860  -25.8720  -42.2140 C.3   172  NAG172      0.0964
      9  N2        -8.3670  -28.2610  -41.9260 N.am  172  NAG172     -0.1991
     10  O1        -6.7850  -30.8420  -41.8150 O.3   172  NAG172     -0.1879
     11  O3       -10.8020  -29.4460  -43.5940 O.3   172  NAG172     -0.2183
     12  O4       -12.2480  -30.8490  -41.3500 O.3   172  NAG172     -0.2176
     13  O5        -8.7370  -31.7700  -41.1070 O.3   172  NAG172     -0.3242
     14  O6       -10.3570  -33.8750  -41.0850 O.3   172  NAG172     -0.2176
     15  O7        -9.5210  -27.2860  -43.5930 O.2   172  NAG172     -0.2733
@<TRIPOS>BOND
     1    11     3    1
     2    15     7    2
     3     7     8    1
     4     7     9   am
     5     2     3    1
     6     2     9    1
     7     2     1    1
     8     3     4    1
     9    10     1    1
    10     4    12    1
    11     4     5    1
    12     1    13    1
    13    13     5    1
    14    14     6    1
    15     5     6    1
