@<TRIPOS>MOLECULE
3qs1_006_A_1.pdb
 45 49 0 0 0
SMALL
GASTEIGER

@<TRIPOS>ATOM
      1  N2        28.5280   -9.3920    5.4040 N.am  330  006330     -0.2006
      2  C20       27.1050   -9.3590    5.1740 C.3   330  006330      0.1390
      3  O20       26.4820   -7.1280    4.8490 O.3   330  006330     -0.2114
      4  C21       26.6110   -8.8180    6.4830 C.3   330  006330      0.0511
      5  O21       24.6260   -8.1800    3.7310 O.2   330  006330     -0.2720
      6  C22       26.7490   -9.9230    7.4770 C.ar  330  006330     -0.0204
      7  C23       27.5400   -9.7200    8.5940 C.ar  330  006330     -0.0042
      8  C24       27.6630  -10.7760    9.4900 C.ar  330  006330     -0.0003
      9  C25       27.0230  -12.0090    9.2890 C.ar  330  006330     -0.0000
     10  C26       26.2410  -12.2000    8.1690 C.ar  330  006330     -0.0003
     11  C27       26.1060  -11.1540    7.2540 C.ar  330  006330     -0.0042
     12  C28       26.8630   -8.3050    4.1510 C.3   330  006330      0.2475
     13  C29       25.6600   -8.6800    3.3770 C.2   330  006330      0.2589
     14  N30       22.7290  -11.2970    2.3470 N.am  330  006330     -0.1986
     15  O30       20.3950  -11.4020    2.0880 O.3   330  006330     -0.2206
     16  C31       22.2390  -12.6000    2.7870 C.3   330  006330      0.1478
     17  C32       21.9910  -12.6520    4.2410 C.ar  330  006330     -0.0040
     18  C33       22.8860  -12.2670    5.2690 C.ar  330  006330     -0.0029
     19  C34       22.5000  -12.3570    6.6050 C.ar  330  006330     -0.0003
     20  C35       20.8230  -12.7470    2.2600 C.3   330  006330      0.1802
     21  C36       20.7400  -13.1300    4.5220 C.ar  330  006330     -0.0218
     22  C37       20.3310  -13.2160    5.8540 C.ar  330  006330     -0.0044
     23  C38       21.2100  -12.8280    6.8790 C.ar  330  006330     -0.0003
     24  C39       19.9440  -13.4530    3.2930 C.3   330  006330      0.0611
     25  C40       35.6540   -9.1960    6.4880 C.ar  330  006330     -0.0004
     26  O40       28.5210  -11.5000    4.7240 O.2   330  006330     -0.2693
     27  C41       35.1240   -8.6250    5.3630 C.ar  330  006330     -0.0013
     28  O41       31.4350   -9.4070    5.7420 O.3   330  006330     -0.4662
     29  C42       33.7520   -8.6890    5.1180 C.ar  330  006330      0.0118
     30  C43       33.3390   -8.0120    3.8320 C.3   330  006330      0.0342
     31  C44       32.6130  -10.6470    8.1890 C.3   330  006330      0.0342
     32  C45       32.8370   -9.3490    5.9850 C.ar  330  006330      0.1312
     33  C46       33.4190   -9.9210    7.1360 C.ar  330  006330      0.0118
     34  C47       34.7940   -9.8360    7.3650 C.ar  330  006330     -0.0013
     35  C48       29.1760  -10.5310    5.1600 C.2   330  006330      0.2859
     36  C49       30.7000  -10.6160    5.4420 C.3   330  006330      0.2911
     37  C50       26.9640  -10.1850    1.8880 C.3   330  006330      0.1527
     38  N50       25.7550   -9.5310    2.3720 N.am  330  006330     -0.2602
     39  O50       24.7520  -12.0550    2.2050 O.2   330  006330     -0.2715
     40  S50       26.5730  -10.6960    0.2830 S.3   330  006330     -0.1182
     41  C51       25.0570   -9.8080    0.1470 C.3   330  006330      0.0661
     42  C52       24.1620  -10.3470   -0.9860 C.3   330  006330      0.0131
     43  C53       25.3390   -8.3460   -0.1640 C.3   330  006330      0.0131
     44  C54       24.5660   -9.8620    1.6130 C.3   330  006330      0.1633
     45  C55       24.0040  -11.1560    2.0800 C.2   330  006330      0.2606
@<TRIPOS>BOND
     1    42    41    1
     2    43    41    1
     3    41    40    1
     4    41    44    1
     5    40    37    1
     6    44    45    1
     7    44    38    1
     8    37    38    1
     9    45    39    2
    10    45    14   am
    11    15    20    1
    12    20    16    1
    13    20    24    1
    14    14    16    1
    15    38    13   am
    16    16    17    1
    17    24    21    1
    18    13     5    2
    19    13    12    1
    20    30    29    1
    21    12     3    1
    22    12     2    1
    23    17    21   ar
    24    17    18   ar
    25    21    22   ar
    26    26    35    2
    27    29    27   ar
    28    29    32   ar
    29    35     1   am
    30    35    36    1
    31     2     1    1
    32     2     4    1
    33    18    19   ar
    34    27    25   ar
    35    36    28    1
    36    28    32    1
    37    22    23   ar
    38    32    33   ar
    39     4     6    1
    40    25    34   ar
    41    19    23   ar
    42    33    34   ar
    43    33    31    1
    44    11     6   ar
    45    11    10   ar
    46     6     7   ar
    47    10     9   ar
    48     7     8   ar
    49     9     8   ar
