@<TRIPOS>MOLECULE
3qs4_TRP_A_1.pdb
 15 16 0 0 0
SMALL
GASTEIGER

@<TRIPOS>ATOM
      1  N        -25.9110   -4.1100  -19.2820 N.3   601  TRP601     -0.1205
      2  CA       -26.7070   -5.3330  -19.3020 C.3   601  TRP601      0.1984
      3  C        -26.2980   -6.2810  -18.1820 C.2   601  TRP601      0.3822
      4  O        -26.8820   -7.3490  -18.0050 O.co2 601  TRP601     -0.2440
      5  CB       -26.5790   -6.0350  -20.6550 C.3   601  TRP601      0.0549
      6  CG       -26.9740   -5.1790  -21.8120 C.2   601  TRP601     -0.0138
      7  CD1      -26.1750   -4.7670  -22.8390 C.2   601  TRP601      0.0907
      8  CD2      -28.2670   -4.6160  -22.0570 C.3   601  TRP601      0.0819
      9  NE1      -26.8940   -3.9880  -23.7130 N.2   601  TRP601     -0.2482
     10  CE2      -28.1810   -3.8780  -23.2540 C.2   601  TRP601      0.0665
     11  CE3      -29.4910   -4.6650  -21.3810 C.2   601  TRP601     -0.0164
     12  CZ2      -29.2720   -3.1960  -23.7900 C.2   601  TRP601      0.0153
     13  CZ3      -30.5710   -3.9870  -21.9140 C.2   601  TRP601     -0.0038
     14  CH2      -30.4550   -3.2630  -23.1060 C.2   601  TRP601      0.0009
     15  OXT      -25.3770   -5.9990  -17.4220 O.co2 601  TRP601     -0.2440
@<TRIPOS>BOND
     1    12    10    1
     2    12    14    2
     3     9    10    2
     4     9     7    1
     5    10     8    1
     6    14    13    1
     7     7     6    2
     8     8     6    1
     9     8    11    1
    10    13    11    2
    11     6     5    1
    12     5     2    1
    13     2     1    1
    14     2     3    1
    15     3     4   ar
    16     3    15   ar
