@<TRIPOS>MOLECULE
3qs5_TRP_A_1.pdb
 15 16 0 0 0
SMALL
GASTEIGER

@<TRIPOS>ATOM
      1  N         26.4420   30.7550   19.7450 N.3   601  TRP601     -0.1205
      2  CA        27.7060   30.0770   19.4680 C.3   601  TRP601      0.1984
      3  C         27.5120   28.9250   18.4660 C.2   601  TRP601      0.3822
      4  O         28.3750   28.1000   18.1390 O.co2 601  TRP601     -0.2440
      5  CB        28.3190   29.5820   20.7760 C.3   601  TRP601      0.0549
      6  CG        28.2090   30.5620   21.8910 C.2   601  TRP601     -0.0138
      7  CD1       27.6010   30.3700   23.0960 C.2   601  TRP601      0.0907
      8  CD2       28.7330   31.8890   21.9100 C.3   601  TRP601      0.0819
      9  NE1       27.7170   31.4990   23.8680 N.2   601  TRP601     -0.2482
     10  CE2       28.4090   32.4480   23.1610 C.2   601  TRP601      0.0665
     11  CE3       29.4460   32.6610   20.9880 C.2   601  TRP601     -0.0164
     12  CZ2       28.7750   33.7460   23.5130 C.2   601  TRP601      0.0153
     13  CZ3       29.8090   33.9470   21.3380 C.2   601  TRP601     -0.0038
     14  CH2       29.4730   34.4780   22.5890 C.2   601  TRP601      0.0009
     15  OXT       26.4200   28.7930   17.9420 O.co2 601  TRP601     -0.2440
@<TRIPOS>BOND
     1    15     3   ar
     2     4     3   ar
     3     3     2    1
     4     2     1    1
     5     2     5    1
     6     5     6    1
     7    11    13    2
     8    11     8    1
     9    13    14    1
    10     6     8    1
    11     6     7    2
    12     8    10    1
    13    14    12    2
    14     7     9    1
    15    10    12    1
    16    10     9    2
