@<TRIPOS>MOLECULE
3qs6_TRP_A_1.pdb
 15 16 0 0 0
SMALL
GASTEIGER

@<TRIPOS>ATOM
      1  N         26.9410    0.4010   19.6470 N.3   601  TRP601     -0.1205
      2  CA        28.0710   -0.3920   19.1920 C.3   601  TRP601      0.1984
      3  C         27.5850   -1.5350   18.3140 C.2   601  TRP601      0.3822
      4  O         28.2950   -2.5170   18.1140 O.co2 601  TRP601     -0.2440
      5  CB        28.8460   -0.9470   20.3860 C.3   601  TRP601      0.0549
      6  CG        28.5890   -0.2020   21.6650 C.2   601  TRP601     -0.0138
      7  CD1       27.8860   -0.6470   22.7460 C.2   601  TRP601      0.0907
      8  CD2       29.0210    1.1250   21.9870 C.3   601  TRP601      0.0819
      9  NE1       27.8600    0.3160   23.7250 N.2   601  TRP601     -0.2482
     10  CE2       28.5490    1.4150   23.2840 C.2   601  TRP601      0.0665
     11  CE3       29.7640    2.0960   21.3080 C.2   601  TRP601     -0.0164
     12  CZ2       28.7960    2.6330   23.9140 C.2   601  TRP601      0.0153
     13  CZ3       30.0070    3.3040   21.9340 C.2   601  TRP601     -0.0038
     14  CH2       29.5260    3.5620   23.2240 C.2   601  TRP601      0.0009
     15  OXT       26.4710   -1.5060   17.7930 O.co2 601  TRP601     -0.2440
@<TRIPOS>BOND
     1    15     3   ar
     2     4     3   ar
     3     3     2    1
     4     2     1    1
     5     2     5    1
     6     5     6    1
     7    11    13    2
     8    11     8    1
     9     6     8    1
    10     6     7    2
    11    13    14    1
    12     8    10    1
    13     7     9    1
    14    14    12    2
    15    10     9    2
    16    10    12    1
