@<TRIPOS>MOLECULE
3qs8_PRP_A_1.pdb
 22 22 0 0 0
SMALL
GASTEIGER

@<TRIPOS>ATOM
      1  C1        -0.9810   -3.1290   30.1890 C.3   400  PRP400      0.2742
      2  C2        -0.2920   -4.3590   30.8050 C.3   400  PRP400      0.2408
      3  C3        -1.4140   -5.0630   31.6030 C.3   400  PRP400      0.2167
      4  C4        -2.3740   -3.9180   31.9310 C.3   400  PRP400      0.1808
      5  C5        -2.3790   -3.5880   33.4310 C.3   400  PRP400      0.1859
      6  O1        -1.7310   -3.5640   29.0490 O.3   400  PRP400     -0.2857
      7  O2         0.2250   -5.2500   29.7830 O.3   400  PRP400     -0.2149
      8  O3        -2.1230   -5.9900   30.7700 O.3   400  PRP400     -0.2175
      9  O4        -1.9080   -2.7240   31.1790 O.3   400  PRP400     -0.3255
     10  O5        -1.0600   -3.6160   33.9430 O.3   400  PRP400     -0.2675
     11  P         -0.8350   -3.6160   35.5670 P.3   400  PRP400      0.5327
     12  O1P       -1.2570   -5.0590   36.1330 O.3   400  PRP400     -0.1145
     13  O2P        0.7390   -3.4360   35.6960 O.2   400  PRP400     -0.2224
     14  O3P       -1.5900   -2.5020   36.2380 O.3   400  PRP400     -0.1145
     15  PA        -2.7860   -2.8470   28.1530 P.3   400  PRP400      0.2249
     16  O1A       -2.4820   -1.2640   28.0880 O.3   400  PRP400     -0.4370
     17  O2A       -2.7150   -3.5320   26.8560 O.2   400  PRP400     -0.5169
     18  O3A       -4.1370   -3.1620   28.9200 O.3   400  PRP400     -0.2260
     19  PB        -5.5240   -2.4840   29.0900 P.3   400  PRP400      0.5373
     20  O1B       -5.8780   -2.8930   30.5740 O.3   400  PRP400     -0.1143
     21  O2B       -5.4090   -0.8140   29.0140 O.3   400  PRP400     -0.1143
     22  O3B       -6.4980   -3.0470   28.1070 O.2   400  PRP400     -0.2221
@<TRIPOS>BOND
     1    17    15    2
     2    16    15    1
     3    22    19    2
     4    15    18    1
     5    15     6    1
     6    18    19    1
     7    21    19    1
     8     6     1    1
     9    19    20    1
    10     7     2    1
    11     1     2    1
    12     1     9    1
    13     8     3    1
    14     2     3    1
    15     9     4    1
    16     3     4    1
    17     4     5    1
    18     5    10    1
    19    10    11    1
    20    11    13    2
    21    11    12    1
    22    11    14    1
