@<TRIPOS>MOLECULE
3qs8_17D_A_1.pdb
 16 17 0 0 0
SMALL
GASTEIGER

@<TRIPOS>ATOM
      1  OAA        8.5540  -14.9310   31.5700 O.co2 600  17D600     -0.2406
      2  OAB        7.2890  -13.7400   32.9410 O.co2 600  17D600     -0.2406
      3  CAC        5.7190   -8.2500   34.4620 C.ar  600  17D600     -0.0000
      4  CAD        4.7230   -9.2210   34.5730 C.ar  600  17D600     -0.0003
      5  CAE        6.7370   -8.3650   33.5110 C.ar  600  17D600     -0.0003
      6  CAF        7.6960  -10.9970   28.6520 C.ar  600  17D600     -0.0003
      7  CAG        8.6520  -12.0120   28.6460 C.ar  600  17D600      0.0002
      8  CAH        4.7570  -10.3320   33.7200 C.ar  600  17D600     -0.0039
      9  CAI        6.7710   -9.4620   32.6550 C.ar  600  17D600     -0.0039
     10  CAJ        6.7840  -10.9110   29.7020 C.ar  600  17D600     -0.0037
     11  CAK        8.7010  -12.9570   29.6690 C.ar  600  17D600      0.0063
     12  CAL        5.7350  -11.7000   31.8600 C.3   600  17D600      0.0528
     13  CAM        7.8730  -13.9230   31.8360 C.2   600  17D600      0.3875
     14  CAN        5.7750  -10.4540   32.7610 C.ar  600  17D600     -0.0178
     15  CAO        6.8160  -11.8320   30.7530 C.ar  600  17D600     -0.0114
     16  CAP        7.7830  -12.8610   30.7200 C.ar  600  17D600      0.0761
@<TRIPOS>BOND
     1     7     6   ar
     2     7    11   ar
     3     6    10   ar
     4    11    16   ar
     5    10    15   ar
     6    16    15   ar
     7    16    13    1
     8    15    12    1
     9     1    13   ar
    10    13     2   ar
    11    12    14    1
    12     9    14   ar
    13     9     5   ar
    14    14     8   ar
    15     5     3   ar
    16     8     4   ar
    17     3     4   ar
