@<TRIPOS>MOLECULE
3qsa_PRP_A_1.pdb
 22 22 0 0 0
SMALL
GASTEIGER

@<TRIPOS>ATOM
      1  C1       -24.0470  -22.2720   14.1860 C.3   401  PRP401      0.2742
      2  C2       -23.7550  -23.4660   15.0810 C.3   401  PRP401      0.2408
      3  C3       -25.1410  -23.7470   15.6850 C.3   401  PRP401      0.2167
      4  C4       -25.8640  -22.4190   15.6380 C.3   401  PRP401      0.1808
      5  C5       -26.1120  -22.0340   17.1130 C.3   401  PRP401      0.1859
      6  O1       -24.5780  -22.7950   12.9450 O.3   401  PRP401     -0.2857
      7  O2       -23.3220  -24.5960   14.2770 O.3   401  PRP401     -0.2149
      8  O3       -25.9180  -24.6390   14.8710 O.3   401  PRP401     -0.2175
      9  O4       -25.0320  -21.5000   14.9140 O.3   401  PRP401     -0.3255
     10  O5       -24.8790  -21.8760   17.8180 O.3   401  PRP401     -0.2675
     11  P        -24.8590  -21.8410   19.4360 P.3   401  PRP401      0.5327
     12  O1P      -23.3220  -22.0300   19.8170 O.2   401  PRP401     -0.2224
     13  O2P      -25.1720  -20.3320   19.8660 O.3   401  PRP401     -0.1145
     14  O3P      -25.6570  -22.9210   20.0560 O.3   401  PRP401     -0.1145
     15  PA       -25.4480  -21.9400   11.9140 P.3   401  PRP401      0.2249
     16  O1A      -24.7500  -20.4840   11.7000 O.3   401  PRP401     -0.4370
     17  O2A      -25.5570  -22.7240   10.6650 O.2   401  PRP401     -0.5169
     18  O3A      -26.9110  -21.8810   12.5770 O.3   401  PRP401     -0.2260
     19  PB       -28.0440  -20.8360   12.2380 P.3   401  PRP401      0.5373
     20  O1B      -28.9550  -21.5010   11.0770 O.2   401  PRP401     -0.2221
     21  O2B      -28.9190  -20.9250   13.6050 O.3   401  PRP401     -0.1143
     22  O3B      -27.5650  -19.4470   11.9770 O.3   401  PRP401     -0.1143
@<TRIPOS>BOND
     1    17    15    2
     2    20    19    2
     3    16    15    1
     4    15    18    1
     5    15     6    1
     6    22    19    1
     7    19    18    1
     8    19    21    1
     9     6     1    1
    10     1     9    1
    11     1     2    1
    12     7     2    1
    13     8     3    1
    14     9     4    1
    15     2     3    1
    16     4     3    1
    17     4     5    1
    18     5    10    1
    19    10    11    1
    20    11    12    2
    21    11    13    1
    22    11    14    1
