@<TRIPOS>MOLECULE
3qsa_TA7_A_1.pdb
 17 17 0 0 0
SMALL
GASTEIGER

@<TRIPOS>ATOM
      1  CAA      -18.3790  -37.9130   17.8410 C.3   404  TA7404      0.2525
      2  OAB      -18.7570  -30.9930   16.8010 O.2   404  TA7404     -0.2909
      3  OAC      -17.8770  -28.8710   15.9610 O.2   404  TA7404     -0.2868
      4  FAD      -15.8930  -29.4700   13.1950 F     404  TA7404     -0.1633
      5  FAE      -17.5960  -28.1820   13.0990 F     404  TA7404     -0.1633
      6  FAF      -15.9680  -27.6500   14.4390 F     404  TA7404     -0.1633
      7  CAG      -18.3330  -35.0620   17.7460 C.ar  404  TA7404      0.0370
      8  CAH      -16.7340  -35.2440   15.9380 C.ar  404  TA7404      0.0370
      9  CAI      -18.5080  -33.7060   17.4260 C.ar  404  TA7404      0.0060
     10  CAJ      -16.9010  -33.8980   15.6180 C.ar  404  TA7404      0.0060
     11  CAK      -17.3410  -30.9920   14.8980 C.3   404  TA7404      0.1423
     12  OAL      -17.2590  -37.1570   17.2640 O.3   404  TA7404     -0.4714
     13  CAM      -18.0180  -31.6480   16.0720 C.2   404  TA7404      0.1807
     14  CAN      -17.3410  -29.4600   15.0190 C.2   404  TA7404      0.2518
     15  CAO      -17.4580  -35.8340   16.9880 C.ar  404  TA7404      0.1387
     16  CAP      -17.7880  -33.1280   16.3720 C.ar  404  TA7404      0.0353
     17  CAQ      -16.6620  -28.6590   13.9070 C.3   404  TA7404      0.4517
@<TRIPOS>BOND
     1     5    17    1
     2     4    17    1
     3    17     6    1
     4    17    14    1
     5    11    14    1
     6    11    13    1
     7    14     3    2
     8    10     8   ar
     9    10    16   ar
    10     8    15   ar
    11    13    16    1
    12    13     2    2
    13    16     9   ar
    14    15    12    1
    15    15     7   ar
    16    12     1    1
    17     9     7   ar
