@<TRIPOS>MOLECULE
3qsb_743_A_1.pdb
 32 34 0 0 0
SMALL
GASTEIGER

@<TRIPOS>ATOM
      1  C1        50.4550    8.2090   43.8450 C.ar  367  743367      0.1401
      2  F1        49.5510    7.3670   44.3680 F     367  743367     -0.2042
      3  C2        50.7110    9.4000   44.5190 C.ar  367  743367      0.0296
      4  C3        51.6430   10.2900   43.9530 C.ar  367  743367      0.0023
      5  C4        52.3340    9.9810   42.7820 C.ar  367  743367      0.0001
      6  C5        52.0140    8.7780   42.0800 C.ar  367  743367      0.0023
      7  C6        51.0790    7.9170   42.6170 C.ar  367  743367      0.0296
      8  C7        53.2660   10.8910   42.2780 C.ar  367  743367     -0.0000
      9  C8        53.4980   12.1260   42.9320 C.ar  367  743367     -0.0002
     10  C9        54.4070   13.0430   42.3870 C.ar  367  743367     -0.0006
     11  C10       55.1410   12.7630   41.2400 C.ar  367  743367      0.0240
     12  C11       54.9090   11.5510   40.5880 C.ar  367  743367     -0.0006
     13  C12       53.9690   10.6240   41.1120 C.ar  367  743367     -0.0002
     14  C13       56.1600   13.7540   40.6840 C.3   367  743367      0.2651
     15  O14       57.4210   13.7230   41.4180 O.2   367  743367     -0.3729
     16  N15       58.1890   14.8600   41.3690 N.2   367  743367     -0.0906
     17  C16       58.7630   15.3080   42.4050 C.2   367  743367      0.0885
     18  C17       58.6470   14.6530   43.7710 C.3   367  743367      0.1548
     19  C18       57.2810   14.7900   44.4230 C.2   367  743367      0.1763
     20  O18       56.4650   15.6300   44.0210 O.2   367  743367     -0.2941
     21  C19       57.0520   13.9240   45.6450 C.3   367  743367      0.1496
     22  C20       57.6800   12.4990   45.5550 C.3   367  743367      0.0268
     23  C21       59.1720   12.6450   45.3700 C.3   367  743367      0.0667
     24  C22       59.4410   13.4150   44.0900 C.2   367  743367      0.1627
     25  O22       60.4190   13.1410   43.4290 O.2   367  743367     -0.2952
     26  C23       55.6470   13.7970   46.1280 C.1   367  743367      0.0796
     27  N23       54.5470   13.6580   46.5480 N.1   367  743367     -0.1955
     28  C24       57.3820   11.7960   46.8740 C.3   367  743367      0.0019
     29  C25       57.1400   11.6230   44.3940 C.3   367  743367      0.0019
     30  C26       59.5060   16.6200   42.2990 C.3   367  743367      0.0455
     31  C27       60.8690   16.6040   41.6300 C.3   367  743367      0.0061
     32  C28       61.4430   18.0040   41.7420 C.3   367  743367      0.0004
@<TRIPOS>BOND
     1    12    13   ar
     2    12    11   ar
     3    14    11    1
     4    14    15    1
     5    13     8   ar
     6    11    10   ar
     7    16    15    1
     8    16    17    2
     9    31    32    1
    10    31    30    1
    11     6     7   ar
    12     6     5   ar
    13     8     5    1
    14     8     9   ar
    15    30    17    1
    16    10     9   ar
    17    17    18    1
    18     7     1   ar
    19     5     4   ar
    20    25    24    2
    21    18    24    1
    22    18    19    1
    23     1     2    1
    24     1     3   ar
    25     4     3   ar
    26    20    19    2
    27    24    23    1
    28    29    22    1
    29    19    21    1
    30    23    22    1
    31    22    21    1
    32    22    28    1
    33    21    26    1
    34    26    27    3
