@<TRIPOS>MOLECULE
3qsd_074_A_1.pdb
 27 27 0 0 0
SMALL
GASTEIGER

@<TRIPOS>ATOM
      1  C1        19.0750    7.7230   19.2750 C.3   324  074324      0.0019
      2  C2        18.6270    9.1290   19.5670 C.3   324  074324      0.0234
      3  C3        19.6940    9.9450   20.2700 C.3   324  074324      0.1152
      4  N1        19.2620   11.3560   20.4030 N.am  324  074324     -0.2033
      5  C4        18.5250   11.8080   21.4210 C.2   324  074324      0.2723
      6  O1        18.1870   11.0440   22.3640 O.2   324  074324     -0.2706
      7  C5        18.1510   13.2470   21.5440 C.3   324  074324      0.2381
      8  O2        19.3680   14.0110   21.4040 O.3   324  074324     -0.2127
      9  C6        17.2300   13.6960   20.3770 C.3   324  074324      0.1292
     10  C7        16.7930   15.0690   20.7430 C.2   324  074324      0.2449
     11  O3        16.0510   15.3340   21.6950 O.2   324  074324     -0.2732
     12  N2        17.3580   16.0080   19.9970 N.am  324  074324     -0.1978
     13  C8        17.3340   17.4030   20.3540 C.3   324  074324      0.1712
     14  C13       16.0280   18.1060   20.2290 C.2   324  074324      0.2458
     15  O4        15.1980   17.6910   19.4260 O.2   324  074324     -0.2730
     16  C9        18.4160   18.1550   19.4680 C.3   324  074324      0.0289
     17  C11       18.0910   18.0060   17.9750 C.3   324  074324      0.0022
     18  C10       19.8320   17.6150   19.8570 C.3   324  074324      0.0023
     19  C12       18.9170   19.0120   17.1900 C.3   324  074324      0.0001
     20  N3        15.8680   19.1840   20.9930 N.am  324  074324     -0.2699
     21  C17       14.7080   20.0170   20.7880 C.3   324  074324      0.1791
     22  C18       14.9710   20.9790   19.6030 C.2   324  074324      0.3825
     23  O         16.1240   21.0770   19.0430 O.co2 324  074324     -0.2438
     24  C16       14.6410   20.8760   22.0290 C.3   324  074324      0.0332
     25  C15       16.0750   20.9470   22.4740 C.3   324  074324      0.0238
     26  C14       16.7690   19.6830   22.0280 C.3   324  074324      0.0940
     27  OT        14.0340   21.7120   19.2100 O.co2 324  074324     -0.2438
@<TRIPOS>BOND
     1    19    17    1
     2    17    16    1
     3    23    22   ar
     4    27    22   ar
     5     1     2    1
     6    15    14    2
     7    16    18    1
     8    16    13    1
     9     2     3    1
    10    22    21    1
    11    12    13    1
    12    12    10   am
    13    14    13    1
    14    14    20   am
    15     3     4    1
    16     9    10    1
    17     9     7    1
    18     4     5   am
    19    10    11    2
    20    21    20    1
    21    21    24    1
    22    20    26    1
    23     8     7    1
    24     5     7    1
    25     5     6    2
    26    26    25    1
    27    24    25    1
