@<TRIPOS>MOLECULE
3qsp_MAN_A_1.pdb
 11 11 0 0 0
SMALL
GASTEIGER

@<TRIPOS>ATOM
      1  C1        10.8310    0.8680   15.9690 C.3   428  MAN428      0.1777
      2  C2        11.6980    1.4970   17.0590 C.3   428  MAN428      0.2141
      3  C3        11.9870    0.4760   18.1690 C.3   428  MAN428      0.2173
      4  C4        10.6750   -0.1240   18.6820 C.3   428  MAN428      0.2142
      5  C5         9.8160   -0.6440   17.4990 C.3   428  MAN428      0.1810
      6  C6         8.4470   -1.1940   17.8930 C.3   428  MAN428      0.2141
      7  O2        11.0560    2.6140   17.6320 O.3   428  MAN428     -0.2176
      8  O3        12.6950    1.0930   19.2280 O.3   428  MAN428     -0.2175
      9  O4        11.0200   -1.1470   19.5800 O.3   428  MAN428     -0.2176
     10  O5         9.6120    0.3910   16.5210 O.3   428  MAN428     -0.3481
     11  O6         7.6000   -0.1550   18.3510 O.3   428  MAN428     -0.2176
@<TRIPOS>BOND
     1     1    10    1
     2     1     2    1
     3    10     5    1
     4     2     7    1
     5     2     3    1
     6     5     6    1
     7     5     4    1
     8     6    11    1
     9     3     4    1
    10     3     8    1
    11     4     9    1
