@<TRIPOS>MOLECULE
3qsp_BMA_A_1.pdb
 12 12 0 0 0
SMALL
GASTEIGER

@<TRIPOS>ATOM
      1  C1        13.5280   -2.4710   12.5060 C.3   427  BMA427      0.3024
      2  C2        14.2680   -3.3060   13.5430 C.3   427  BMA427      0.2434
      3  C3        13.2270   -3.9780   14.4240 C.3   427  BMA427      0.2199
      4  C4        12.3850   -2.8910   15.0640 C.3   427  BMA427      0.2144
      5  C5        11.7360   -2.0650   13.9600 C.3   427  BMA427      0.1836
      6  C6        10.8600   -0.9670   14.5550 C.3   427  BMA427      0.2142
      7  O1        14.4390   -1.8590   11.6270 O.3   427  BMA427     -0.1869
      8  O2        15.1300   -2.4970   14.3080 O.3   427  BMA427     -0.2148
      9  O3        13.8840   -4.7190   15.4210 O.3   427  BMA427     -0.2174
     10  O4        11.3910   -3.4840   15.8670 O.3   427  BMA427     -0.2176
     11  O5        12.7490   -1.4890   13.1650 O.3   427  BMA427     -0.3236
     12  O6        11.6130   -0.0790   15.3480 O.3   427  BMA427     -0.2176
@<TRIPOS>BOND
     1     7     1    1
     2     1    11    1
     3     1     2    1
     4    11     5    1
     5     2     8    1
     6     2     3    1
     7     5     6    1
     8     5     4    1
     9     3     4    1
    10     3     9    1
    11     6    12    1
    12     4    10    1
