@<TRIPOS>MOLECULE
3qsy_GNP_A_1.pdb
 32 34 0 0 0
SMALL
GASTEIGER

@<TRIPOS>ATOM
      1  PG        32.6000   -7.8690   25.2520 P.3   501  GNP501      0.4884
      2  O1G       31.7310   -6.8910   24.4890 O.3   501  GNP501     -0.1240
      3  O2G       32.7820   -7.5300   26.7130 O.3   501  GNP501     -0.1240
      4  O3G       33.8710   -7.9260   24.4320 O.2   501  GNP501     -0.2331
      5  N3B       31.9680   -9.3300   25.2330 N.3   501  GNP501     -0.0163
      6  PB        32.8790  -10.5660   24.8440 P.3   501  GNP501      0.4669
      7  O1B       32.4520  -11.8310   25.4700 O.3   501  GNP501     -0.1253
      8  O2B       32.9880  -10.5300   23.3750 O.2   501  GNP501     -0.2351
      9  O3A       34.2500  -10.2730   25.4160 O.3   501  GNP501     -0.2360
     10  PA        35.5270  -10.7920   24.7790 P.3   501  GNP501      0.2220
     11  O1A       35.1710  -11.8110   23.7620 O.2   501  GNP501     -0.5170
     12  O2A       36.4210   -9.6450   24.4260 O.3   501  GNP501     -0.4370
     13  O5'       36.2530  -11.6060   25.9180 O.3   501  GNP501     -0.3111
     14  C5'       36.8090  -12.8800   25.6640 C.3   501  GNP501      0.1813
     15  C4'       37.1730  -13.5160   26.9890 C.3   501  GNP501      0.1799
     16  O4'       36.0150  -14.1790   27.5580 O.3   501  GNP501     -0.3326
     17  C3'       38.2820  -14.5620   26.9430 C.3   501  GNP501      0.2158
     18  O3'       39.4600  -13.9970   27.5090 O.3   501  GNP501     -0.2175
     19  C2'       37.7210  -15.7160   27.7770 C.3   501  GNP501      0.2310
     20  O2'       38.6260  -16.2230   28.7310 O.3   501  GNP501     -0.2158
     21  C1'       36.5590  -15.0620   28.5100 C.3   501  GNP501      0.2293
     22  N9        35.5990  -16.0660   28.9560 N.pl3 501  GNP501     -0.2354
     23  C8        35.2390  -17.1970   28.2650 C.3   501  GNP501      0.2246
     24  N7        34.3720  -17.9400   28.8900 N.2   501  GNP501     -0.2322
     25  C5        34.1580  -17.2650   30.0790 C.2   501  GNP501      0.2182
     26  C6        33.3100  -17.6080   31.1470 C.1   501  GNP501      0.2372
     27  O6        32.5860  -18.6010   31.2300 O.2   501  GNP501     -0.2069
     28  N1        33.3570  -16.6710   32.1730 N.2   501  GNP501     -0.2485
     29  C2        34.1300  -15.5340   32.1590 C.1   501  GNP501      0.2531
     30  N2        34.0380  -14.7500   33.2460 N.pl3 501  GNP501     -0.0226
     31  N3        34.9350  -15.1940   31.1540 N.2   501  GNP501     -0.3074
     32  C4        34.9010  -16.1080   30.1470 C.2   501  GNP501      0.2300
@<TRIPOS>BOND
     1     8     6    2
     2    11    10    2
     3    12    10    1
     4     4     1    2
     5     2     1    1
     6    10     9    1
     7    10    13    1
     8     6     5    1
     9     6     9    1
    10     6     7    1
    11     5     1    1
    12     1     3    1
    13    14    13    1
    14    14    15    1
    15    17    15    1
    16    17    18    1
    17    17    19    1
    18    15    16    1
    19    16    21    1
    20    19    21    1
    21    19    20    1
    22    23    24    1
    23    23    22    1
    24    21    22    1
    25    24    25    2
    26    22    32    1
    27    25    32    1
    28    25    26    1
    29    32    31    2
    30    26    27    2
    31    26    28    2
    32    31    29    2
    33    29    28    2
    34    29    30    1
