@<TRIPOS>MOLECULE
3qt0_486_A_1.pdb
 32 36 0 0 0
SMALL
GASTEIGER

@<TRIPOS>ATOM
      1  O30        1.1770  -22.4360   -5.0040 O.2     4  4864       -0.2913
      2  C2         0.6460  -22.0010   -6.0080 C.2     4  4864        0.1731
      3  C1        -0.8430  -21.7770   -6.1990 C.3     4  4864        0.0738
      4  C3         1.2280  -21.6760   -7.0450 C.2     4  4864        0.0329
      5  C4         1.2920  -21.2830   -8.2070 C.2     4  4864       -0.0239
      6  C7         2.4670  -21.1520   -9.1300 C.3     4  4864        0.0264
      7  C5        -0.0710  -20.9980   -8.5890 C.2     4  4864       -0.0332
      8  C6        -1.0860  -20.8750   -7.4430 C.3     4  4864        0.0335
      9  C10       -0.4060  -20.8970   -9.8780 C.2     4  4864       -0.0450
     10  C14       -1.8780  -20.7220  -10.2150 C.3     4  4864        0.0403
     11  C18       -2.1700  -19.2630  -10.2290 C.ar    4  4864       -0.0187
     12  C22       -3.3280  -18.7800  -10.8120 C.ar    4  4864       -0.0027
     13  C23       -3.5800  -17.4090  -10.8260 C.ar    4  4864        0.0142
     14  C24       -2.6830  -16.5180  -10.2570 C.ar    4  4864        0.0479
     15  N27       -2.9460  -15.1410  -10.3060 N.pl3   4  4864       -0.3041
     16  C29       -4.1140  -14.6620  -11.0180 C.3     4  4864        0.1122
     17  C28       -2.0310  -14.1770   -9.7070 C.3     4  4864        0.1122
     18  C25       -1.5120  -17.0030   -9.6770 C.ar    4  4864        0.0142
     19  C26       -1.2640  -18.3730   -9.6580 C.ar    4  4864       -0.0027
     20  C13       -2.2830  -21.3970  -11.5390 C.3     4  4864        0.0117
     21  C12       -1.2340  -21.3030  -12.6490 C.3     4  4864        0.0374
     22  C19       -1.0610  -19.8710  -13.1490 C.3     4  4864        0.0035
     23  C17       -1.4690  -22.1940  -13.8860 C.3     4  4864        0.1788
     24  C31       -2.4580  -23.2580  -13.6110 C.1     4  4864       -0.0622
     25  C30       -3.2650  -24.0830  -13.3360 C.1     4  4864       -0.0877
     26  C32       -4.3060  -25.0930  -13.0900 C.3     4  4864        0.0900
     27  O3        -2.0260  -21.4360  -14.9630 O.3     4  4864       -0.2125
     28  C16       -0.0820  -22.6700  -14.3320 C.3     4  4864        0.0430
     29  C15        0.9440  -22.1290  -13.3170 C.3     4  4864        0.0040
     30  C11        0.0710  -21.8470  -12.0900 C.3     4  4864        0.0071
     31  C9         0.6510  -20.9830  -10.9680 C.3     4  4864        0.0187
     32  C8         1.9700  -21.6120  -10.4980 C.3     4  4864        0.0087
@<TRIPOS>BOND
     1    27    23    1
     2    28    23    1
     3    28    29    1
     4    23    24    1
     5    23    21    1
     6    24    25    3
     7    25    26    1
     8    29    30    1
     9    22    21    1
    10    21    30    1
    11    21    20    1
    12    30    31    1
    13    20    10    1
    14    16    15    1
    15    31    32    1
    16    31     9    1
    17    13    12   ar
    18    13    14   ar
    19    12    11   ar
    20    32     6    1
    21    15    14    1
    22    15    17    1
    23    14    18   ar
    24    11    10    1
    25    11    19   ar
    26    10     9    1
    27     9     7    2
    28    18    19   ar
    29     6     5    1
    30     7     5    1
    31     7     8    1
    32     5     4    2
    33     8     3    1
    34     4     2    1
    35     3     2    1
    36     2     1    2
