@<TRIPOS>MOLECULE
3qt2_BGC_A_1.pdb
 12 12 0 0 0
SMALL
GASTEIGER

@<TRIPOS>ATOM
      1  C2        47.8560   27.8380   92.2550 C.3   317  BGC317      0.2434
      2  C3        47.6170   26.9030   93.4500 C.3   317  BGC317      0.2199
      3  C4        46.5960   25.8180   93.1200 C.3   317  BGC317      0.2144
      4  C5        46.9590   25.2340   91.7560 C.3   317  BGC317      0.1836
      5  C6        46.2170   23.9160   91.4640 C.3   317  BGC317      0.2142
      6  C1        46.9590   27.5700   91.0180 C.3   317  BGC317      0.3024
      7  O1        45.7480   28.3060   91.0890 O.3   317  BGC317     -0.1869
      8  O2        49.2330   27.8330   91.9020 O.3   317  BGC317     -0.2148
      9  O3        47.1890   27.6410   94.5760 O.3   317  BGC317     -0.2174
     10  O4        46.5900   24.8180   94.1270 O.3   317  BGC317     -0.2176
     11  O5        46.6640   26.1960   90.7470 O.3   317  BGC317     -0.3236
     12  O6        47.0650   22.7860   91.5350 O.3   317  BGC317     -0.2176
@<TRIPOS>BOND
     1    11     6    1
     2    11     4    1
     3     6     7    1
     4     6     1    1
     5     5    12    1
     6     5     4    1
     7     4     3    1
     8     8     1    1
     9     1     2    1
    10     3     2    1
    11     3    10    1
    12     2     9    1
