@<TRIPOS>MOLECULE
3qt6_2P0_A_1.pdb
 20 20 0 0 0
SMALL
GASTEIGER

@<TRIPOS>ATOM
      1  C        -25.2360  -23.2340  -18.4070 C.2   328  2P0328      0.7003
      2  N        -27.0380  -22.4710  -19.7900 N.am  328  2P0328     -0.2641
      3  O        -24.5740  -23.1160  -17.3430 O.co2 328  2P0328     -0.1773
      4  CA       -26.6360  -22.7670  -18.4540 C.3   328  2P0328      0.2561
      5  CB       -27.5340  -23.8540  -17.9730 C.3   328  2P0328      0.0402
      6  CD       -27.8900  -23.4920  -20.2990 C.3   328  2P0328      0.0942
      7  CG       -28.4920  -24.1450  -19.0980 C.3   328  2P0328      0.0240
      8  OAB      -27.0920  -21.2310  -21.6910 O.2   328  2P0328     -0.2721
      9  OAC      -25.4300  -14.6190  -19.8330 O.3   328  2P0328     -0.1143
     10  OAD      -23.4860  -18.0640  -22.0650 O.2   328  2P0328     -0.5169
     11  OAF      -23.8420  -15.7710  -18.3320 O.3   328  2P0328     -0.1143
     12  OAG      -23.1720  -15.3450  -20.5960 O.2   328  2P0328     -0.2221
     13  OAH      -23.2270  -18.8310  -19.6940 O.3   328  2P0328     -0.4370
     14  CAK      -25.7610  -20.2670  -20.0230 C.3   328  2P0328      0.2336
     15  OAM      -25.2630  -19.4300  -21.0070 O.3   328  2P0328     -0.3038
     16  OAN      -24.9670  -17.0590  -20.2170 O.3   328  2P0328     -0.2261
     17  CAP      -26.6590  -21.3330  -20.5550 C.2   328  2P0328      0.2568
     18  PAS      -24.3680  -15.6790  -19.7420 P.3   328  2P0328      0.5373
     19  PAT      -24.1880  -18.3240  -20.7570 P.3   328  2P0328      0.2234
     20  OXT      -24.6740  -23.7410  -19.4210 O.co2 328  2P0328      0.2820
@<TRIPOS>UNITY_ATOM_ATTR
20 1
charge 1
@<TRIPOS>BOND
     1    10    19    2
     2     8    17    2
     3    15    19    1
     4    15    14    1
     5    19    16    1
     6    19    13    1
     7    12    18    2
     8    17    14    1
     9    17     2   am
    10     6     2    1
    11     6     7    1
    12    16    18    1
    13     9    18    1
    14     2     4    1
    15    18    11    1
    16    20     1   ar
    17     7     5    1
    18     4     1    1
    19     4     5    1
    20     1     3   ar
