@<TRIPOS>MOLECULE
3qt7_FM0_A_1.pdb
 19 18 0 0 0
SMALL
GASTEIGER

@<TRIPOS>ATOM
      1  OAA       16.7630  -23.6440  -18.3890 O.co2 328  FM0328     -0.2455
      2  OAB       15.9520  -14.5410  -20.0410 O.3   328  FM0328     -0.1143
      3  OAC       17.9760  -18.6900  -19.5180 O.3   328  FM0328     -0.4271
      4  OAD       15.8770  -23.2580  -16.4250 O.co2 328  FM0328     -0.2455
      5  OAE       15.0760  -23.1430  -20.5210 O.3   328  FM0328     -0.2176
      6  OAF       17.4640  -15.5300  -18.4030 O.3   328  FM0328     -0.1143
      7  OAG       18.0800  -15.6950  -20.8110 O.2   328  FM0328     -0.2221
      8  OAH       16.7890  -18.5750  -21.7230 O.2   328  FM0328     -0.5080
      9  FAI       12.5020  -22.7510  -21.4000 F     328  FM0328     -0.2312
     10  CAJ       12.8150  -23.2140  -20.1750 C.3   328  FM0328      0.2282
     11  CAK       15.5000  -20.6620  -19.7490 C.2   328  FM0328      0.1766
     12  CAL       14.1600  -21.3100  -19.4600 C.2   328  FM0328      0.0471
     13  CAM       14.3400  -23.4040  -18.2220 C.3   328  FM0328      0.1515
     14  OAN       15.5530  -19.3010  -19.5710 O.2   328  FM0328     -0.4368
     15  OAO       16.1140  -16.9620  -19.8450 O.3   328  FM0328     -0.2160
     16  CAP       15.7370  -23.4360  -17.6580 C.2   328  FM0328      0.3678
     17  CAQ       14.1090  -22.7790  -19.5890 C.3   328  FM0328      0.1914
     18  PAR       16.9380  -15.6560  -19.8100 P.3   328  FM0328      0.5380
     19  PAS       16.6630  -18.3750  -20.2240 P.3   328  FM0328      0.2779
@<TRIPOS>BOND
     1     8    19    2
     2     9    10    1
     3     7    18    2
     4     5    17    1
     5    19    15    1
     6    19    14    1
     7    19     3    1
     8    10    17    1
     9     2    18    1
    10    15    18    1
    11    18     6    1
    12    11    14    1
    13    11    12    2
    14    17    12    1
    15    17    13    1
    16     1    16   ar
    17    13    16    1
    18    16     4   ar
