@<TRIPOS>MOLECULE
3qt8_FM0_A_1.pdb
 19 18 0 0 0
SMALL
GASTEIGER

@<TRIPOS>ATOM
      1  OAA      -16.7320   27.4150   18.3390 O.co2 328  FM0328     -0.2455
      2  OAB      -18.0920   35.0690   20.6530 O.3   328  FM0328     -0.1143
      3  OAC      -18.0440   32.0350   19.4630 O.2   328  FM0328     -0.5080
      4  OAD      -15.8070   27.4160   16.3370 O.co2 328  FM0328     -0.2455
      5  OAE      -15.0590   27.6110   20.4770 O.3   328  FM0328     -0.2176
      6  OAF      -15.9320   36.1170   19.9860 O.3   328  FM0328     -0.1143
      7  OAG      -17.4190   35.1550   18.2640 O.2   328  FM0328     -0.2221
      8  OAH      -17.0300   32.2050   21.7450 O.3   328  FM0328     -0.4271
      9  FAI      -12.4100   28.0910   21.2740 F     328  FM0328     -0.2312
     10  CAJ      -12.7860   27.5590   20.0930 C.3   328  FM0328      0.2282
     11  CAK      -15.5320   30.0160   19.8030 C.2   328  FM0328      0.1766
     12  CAL      -14.2350   29.3910   19.3090 C.2   328  FM0328      0.0471
     13  CAM      -14.3360   27.1870   18.2130 C.3   328  FM0328      0.1515
     14  OAN      -15.6360   31.3780   19.6710 O.2   328  FM0328     -0.4368
     15  OAO      -16.1640   33.7060   19.9250 O.3   328  FM0328     -0.2160
     16  CAP      -15.6990   27.3430   17.5910 C.2   328  FM0328      0.3678
     17  CAQ      -14.1060   27.9310   19.5190 C.3   328  FM0328      0.1914
     18  PAR      -16.9320   35.0210   19.6890 P.3   328  FM0328      0.5380
     19  PAS      -16.7800   32.3040   20.2520 P.3   328  FM0328      0.2779
@<TRIPOS>BOND
     1     4    16   ar
     2    16    13    1
     3    16     1   ar
     4    13    17    1
     5     7    18    2
     6    12    17    1
     7    12    11    2
     8     3    19    2
     9    17    10    1
    10    17     5    1
    11    14    11    1
    12    14    19    1
    13    18    15    1
    14    18     6    1
    15    18     2    1
    16    15    19    1
    17    10     9    1
    18    19     8    1
