@<TRIPOS>MOLECULE
3qtb_D5M_A_1.pdb
 22 24 0 0 0
SMALL
GASTEIGER

@<TRIPOS>ATOM
      1  O5'       19.3540   15.1680   -8.7150 O.3   135  D5M135     -0.2675
      2  C5'       19.5530   16.5760   -8.5960 C.3   135  D5M135      0.1859
      3  C4'       18.2320   17.3590   -8.6050 C.3   135  D5M135      0.1796
      4  O4'       17.2180   16.5640   -9.2250 O.3   135  D5M135     -0.3155
      5  C3'       17.7120   17.7660   -7.2220 C.3   135  D5M135      0.1883
      6  O3'       17.1320   19.0900   -7.1900 O.3   135  D5M135     -0.2202
      7  C2'       16.6400   16.7420   -6.9450 C.3   135  D5M135      0.1151
      8  C1'       16.1120   16.4250   -8.3410 C.3   135  D5M135      0.2873
      9  N9        15.5540   15.0580   -8.4320 N.pl3 135  D5M135     -0.1460
     10  C8        16.2230   13.8840   -8.3470 C.3   135  D5M135      0.3377
     11  N7        15.3700   12.8290   -8.4710 N.2   135  D5M135     -0.2095
     12  C5        14.1260   13.3240   -8.6400 C.2   135  D5M135      0.2526
     13  C6        12.7500   12.7800   -8.8350 C.2   135  D5M135      0.4393
     14  N6        12.5060   11.4480   -8.8730 N.pl3 135  D5M135      0.2180
     15  N1        11.7380   13.6730   -8.9760 N.2   135  D5M135      0.0021
     16  C2        11.9490   15.0110   -8.9340 C.3   135  D5M135      0.5254
     17  N3        13.1590   15.5710   -8.7640 N.2   135  D5M135     -0.0055
     18  C4        14.2640   14.7970   -8.6170 C.2   135  D5M135      0.3518
     19  P         20.6120   14.1680   -8.8800 P.3   135  D5M135      0.5327
     20  O1P       21.5510   14.5530   -7.7600 O.3   135  D5M135     -0.1145
     21  O3P       20.0430   12.7680   -8.7740 O.3   135  D5M135     -0.1145
     22  O2P       21.1530   14.5320  -10.2410 O.2   135  D5M135     -0.2224
@<TRIPOS>BOND
     1    22    19    2
     2     4     3    1
     3     4     8    1
     4    15    16    1
     5    15    13    2
     6    16    17    1
     7    19    21    1
     8    19     1    1
     9    19    20    1
    10    14    13    1
    11    13    12    1
    12    17    18    2
    13     1     2    1
    14    12    18    1
    15    12    11    2
    16    18     9    1
    17     3     2    1
    18     3     5    1
    19    11    10    1
    20     9    10    1
    21     9     8    1
    22     8     7    1
    23     5     6    1
    24     5     7    1
