@<TRIPOS>MOLECULE
3qtc_0A1_A_1.pdb
 14 14 0 0 0
SMALL
GASTEIGER

@<TRIPOS>ATOM
      1  N         -6.9860  -43.9120    5.6630 N.3   811  0A1811     -0.1205
      2  CA        -8.3540  -43.5840    5.2880 C.3   811  0A1811      0.1986
      3  CB        -8.4990  -43.2410    3.7940 C.3   811  0A1811      0.0569
      4  CG        -7.8890  -44.3390    2.9470 C.ar  811  0A1811     -0.0200
      5  CD1       -6.6010  -44.1590    2.4600 C.ar  811  0A1811     -0.0011
      6  CE1       -6.0070  -45.1500    1.6850 C.ar  811  0A1811      0.0366
      7  CZ        -6.7020  -46.3270    1.4170 C.ar  811  0A1811      0.1387
      8  OH        -6.0830  -47.2860    0.6640 O.3   811  0A1811     -0.4714
      9  CM        -6.6680  -48.5800    0.5340 C.3   811  0A1811      0.2525
     10  CE2       -7.9990  -46.5210    1.9090 C.ar  811  0A1811      0.0366
     11  CD2       -8.5950  -45.5160    2.6730 C.ar  811  0A1811     -0.0011
     12  C         -9.2410  -44.7430    5.6260 C.2   811  0A1811      0.3822
     13  O        -10.4720  -44.5650    5.5150 O.co2 811  0A1811     -0.2440
     14  OXT       -8.7370  -45.8380    5.9930 O.co2 811  0A1811     -0.2440
@<TRIPOS>BOND
     1     9     8    1
     2     8     7    1
     3     7     6   ar
     4     7    10   ar
     5     6     5   ar
     6    10    11   ar
     7     5     4   ar
     8    11     4   ar
     9     4     3    1
    10     3     2    1
    11     2    12    1
    12     2     1    1
    13    13    12   ar
    14    12    14   ar
