@<TRIPOS>MOLECULE
3qtc_ANP_A_1.pdb
 31 33 0 0 0
SMALL
GASTEIGER

@<TRIPOS>ATOM
      1  PG        -9.2580  -34.2000    7.3880 P.3   810  ANP810      0.4884
      2  O1G      -10.1770  -34.5520    8.5480 O.3   810  ANP810     -0.1240
      3  O2G       -7.8430  -33.8980    7.8870 O.3   810  ANP810     -0.1240
      4  O3G       -9.7590  -33.2250    6.3750 O.2   810  ANP810     -0.2331
      5  PB        -8.9430  -37.2220    7.2940 P.3   810  ANP810      0.4669
      6  O1B       -7.5050  -37.6620    7.3960 O.2   810  ANP810     -0.2351
      7  O2B       -9.7340  -37.3040    8.5660 O.3   810  ANP810     -0.1253
      8  N3B       -8.9920  -35.6790    6.5230 N.3   810  ANP810     -0.0163
      9  PA        -9.3110  -39.6720    5.8190 P.3   810  ANP810      0.2220
     10  O1A       -9.5170  -40.5090    7.0490 O.3   810  ANP810     -0.4370
     11  O2A       -8.0220  -39.7660    5.0400 O.2   810  ANP810     -0.5170
     12  O3A       -9.6300  -38.1510    6.1670 O.3   810  ANP810     -0.2360
     13  O5'      -10.5350  -39.9210    4.8030 O.3   810  ANP810     -0.3111
     14  C5'      -10.3730  -39.9230    3.3910 C.3   810  ANP810      0.1813
     15  C4'      -11.1620  -38.7820    2.7580 C.3   810  ANP810      0.1821
     16  O4'      -12.5400  -38.7780    3.1910 O.3   810  ANP810     -0.3135
     17  C3'      -10.6390  -37.4040    3.1140 C.3   810  ANP810      0.2184
     18  O3'       -9.5070  -37.0290    2.3230 O.3   810  ANP810     -0.2174
     19  C2'      -11.8380  -36.5210    2.8200 C.3   810  ANP810      0.2570
     20  O2'      -11.9600  -36.2340    1.4260 O.3   810  ANP810     -0.2130
     21  C1'      -13.0010  -37.4110    3.1960 C.3   810  ANP810      0.3186
     22  N9       -13.4720  -37.0840    4.5600 N.pl3 810  ANP810     -0.1439
     23  C8       -12.9400  -37.5120    5.7240 C.3   810  ANP810      0.3377
     24  N7       -13.6340  -37.0340    6.7970 N.2   810  ANP810     -0.2095
     25  C5       -14.6420  -36.2930    6.2860 C.2   810  ANP810      0.2526
     26  C6       -15.7480  -35.4940    6.8330 C.2   810  ANP810      0.4393
     27  N6       -15.9340  -35.4280    8.1720 N.pl3 810  ANP810      0.2180
     28  N1       -16.5520  -34.8540    5.9520 N.2   810  ANP810      0.0021
     29  C2       -16.3890  -34.9230    4.6140 C.3   810  ANP810      0.5254
     30  N3       -15.3990  -35.6360    4.0360 N.2   810  ANP810     -0.0055
     31  C4       -14.5250  -36.3200    4.8170 C.2   810  ANP810      0.3518
@<TRIPOS>BOND
     1    20    19    1
     2    18    17    1
     3    15    17    1
     4    15    16    1
     5    15    14    1
     6    19    17    1
     7    19    21    1
     8    16    21    1
     9    21    22    1
    10    14    13    1
    11    30    29    1
    12    30    31    2
    13    22    31    1
    14    22    23    1
    15    29    28    1
    16    13     9    1
    17    31    25    1
    18    11     9    2
    19    23    24    1
    20     9    12    1
    21     9    10    1
    22    28    26    2
    23    12     5    1
    24    25    24    2
    25    25    26    1
    26     4     1    2
    27     8     5    1
    28     8     1    1
    29    26    27    1
    30     5     6    2
    31     5     7    1
    32     1     3    1
    33     1     2    1
