@<TRIPOS>MOLECULE
3qtf_05S_A_1.pdb
 30 33 0 0 0
SMALL
GASTEIGER

@<TRIPOS>ATOM
      1  C1        40.9670    9.5160   23.0940 C.3     1  05S1        0.0323
      2  C2        39.8260   10.3680   23.5450 C.ar    1  05S1       -0.0060
      3  C3        38.4780    9.9980   23.6320 C.ar    1  05S1        0.0369
      4  N1        37.7700   11.1130   24.0970 N.ar    1  05S1       -0.3170
      5  C4        38.6560   12.1500   24.2970 C.ar    1  05S1        0.0432
      6  C5        39.9260   11.7080   24.0140 C.ar    1  05S1        0.0438
      7  C6        41.0750   12.5990   24.1560 C.2     1  05S1        0.1739
      8  O1        42.2250   12.1610   24.1540 O.2     1  05S1       -0.2913
      9  C7        40.8080   14.0170   24.6660 C.3     1  05S1        0.0695
     10  C8        39.5280   14.1530   25.5310 C.3     1  05S1        0.0128
     11  C9        38.3090   13.5110   24.8140 C.3     1  05S1        0.0446
     12  C10       39.2290   15.6360   25.8520 C.3     1  05S1        0.0008
     13  C11       39.7600   13.4120   26.8590 C.3     1  05S1        0.0008
     14  C12       36.3830   11.2190   24.3390 C.2     1  05S1        0.0467
     15  C13       35.5670   12.1320   23.6770 C.2     1  05S1        0.0136
     16  C14       34.1870   12.0850   23.9000 C.2     1  05S1        0.0070
     17  C15       33.6230   11.1340   24.7800 C.2     1  05S1        0.0702
     18  C16       34.4490   10.2110   25.4670 C.2     1  05S1        0.0640
     19  C17       35.8280   10.3190   25.2510 C.3     1  05S1        0.0895
     20  N2        33.9420    9.2800   26.3700 N.2     1  05S1       -0.2747
     21  C18       34.7250    8.3350   27.1730 C.3     1  05S1        0.1203
     22  C19       35.1630    7.1110   26.3490 C.3     1  05S1        0.1128
     23  N3        35.7730    7.4700   25.0270 N.3     1  05S1       -0.2160
     24  C20       36.9200    6.6230   24.5420 C.3     1  05S1        0.0892
     25  C21       38.1060    7.4870   24.1080 C.3     1  05S1        0.0250
     26  C22       37.8270    8.7010   23.2000 C.3     1  05S1        0.0453
     27  C23       33.8410    7.8840   28.3480 C.3     1  05S1        0.0278
     28  C24       32.1520   11.1360   25.0010 C.2     1  05S1        0.2853
     29  O2        31.6910   10.6610   26.0290 O.2     1  05S1       -0.2666
     30  N4        31.3740   11.7050   24.0170 N.am    1  05S1       -0.0837
@<TRIPOS>BOND
     1     1     2    1
     2    26     3    1
     3    26    25    1
     4     2     3   ar
     5     2     6   ar
     6     3     4   ar
     7    15    16    1
     8    15    14    2
     9    16    17    2
    10     6     7    1
    11     6     5   ar
    12    30    28   am
    13     4     5   ar
    14     4    14    1
    15    25    24    1
    16     8     7    2
    17     7     9    1
    18     5    11    1
    19    14    19    1
    20    24    23    1
    21     9    10    1
    22    17    28    1
    23    17    18    1
    24    11    10    1
    25    28    29    2
    26    23    22    1
    27    19    18    1
    28    18    20    2
    29    10    12    1
    30    10    13    1
    31    22    21    1
    32    20    21    1
    33    21    27    1
