@<TRIPOS>MOLECULE
3qti_3QT_A_1.pdb
 26 30 0 0 0
SMALL
GASTEIGER

@<TRIPOS>ATOM
      1  C1        12.8950   26.7010  -15.7680 C.ar    1  3QT1        0.0813
      2  N1        12.2710   27.4330  -14.8030 N.ar    1  3QT1       -0.2438
      3  C2        12.2100   25.6260  -16.3870 C.ar    1  3QT1        0.0188
      4  N2        16.2280   22.6330  -17.6010 N.ar    1  3QT1       -0.2144
      5  C3        12.8310   24.8610  -17.4040 C.ar    1  3QT1       -0.0023
      6  N3        17.1110   23.5310  -17.0700 N.ar    1  3QT1       -0.1639
      7  C4        14.1710   25.1290  -17.7900 C.ar    1  3QT1       -0.0161
      8  N4        20.1790   25.8430  -15.3800 N.ar    1  3QT1       -0.1675
      9  C5        14.8480   24.3290  -18.8940 C.3     1  3QT1        0.0738
     10  N5        20.7550   24.8170  -14.7140 N.ar    1  3QT1       -0.2473
     11  C6        15.1780   22.9410  -18.4430 C.ar    1  3QT1        0.0856
     12  N6        15.1800   20.6930  -18.0700 N.ar    1  3QT1       -0.2238
     13  C7        18.0450   22.9740  -16.2770 C.ar    1  3QT1        0.1045
     14  C8        19.0320   23.9190  -15.7360 C.ar    1  3QT1        0.0589
     15  C9        19.1550   25.3070  -16.0280 C.ar    1  3QT1        0.1232
     16  C10       20.0930   23.6300  -14.9220 C.ar    1  3QT1        0.0982
     17  C11       21.9520   25.0550  -13.9380 C.3     1  3QT1        0.1538
     18  C12       18.1130   21.5670  -16.0080 C.ar    1  3QT1        0.0241
     19  C13       17.1980   20.7030  -16.5620 C.ar    1  3QT1        0.0404
     20  C14       16.1870   21.2340  -17.4020 C.ar    1  3QT1        0.1635
     21  C15       14.5490   21.7550  -18.7070 C.ar    1  3QT1        0.1156
     22  C16       14.8910   26.1790  -17.1570 C.ar    1  3QT1       -0.0024
     23  C17       14.2540   26.9650  -16.1600 C.ar    1  3QT1        0.0174
     24  C18       14.9670   27.9880  -15.4960 C.ar    1  3QT1        0.0031
     25  C19       14.3150   28.7300  -14.4810 C.ar    1  3QT1        0.0207
     26  C20       12.9660   28.4180  -14.1810 C.ar    1  3QT1        0.0988
@<TRIPOS>BOND
     1     9    11    1
     2     9     7    1
     3    21    11   ar
     4    21    12   ar
     5    11     4   ar
     6    12    20   ar
     7     7     5   ar
     8     7    22   ar
     9     4    20   ar
    10     4     6   ar
    11     5     3   ar
    12    20    19   ar
    13    22    23   ar
    14     6    13   ar
    15    19    18   ar
    16     3     1   ar
    17    13    18   ar
    18    13    14    1
    19    23     1   ar
    20    23    24   ar
    21    15    14   ar
    22    15     8   ar
    23     1     2   ar
    24    14    16   ar
    25    24    25   ar
    26     8    10   ar
    27    16    10   ar
    28     2    26   ar
    29    10    17    1
    30    25    26   ar
