@<TRIPOS>MOLECULE
3qto_10P_H_1.pdb
 27 29 0 0 0
SMALL
GASTEIGER

@<TRIPOS>ATOM
      1  N22       16.2450  -16.0150   22.9050 N.3   1001  10P1001    -0.1228
      2  C3        17.5270  -15.3320   22.9680 C.3   1001  10P1001     0.1721
      3  C4        17.3150  -13.9460   22.4080 C.2   1001  10P1001     0.2437
      4  O24       16.4100  -13.2450   22.8480 O.2   1001  10P1001    -0.2733
      5  C2        17.9810  -15.3150   24.4320 C.3   1001  10P1001     0.0547
      6  C1        19.3940  -14.7950   24.5660 C.ar  1001  10P1001    -0.0202
      7  C5        19.6390  -13.7000   25.3810 C.ar  1001  10P1001    -0.0042
      8  C9        20.4430  -15.4020   23.8780 C.ar  1001  10P1001    -0.0042
      9  C6        20.9260  -13.2020   25.5000 C.ar  1001  10P1001    -0.0003
     10  C8        21.7350  -14.9070   24.0050 C.ar  1001  10P1001    -0.0003
     11  C7        21.9760  -13.8030   24.8140 C.ar  1001  10P1001    -0.0000
     12  N23       18.1100  -13.5150   21.4340 N.am  1001  10P1001    -0.2718
     13  C10       17.9050  -12.1760   20.8580 C.3   1001  10P1001     0.1535
     14  C11       16.5020  -12.0120   20.3250 C.2   1001  10P1001     0.2598
     15  O25       15.9740  -12.8780   19.6250 O.2   1001  10P1001    -0.2715
     16  C14       18.9370  -12.0970   19.7400 C.3   1001  10P1001     0.0310
     17  C15       19.9880  -13.1470   20.0810 C.3   1001  10P1001     0.0237
     18  C16       19.2240  -14.2400   20.8090 C.3   1001  10P1001     0.0939
     19  C12       14.4710  -10.6000   20.2420 C.3   1001  10P1001     0.1389
     20  C13       13.4610  -11.2050   21.1990 C.2   1001  10P1001    -0.0030
     21  C17       12.8040  -10.4460   22.1600 C.3   1001  10P1001     0.1152
     22  C18       11.2320  -10.1850   24.0120 C.3   1001  10P1001     0.1125
     23  C19       11.6370  -12.3130   22.9410 C.2   1001  10P1001     0.0616
     24  C20       12.2650  -13.1190   22.0010 C.2   1001  10P1001     0.0152
     25  C21       13.1920  -12.5690   21.1300 C.2   1001  10P1001    -0.0038
     26  N26       15.8480  -10.9030   20.6690 N.am  1001  10P1001    -0.1995
     27  N27       11.9160  -11.0010   22.9970 N.pl3 1001  10P1001    -0.3011
@<TRIPOS>BOND
     1    15    14    2
     2    16    17    1
     3    16    13    1
     4    17    18    1
     5    19    26    1
     6    19    20    1
     7    14    26   am
     8    14    13    1
     9    18    12    1
    10    13    12    1
    11    25    20    2
    12    25    24    1
    13    20    21    1
    14    12     3   am
    15    24    23    2
    16    21    27    1
    17     3     4    2
    18     3     2    1
    19     1     2    1
    20    23    27    1
    21     2     5    1
    22    27    22    1
    23     8    10   ar
    24     8     6   ar
    25    10    11   ar
    26     5     6    1
    27     6     7   ar
    28    11     9   ar
    29     7     9   ar
