@<TRIPOS>MOLECULE
3qtp_2PG_A_1.pdb
 11 10 0 0 0
SMALL
GASTEIGER

@<TRIPOS>ATOM
      1  C1        30.8120  -10.5730  -21.1510 C.2   437  2PG437      0.3946
      2  C2        29.7370  -10.0680  -22.2200 C.3   437  2PG437      0.2610
      3  C3        28.2700  -10.5560  -21.8900 C.3   437  2PG437      0.2237
      4  P         30.2760   -7.4520  -22.4890 P.3   437  2PG437      0.5331
      5  O1        31.1660   -9.9090  -20.1760 O.co2 437  2PG437     -0.2428
      6  O2        31.2850  -11.6910  -21.3710 O.co2 437  2PG437     -0.2428
      7  O3        27.2560   -9.8730  -22.6010 O.3   437  2PG437     -0.2170
      8  O1P       29.8280   -8.7480  -22.8460 O.3   437  2PG437     -0.2583
      9  O2P       31.5420   -6.9730  -22.7310 O.3   437  2PG437     -0.1145
     10  O3P       29.3080   -6.6230  -23.1570 O.2   437  2PG437     -0.2224
     11  O4P       30.3190   -7.3060  -21.1220 O.3   437  2PG437     -0.1145
@<TRIPOS>BOND
     1    10     4    2
     2     8     4    1
     3     8     2    1
     4     9     4    1
     5     7     3    1
     6     4    11    1
     7     2     3    1
     8     2     1    1
     9     6     1   ar
    10     1     5   ar
