@<TRIPOS>MOLECULE
3qtq_X35_A_1.pdb
 18 19 0 0 0
SMALL
GASTEIGER

@<TRIPOS>ATOM
      1  N1       -65.3260  -82.0010  -86.0600 N.2   476  X35476     -0.3605
      2  C2       -66.3280  -81.1600  -86.4100 C.2   476  X35476      0.2306
      3  N3       -66.7390  -81.0890  -87.6840 N.pl3 476  X35476     -0.0924
      4  C4       -66.8490  -80.4050  -85.3510 C.2   476  X35476      0.1189
      5  C5       -67.8690  -79.4570  -85.4530 C.2   476  X35476      0.2070
      6  C6       -68.3940  -78.6320  -84.3090 C.ar  476  X35476      0.0587
      7  C7       -69.7890  -78.4780  -84.0780 C.ar  476  X35476      0.1020
      8  N8       -70.2250  -77.7000  -83.0130 N.ar  476  X35476     -0.2422
      9  C9       -69.3510  -77.0550  -82.1470 C.ar  476  X35476      0.0989
     10  C10      -67.9590  -77.1720  -82.3370 C.ar  476  X35476      0.0208
     11  C11      -67.4870  -77.9640  -83.4260 C.ar  476  X35476      0.0064
     12  O12      -68.4480  -79.2160  -86.6480 O.2   476  X35476     -0.2858
     13  S13      -66.0340  -80.8100  -83.8760 S.3   476  X35476     -0.0313
     14  C14      -65.0590  -81.9250  -84.7510 C.2   476  X35476      0.2325
     15  N15      -64.0840  -82.6850  -84.1970 N.pl3 476  X35476     -0.2041
     16  C16      -63.7740  -82.5690  -82.7760 C.3   476  X35476      0.1154
     17  C17      -62.4100  -81.9760  -82.5800 C.3   476  X35476      0.0234
     18  C18      -62.1950  -80.5310  -82.5310 C.3   476  X35476      0.0019
@<TRIPOS>BOND
     1     3     2    1
     2    12     5    1
     3     2     1    2
     4     2     4    1
     5     1    14    2
     6     5     4    2
     7     5     6    1
     8     4    13    1
     9    14    15    1
    10    14    13    1
    11     6     7   ar
    12     6    11   ar
    13    15    16    1
    14     7     8   ar
    15    11    10   ar
    16     8     9   ar
    17    16    17    1
    18    17    18    1
    19    10     9   ar
