@<TRIPOS>MOLECULE
3qtr_X36_A_1.pdb
 21 23 0 0 0
SMALL
GASTEIGER

@<TRIPOS>ATOM
      1  N1        91.7380   81.8750  -51.0020 N.2   497  X36497     -0.3601
      2  C2        92.8210   81.1210  -51.3000 C.2   497  X36497      0.2306
      3  N3        93.3290   81.1370  -52.5370 N.pl3 497  X36497     -0.0924
      4  C4        93.3100   80.3550  -50.2310 C.2   497  X36497      0.1188
      5  C5        94.4160   79.4660  -50.2440 C.2   497  X36497      0.2055
      6  C6        94.8760   78.6390  -49.0580 C.ar  497  X36497      0.0396
      7  C7        93.9210   77.8670  -48.2200 C.ar  497  X36497      0.0032
      8  C8        94.3930   77.1080  -47.1180 C.ar  497  X36497      0.0001
      9  C9        95.7650   77.0490  -46.7690 C.ar  497  X36497      0.0000
     10  C10       96.7440   77.7800  -47.5560 C.ar  497  X36497      0.0001
     11  C11       96.3040   78.5690  -48.6940 C.ar  497  X36497      0.0032
     12  O12       95.1300   79.3060  -51.3820 O.2   497  X36497     -0.2859
     13  S13       92.3400   80.6440  -48.8520 S.3   497  X36497     -0.0310
     14  C14       91.3620   81.7220  -49.7370 C.2   497  X36497      0.2367
     15  N15       90.2650   82.4100  -49.2730 N.pl3 497  X36497     -0.1779
     16  C16       89.6400   82.4060  -48.0430 C.ar  497  X36497      0.0736
     17  C17       88.4920   83.3120  -47.8780 C.ar  497  X36497      0.0166
     18  C18       87.7790   83.3710  -46.6240 C.ar  497  X36497      0.0013
     19  C19       88.1790   82.5310  -45.5010 C.ar  497  X36497      0.0001
     20  C20       89.3060   81.6140  -45.6160 C.ar  497  X36497      0.0013
     21  C21       90.0320   81.5460  -46.8650 C.ar  497  X36497      0.0166
@<TRIPOS>BOND
     1     3     2    1
     2    12     5    1
     3     2     1    2
     4     2     4    1
     5     1    14    2
     6     5     4    2
     7     5     6    1
     8     4    13    1
     9    14    15    1
    10    14    13    1
    11    15    16    1
    12     6    11   ar
    13     6     7   ar
    14    11    10   ar
    15     7     8   ar
    16    16    17   ar
    17    16    21   ar
    18    17    18   ar
    19    10     9   ar
    20     8     9   ar
    21    21    20   ar
    22    18    19   ar
    23    20    19   ar
