@<TRIPOS>MOLECULE
3qts_X46_A_1.pdb
 23 25 0 0 0
SMALL
GASTEIGER

@<TRIPOS>ATOM
      1  C1        94.6970   77.1150  -45.9280 C.ar  299  X46299      0.0369
      2  N1        91.5880   81.7670  -51.0210 N.2   299  X46299     -0.3601
      3  S1        91.9990   80.7250  -48.6970 S.3   299  X46299     -0.0310
      4  C2        94.6490   78.6040  -45.9850 C.ar  299  X46299      0.1388
      5  N2        93.1730   80.5960  -52.3660 N.pl3 299  X46299     -0.0924
      6  C3        94.4070   79.2600  -47.2610 C.ar  299  X46299      0.0401
      7  N3        90.1470   82.6800  -49.3430 N.pl3 299  X46299     -0.1779
      8  O3        94.6470   78.7150  -50.9120 O.2   299  X46299     -0.2859
      9  C4        94.2590   76.9840  -48.4130 C.ar  299  X46299      0.0034
     10  C5        94.5010   76.3100  -47.1560 C.ar  299  X46299      0.0032
     11  O6        94.8310   79.4290  -44.8390 O.3   299  X46299     -0.4714
     12  C7        95.0620   79.0020  -43.5900 C.3   299  X46299      0.2525
     13  C10       94.2060   78.4580  -48.5010 C.ar  299  X46299      0.0426
     14  C11       93.9560   79.1040  -49.8330 C.2   299  X46299      0.2056
     15  C12       92.9190   80.1850  -49.9980 C.2   299  X46299      0.1188
     16  C13       92.5840   80.8460  -51.1720 C.2   299  X46299      0.2306
     17  C14       91.1660   81.8130  -49.7360 C.2   299  X46299      0.2367
     18  C15       89.3870   82.6670  -48.1580 C.ar  299  X46299      0.0736
     19  C16       89.5380   81.6480  -47.0320 C.ar  299  X46299      0.0166
     20  C17       88.7290   81.7050  -45.8450 C.ar  299  X46299      0.0013
     21  C18       87.7360   82.7710  -45.7110 C.ar  299  X46299      0.0001
     22  C19       87.5680   83.7710  -46.7920 C.ar  299  X46299      0.0013
     23  C20       88.3730   83.7200  -47.9870 C.ar  299  X46299      0.0166
@<TRIPOS>BOND
     1     5    16    1
     2    16     2    2
     3    16    15    1
     4     2    17    2
     5     8    14    1
     6    15    14    2
     7    15     3    1
     8    14    13    1
     9    17     7    1
    10    17     3    1
    11     7    18    1
    12    13     9   ar
    13    13     6   ar
    14     9    10   ar
    15    18    23   ar
    16    18    19   ar
    17    23    22   ar
    18     6     4   ar
    19    10     1   ar
    20    19    20   ar
    21    22    21   ar
    22     4     1   ar
    23     4    11    1
    24    20    21   ar
    25    11    12    1
