@<TRIPOS>MOLECULE
3qtt_ANP_A_1.pdb
 31 33 0 0 0
SMALL
GASTEIGER

@<TRIPOS>ATOM
      1  PG         0.3880   35.5910  136.7800 P.3   271  ANP271      0.4884
      2  O1G       -0.2230   35.0470  138.0020 O.3   271  ANP271     -0.1240
      3  O2G        1.3440   34.5440  136.0920 O.2   271  ANP271     -0.2331
      4  O3G        1.2290   36.8790  137.0590 O.3   271  ANP271     -0.1240
      5  PB        -0.4230   34.5210  134.5910 P.3   271  ANP271      0.4669
      6  O1B       -0.1220   33.1100  135.2350 O.3   271  ANP271     -0.1253
      7  O2B       -1.6670   34.3180  133.7310 O.2   271  ANP271     -0.2351
      8  N3B       -0.7210   35.8190  135.6550 N.3   271  ANP271     -0.0163
      9  PA         2.3630   34.9030  133.6870 P.3   271  ANP271      0.2220
     10  O1A        3.0390   36.1820  133.7310 O.3   271  ANP271     -0.4370
     11  O2A        2.5660   34.4180  132.2650 O.2   271  ANP271     -0.5170
     12  O3A        0.7330   34.9750  133.6590 O.3   271  ANP271     -0.2360
     13  O5'        3.2120   33.8810  134.5160 O.3   271  ANP271     -0.3111
     14  C5'        4.5000   33.6650  133.9930 C.3   271  ANP271      0.1813
     15  C4'        5.3930   32.6230  134.5060 C.3   271  ANP271      0.1821
     16  O4'        5.6210   32.9340  135.8260 O.3   271  ANP271     -0.3135
     17  C3'        4.7050   31.2930  134.5030 C.3   271  ANP271      0.2184
     18  O3'        5.6000   30.2250  134.3350 O.3   271  ANP271     -0.2174
     19  C2'        4.0320   31.2980  135.7530 C.3   271  ANP271      0.2570
     20  O2'        3.7510   30.0210  136.2140 O.3   271  ANP271     -0.2130
     21  C1'        5.0340   31.9110  136.6400 C.3   271  ANP271      0.3186
     22  N9         4.4510   32.3990  137.8980 N.pl3 271  ANP271     -0.1439
     23  C8         3.4020   33.1980  138.0340 C.3   271  ANP271      0.3377
     24  N7         3.1250   33.3730  139.3280 N.2   271  ANP271     -0.2095
     25  C5         4.0210   32.6600  140.0210 C.2   271  ANP271      0.2526
     26  C6         4.2290   32.4920  141.3910 C.2   271  ANP271      0.4393
     27  N6         3.4030   33.1280  142.3290 N.pl3 271  ANP271      0.2180
     28  N1         5.2370   31.7020  141.7710 N.2   271  ANP271      0.0021
     29  C2         6.0250   31.0940  140.8740 C.3   271  ANP271      0.5254
     30  N3         5.8590   31.2440  139.5470 N.2   271  ANP271     -0.0055
     31  C4         4.8670   32.0240  139.1110 C.2   271  ANP271      0.3518
@<TRIPOS>BOND
     1    11     9    2
     2    12     9    1
     3    12     5    1
     4     9    10    1
     5     9    13    1
     6     7     5    2
     7    14    15    1
     8    14    13    1
     9    18    17    1
    10    17    15    1
    11    17    19    1
    12    15    16    1
    13     5     6    1
    14     5     8    1
    15     8     1    1
    16    19    20    1
    17    19    21    1
    18    16    21    1
    19     3     1    2
    20    21    22    1
    21     1     4    1
    22     1     2    1
    23    22    23    1
    24    22    31    1
    25    23    24    1
    26    31    30    2
    27    31    25    1
    28    24    25    2
    29    30    29    1
    30    25    26    1
    31    29    28    1
    32    26    28    2
    33    26    27    1
