@<TRIPOS>MOLECULE
3qtu_X44_A_1.pdb
 29 31 0 0 0
SMALL
GASTEIGER

@<TRIPOS>ATOM
      1  N01      119.0990   10.0720  -50.8930 N.2   451  X44451     -0.3642
      2  N02      117.9680   10.7430  -49.0780 N.pl3 451  X44451     -0.1781
      3  N03      120.5090    9.1440  -52.4730 N.pl3 451  X44451     -0.0965
      4  N04      115.1730    8.9970  -43.2680 N.3   451  X44451      0.0392
      5  N05      124.0330    2.7550  -46.2640 N.3   451  X44451      0.0392
      6  C06      120.7350    8.5230  -50.2260 C.3   451  X44451      0.1864
      7  C07      120.1350    9.2420  -51.2580 C.2   451  X44451      0.2162
      8  C08      118.8990   10.0100  -49.6080 C.2   451  X44451      0.2328
      9  C09      117.2200   10.5150  -48.0490 C.ar  451  X44451      0.0737
     10  C10      121.7910    7.6170  -50.3730 C.2   451  X44451      0.1913
     11  C11      122.2480    6.8630  -49.3100 C.ar  451  X44451      0.0361
     12  C12      116.2110   11.4830  -47.7490 C.ar  451  X44451      0.0180
     13  C13      115.3520   11.2960  -46.6460 C.ar  451  X44451      0.0213
     14  C14      115.4980   10.1370  -45.8330 C.ar  451  X44451      0.1251
     15  C15      116.4910    9.1800  -46.1170 C.ar  451  X44451      0.0213
     16  C16      117.3480    9.3610  -47.2110 C.ar  451  X44451      0.0180
     17  C17      123.6470    6.8180  -49.0270 C.ar  451  X44451      0.0043
     18  C18      124.1200    6.0500  -47.9410 C.ar  451  X44451      0.0201
     19  C19      123.2100    5.3230  -47.1270 C.ar  451  X44451      0.1250
     20  C20      121.8210    5.3550  -47.3940 C.ar  451  X44451      0.0201
     21  C21      121.3390    6.1220  -48.4860 C.ar  451  X44451      0.0043
     22  O22      122.3110    7.4670  -51.4650 O.2   451  X44451     -0.2899
     23  O23      113.2990    9.1170  -44.9710 O.2   451  X44451     -0.1503
     24  O24      113.9530   11.1630  -43.9800 O.2   451  X44451     -0.1503
     25  O25      125.1160    4.9040  -45.3710 O.2   451  X44451     -0.1503
     26  O26      122.8970    4.4110  -44.6600 O.2   451  X44451     -0.1503
     27  S27      119.9550    8.9300  -48.7470 S.3   451  X44451     -0.0494
     28  S28      114.4140    9.8830  -44.4770 S.O2  451  X44451      0.0935
     29  S29      123.8310    4.3560  -45.7570 S.O2  451  X44451      0.0935
@<TRIPOS>BOND
     1     3     7    1
     2    22    10    2
     3     7     1    2
     4     7     6    1
     5     1     8    2
     6    10     6    1
     7    10    11    1
     8     6    27    1
     9     8     2    1
    10     8    27    1
    11    11    17   ar
    12    11    21   ar
    13     2     9    1
    14    17    18   ar
    15    21    20   ar
    16     9    12   ar
    17     9    16   ar
    18    18    19   ar
    19    12    13   ar
    20    20    19   ar
    21    16    15   ar
    22    19    29    1
    23    13    14   ar
    24     5    29    1
    25    15    14   ar
    26    14    28    1
    27    29    25    2
    28    29    26    2
    29    23    28    2
    30    28    24    2
    31    28     4    1
