@<TRIPOS>MOLECULE
3qtv_06P_H_1.pdb
 27 29 0 0 0
SMALL
GASTEIGER

@<TRIPOS>ATOM
      1  N4        16.3240  -15.5750   23.1220 N.3   1001  06P1001    -0.1228
      2  C3        17.5740  -14.8360   23.1290 C.3   1001  06P1001     0.1721
      3  C5        17.3340  -13.4700   22.5350 C.2   1001  06P1001     0.2437
      4  O7        16.4020  -12.7660   22.9200 O.2   1001  06P1001    -0.2733
      5  C2        18.0670  -14.7750   24.5810 C.3   1001  06P1001     0.0547
      6  C1        19.4860  -14.2600   24.6610 C.ar  1001  06P1001    -0.0202
      7  C8        19.7430  -13.0940   25.3650 C.ar  1001  06P1001    -0.0042
      8  C12       20.5370  -14.9340   24.0400 C.ar  1001  06P1001    -0.0042
      9  C9        21.0300  -12.5830   25.4470 C.ar  1001  06P1001    -0.0003
     10  C11       21.8300  -14.4270   24.1340 C.ar  1001  06P1001    -0.0003
     11  C10       22.0810  -13.2550   24.8330 C.ar  1001  06P1001    -0.0000
     12  N6        18.1550  -13.0590   21.5740 N.am  1001  06P1001    -0.2718
     13  C13       17.9440  -11.7490   20.9560 C.3   1001  06P1001     0.1535
     14  C14       16.5540  -11.6290   20.3890 C.2   1001  06P1001     0.2598
     15  O15       16.0470  -12.5660   19.7770 O.2   1001  06P1001    -0.2715
     16  C19       18.9730  -11.7000   19.8310 C.3   1001  06P1001     0.0310
     17  C20       20.0360  -12.7230   20.2060 C.3   1001  06P1001     0.0237
     18  C21       19.2970  -13.7850   21.0070 C.3   1001  06P1001     0.0939
     19  N16       15.9050  -10.4820   20.5940 N.am  1001  06P1001    -0.1992
     20  C17       14.5420  -10.2290   20.0990 C.3   1001  06P1001     0.1413
     21  C18       13.5360  -10.4590   21.2090 C.2   1001  06P1001    -0.0019
     22  C22       13.2030   -9.4420   22.1000 C.2   1001  06P1001    -0.0073
     23  C23       12.2790   -9.6970   23.1090 C.3   1001  06P1001     0.1173
     24  N24       11.7190  -10.9100   23.2440 N.pl3 1001  06P1001    -0.3009
     25  C25       10.7470  -11.1450   24.3190 C.3   1001  06P1001     0.1125
     26  C26       12.0350  -11.9080   22.4010 C.2   1001  06P1001     0.0614
     27  C27       12.9460  -11.7040   21.3730 C.2   1001  06P1001     0.0130
@<TRIPOS>BOND
     1    15    14    2
     2    16    17    1
     3    16    13    1
     4    20    19    1
     5    20    21    1
     6    17    18    1
     7    14    19   am
     8    14    13    1
     9    13    12    1
    10    18    12    1
    11    21    27    1
    12    21    22    2
    13    27    26    2
    14    12     3   am
    15    22    23    1
    16    26    24    1
    17     3     4    2
    18     3     2    1
    19    23    24    1
    20     1     2    1
    21     2     5    1
    22    24    25    1
    23     8    10   ar
    24     8     6   ar
    25    10    11   ar
    26     5     6    1
    27     6     7   ar
    28    11     9   ar
    29     7     9   ar
