@<TRIPOS>MOLECULE
3qtw_X3A_A_1.pdb
 21 23 0 0 0
SMALL
GASTEIGER

@<TRIPOS>ATOM
      1  N1        92.3700   10.3700  -86.9760 N.2   451  X3A451     -0.3601
      2  C2        93.4350    9.6370  -87.3250 C.2   451  X3A451      0.2306
      3  N3        93.9080    9.7100  -88.5750 N.pl3 451  X3A451     -0.0924
      4  C4        93.9520    8.8320  -86.3000 C.2   451  X3A451      0.1189
      5  C5        95.0470    7.9600  -86.3890 C.2   451  X3A451      0.2070
      6  C6        95.5550    7.0720  -85.2750 C.ar  451  X3A451      0.0587
      7  C7        96.9630    6.8970  -84.9710 C.ar  451  X3A451      0.1020
      8  N8        97.3350    6.0390  -83.9240 N.ar  451  X3A451     -0.2422
      9  C9        96.4100    5.3280  -83.1400 C.ar  451  X3A451      0.0989
     10  C10       95.0130    5.4600  -83.3990 C.ar  451  X3A451      0.0208
     11  C11       94.5920    6.3280  -84.4650 C.ar  451  X3A451      0.0064
     12  O12       95.7190    7.8530  -87.5460 O.2   451  X3A451     -0.2858
     13  S13       93.0330    9.0570  -84.8740 S.3   451  X3A451     -0.0310
     14  C14       92.0250   10.1750  -85.7000 C.2   451  X3A451      0.2367
     15  N15       90.9390   10.8670  -85.1920 N.pl3 451  X3A451     -0.1779
     16  C16       90.3440   10.8550  -83.9370 C.ar  451  X3A451      0.0736
     17  C17       89.2110   11.7450  -83.7240 C.ar  451  X3A451      0.0166
     18  C18       88.5460   11.7920  -82.4520 C.ar  451  X3A451      0.0013
     19  C19       88.9940   10.9480  -81.3650 C.ar  451  X3A451      0.0001
     20  C20       90.1080   10.0550  -81.5450 C.ar  451  X3A451      0.0013
     21  C21       90.7770   10.0070  -82.8090 C.ar  451  X3A451      0.0166
@<TRIPOS>BOND
     1     3     2    1
     2    12     5    1
     3     2     1    2
     4     2     4    1
     5     1    14    2
     6     5     4    2
     7     5     6    1
     8     4    13    1
     9    14    15    1
    10    14    13    1
    11     6     7   ar
    12     6    11   ar
    13    15    16    1
    14     7     8   ar
    15    11    10   ar
    16    16    17   ar
    17    16    21   ar
    18     8     9   ar
    19    17    18   ar
    20    10     9   ar
    21    21    20   ar
    22    18    19   ar
    23    20    19   ar
