@<TRIPOS>MOLECULE
3qtx_X43_A_1.pdb
 28 30 0 0 0
SMALL
GASTEIGER

@<TRIPOS>ATOM
      1  N1       -11.9140  -82.0730  -86.7360 N.2   299  X43299     -0.3601
      2  C2       -12.9810  -81.3120  -87.0170 C.2   299  X43299      0.2306
      3  N3       -13.5540  -81.3820  -88.2410 N.pl3 299  X43299     -0.0924
      4  C4       -13.3910  -80.4840  -85.9640 C.2   299  X43299      0.1188
      5  C5       -14.4480  -79.5900  -85.9840 C.2   299  X43299      0.2055
      6  C6       -14.8280  -78.7200  -84.8240 C.ar  299  X43299      0.0412
      7  C7       -16.1670  -78.7160  -84.3190 C.ar  299  X43299      0.0273
      8  C8       -16.5410  -77.8800  -83.1970 C.ar  299  X43299      0.1430
      9  C9       -15.5180  -77.0470  -82.6020 C.ar  299  X43299      0.0241
     10  C10      -14.1900  -77.0460  -83.1040 C.ar  299  X43299      0.0018
     11  C11      -13.8440  -77.8750  -84.2060 C.ar  299  X43299      0.0033
     12  O12      -15.2080  -79.4480  -87.1010 O.2   299  X43299     -0.2859
     13  S13      -12.3740  -80.7180  -84.5890 S.3   299  X43299     -0.0310
     14  C14      -11.4500  -81.8600  -85.5010 C.2   299  X43299      0.2367
     15  N15      -10.3370  -82.5560  -85.0840 N.pl3 299  X43299     -0.1779
     16  C16       -9.6170  -82.3580  -83.9260 C.ar  299  X43299      0.0737
     17  N17      -17.7950  -77.8880  -82.7260 N.pl3 299  X43299      0.0577
     18  O18      -18.7360  -78.6530  -83.2720 O.2   299  X43299     -0.1261
     19  O19      -18.1250  -77.1980  -81.7830 O.2   299  X43299     -0.1261
     20  C20       -8.4620  -83.1730  -83.7230 C.ar  299  X43299      0.0180
     21  C21       -7.6310  -82.9700  -82.5980 C.ar  299  X43299      0.0213
     22  C22       -7.9290  -81.9590  -81.6510 C.ar  299  X43299      0.1251
     23  C23       -9.0750  -81.1460  -81.8130 C.ar  299  X43299      0.0213
     24  C24       -9.9070  -81.3360  -82.9420 C.ar  299  X43299      0.0180
     25  S25       -6.8560  -81.7170  -80.3010 S.O2  299  X43299      0.0935
     26  O26       -5.4890  -81.0910  -80.9540 O.2   299  X43299     -0.1503
     27  O27       -6.5040  -83.0140  -79.6120 O.2   299  X43299     -0.1503
     28  N28       -7.3820  -80.6060  -79.3420 N.3   299  X43299      0.0392
@<TRIPOS>BOND
     1     3     2    1
     2    12     5    1
     3     2     1    2
     4     2     4    1
     5     1    14    2
     6     5     4    2
     7     5     6    1
     8     4    13    1
     9    14    15    1
    10    14    13    1
    11    15    16    1
    12     6     7   ar
    13     6    11   ar
    14     7     8   ar
    15    11    10   ar
    16    16    20   ar
    17    16    24   ar
    18    20    21   ar
    19    18    17    2
    20     8    17    1
    21     8     9   ar
    22    10     9   ar
    23    24    23   ar
    24    17    19    2
    25    21    22   ar
    26    23    22   ar
    27    22    25    1
    28    26    25    2
    29    25    27    2
    30    25    28    1
