@<TRIPOS>MOLECULE
3qtz_X42_A_1.pdb
 26 28 0 0 0
SMALL
GASTEIGER

@<TRIPOS>ATOM
      1  N01      -65.0970   25.4400  -86.3070 N.2   453  X42453     -0.3642
      2  N02      -63.8670   24.8820  -84.5120 N.pl3 453  X42453     -0.1781
      3  N03      -66.6120   26.2710  -87.8390 N.pl3 453  X42453     -0.0965
      4  N04      -61.1610   26.6900  -78.6330 N.3   453  X42453      0.0392
      5  C05      -66.7520   26.9710  -85.6020 C.3   453  X42453      0.1864
      6  C06      -66.1790   26.2310  -86.6460 C.2   453  X42453      0.2162
      7  C07      -64.8350   25.5600  -85.0270 C.2   453  X42453      0.2328
      8  C08      -63.1480   25.1300  -83.4680 C.ar  453  X42453      0.0737
      9  C09      -67.8490   27.8350  -85.7120 C.2   453  X42453      0.1914
     10  C10      -68.2710   28.6270  -84.6410 C.ar  453  X42453      0.0383
     11  C11      -67.3390   29.4390  -83.8940 C.ar  453  X42453      0.0030
     12  C12      -67.7900   30.2340  -82.8060 C.ar  453  X42453      0.0024
     13  C13      -69.1620   30.2390  -82.4450 C.ar  453  X42453      0.0296
     14  C14      -70.0920   29.4530  -83.1710 C.ar  453  X42453      0.1402
     15  C15      -69.6560   28.6460  -84.2670 C.ar  453  X42453      0.0325
     16  C16      -62.1540   24.1610  -83.1280 C.ar  453  X42453      0.0180
     17  C17      -61.3110   24.3680  -82.0130 C.ar  453  X42453      0.0213
     18  C18      -61.4590   25.5490  -81.2280 C.ar  453  X42453      0.1251
     19  C19      -62.4440   26.5120  -81.5470 C.ar  453  X42453      0.0213
     20  C20      -63.2860   26.3090  -82.6590 C.ar  453  X42453      0.0180
     21  O21      -68.4610   27.8970  -86.7780 O.2   453  X42453     -0.2899
     22  O22      -59.2810   26.6190  -80.3400 O.2   453  X42453     -0.1503
     23  O23      -59.8810   24.5570  -79.3690 O.2   453  X42453     -0.1503
     24  F24      -71.3740   29.4670  -82.8240 F     453  X42453     -0.2042
     25  S25      -65.8720   26.6380  -84.1570 S.3   453  X42453     -0.0494
     26  S26      -60.3810   25.8280  -79.8640 S.O2  453  X42453      0.0935
@<TRIPOS>BOND
     1     3     6    1
     2    21     9    2
     3     6     1    2
     4     6     5    1
     5     1     7    2
     6     9     5    1
     7     9    10    1
     8     5    25    1
     9     7     2    1
    10     7    25    1
    11    10    15   ar
    12    10    11   ar
    13     2     8    1
    14    15    14   ar
    15    11    12   ar
    16     8    16   ar
    17     8    20   ar
    18    14    24    1
    19    14    13   ar
    20    16    17   ar
    21    12    13   ar
    22    20    19   ar
    23    17    18   ar
    24    19    18   ar
    25    18    26    1
    26    22    26    2
    27    26    23    2
    28    26     4    1
