@<TRIPOS>MOLECULE
3qu0_X40_A_1.pdb
 25 27 0 0 0
SMALL
GASTEIGER

@<TRIPOS>ATOM
      1  N01      -38.6610  -81.9650  -50.6080 N.2   454  X40454     -0.3642
      2  N02      -37.3580  -82.5350  -48.8450 N.pl3 454  X40454     -0.1781
      3  N03      -43.4120  -77.5010  -47.6610 N.ar  454  X40454     -0.2422
      4  N04      -40.1910  -81.1210  -52.1010 N.pl3 454  X40454     -0.0965
      5  N05      -34.6580  -80.8710  -42.8680 N.3   454  X40454      0.0392
      6  C06      -40.2480  -80.3860  -49.8870 C.3   454  X40454      0.1865
      7  C07      -39.7270  -81.1550  -50.9270 C.2   454  X40454      0.2162
      8  C08      -38.3540  -81.8390  -49.3480 C.2   454  X40454      0.2328
      9  C09      -36.6270  -82.2800  -47.7930 C.ar  454  X40454      0.0737
     10  C10      -41.3170  -79.4950  -49.9960 C.2   454  X40454      0.1928
     11  C11      -41.6580  -78.6140  -48.9690 C.ar  454  X40454      0.0552
     12  C12      -40.6770  -77.9230  -48.1810 C.ar  454  X40454      0.0060
     13  C13      -41.0640  -77.0430  -47.1460 C.ar  454  X40454      0.0208
     14  C14      -42.4370  -76.8620  -46.9180 C.ar  454  X40454      0.0989
     15  C15      -43.0090  -78.3590  -48.6610 C.ar  454  X40454      0.1017
     16  C16      -36.6640  -81.0350  -47.0570 C.ar  454  X40454      0.0180
     17  C17      -35.8240  -80.8420  -45.9320 C.ar  454  X40454      0.0213
     18  C18      -34.9370  -81.8780  -45.5220 C.ar  454  X40454      0.1251
     19  C19      -34.8900  -83.1110  -46.2330 C.ar  454  X40454      0.0213
     20  C20      -35.7300  -83.3080  -47.3580 C.ar  454  X40454      0.0180
     21  O21      -41.9690  -79.4700  -51.0430 O.2   454  X40454     -0.2899
     22  O22      -32.7880  -80.7960  -44.5770 O.2   454  X40454     -0.1503
     23  O23      -33.3470  -82.9200  -43.7010 O.2   454  X40454     -0.1503
     24  S24      -39.3450  -80.7300  -48.4600 S.3   454  X40454     -0.0494
     25  S25      -33.8640  -81.6350  -44.1430 S.O2  454  X40454      0.0935
@<TRIPOS>BOND
     1     4     7    1
     2    21    10    2
     3     7     1    2
     4     7     6    1
     5     1     8    2
     6    10     6    1
     7    10    11    1
     8     6    24    1
     9     8     2    1
    10     8    24    1
    11    11    15   ar
    12    11    12   ar
    13     2     9    1
    14    15     3   ar
    15    12    13   ar
    16     9    20   ar
    17     9    16   ar
    18     3    14   ar
    19    20    19   ar
    20    13    14   ar
    21    16    17   ar
    22    19    18   ar
    23    17    18   ar
    24    18    25    1
    25    22    25    2
    26    25    23    2
    27    25     5    1
