@<TRIPOS>MOLECULE
3qu8_HEM_A_1.pdb
 43 50 0 0 0
SMALL
GASTEIGER

@<TRIPOS>ATOM
      1  CHA      -16.6590    4.6400    4.3220 C.2   500  HEM500      0.0000
      2  CHB      -12.6000    5.2350    1.7190 C.2   500  HEM500      0.0000
      3  CHC      -10.6560    1.3260    3.8500 C.2   500  HEM500      0.0000
      4  CHD      -14.8810    0.4240    6.0720 C.2   500  HEM500      0.0000
      5  C1A      -15.7600    5.0930    3.3810 C.ar  500  HEM500      0.0000
      6  C2A      -16.0180    6.0960    2.3660 C.ar  500  HEM500      0.0000
      7  C3A      -14.9030    6.2600    1.6510 C.ar  500  HEM500      0.0000
      8  C4A      -13.8920    5.3680    2.1820 C.ar  500  HEM500      0.0000
      9  CMA      -14.7220    7.2310    0.4640 C.3   500  HEM500      0.0000
     10  CAA      -17.3510    6.8450    2.1500 C.3   500  HEM500      0.0000
     11  CBA      -17.0680    8.2450    1.6180 C.3   500  HEM500      0.0000
     12  CGA      -18.2060    9.1620    1.9830 C.2   500  HEM500      0.0000
     13  O1A      -19.3830    8.7290    1.8760 O.co2 500  HEM500      0.0000
     14  O2A      -17.9370   10.3240    2.3810 O.co2 500  HEM500      0.0000
     15  C1B      -11.7130    4.2420    2.0760 C.2   500  HEM500      0.0000
     16  C2B      -10.3650    4.0770    1.5710 C.2   500  HEM500      0.0000
     17  C3B       -9.8300    3.0030    2.1570 C.2   500  HEM500      0.0000
     18  C4B      -10.8170    2.4420    3.0570 C.2   500  HEM500      0.0000
     19  CMB       -9.6670    4.9860    0.5360 C.3   500  HEM500      0.0000
     20  CAB       -8.4070    2.4540    1.9160 C.2   500  HEM500      0.0000
     21  CBB       -7.3940    3.2970    1.6940 C.2   500  HEM500      0.0000
     22  C1C      -11.6020    0.8000    4.7040 C.ar  500  HEM500      0.0000
     23  C2C      -11.3680   -0.1960    5.7300 C.ar  500  HEM500      0.0000
     24  C3C      -12.5290   -0.4440    6.3410 C.ar  500  HEM500      0.0000
     25  C4C      -13.5470    0.3850    5.7260 C.ar  500  HEM500      0.0000
     26  CMC      -10.0110   -0.8560    6.0610 C.3   500  HEM500      0.0000
     27  CAC      -12.7490   -1.4400    7.5000 C.2   500  HEM500      0.0000
     28  CBC      -13.9900   -1.7580    7.8810 C.2   500  HEM500      0.0000
     29  C1D      -15.7590    1.4570    5.8250 C.2   500  HEM500      0.0000
     30  C2D      -17.1130    1.5430    6.3290 C.2   500  HEM500      0.0000
     31  C3D      -17.6700    2.8640    5.7810 C.2   500  HEM500      0.0000
     32  C4D      -16.5970    3.4410    5.0010 C.2   500  HEM500      0.0000
     33  CMD      -17.8420    0.5220    7.2280 C.3   500  HEM500      0.0000
     34  CAD      -19.0780    3.4530    6.0120 C.3   500  HEM500      0.0000
     35  CBD      -18.9590    4.7850    6.7440 C.3   500  HEM500      0.0000
     36  CGD      -20.3260    5.2460    7.1750 C.2   500  HEM500      0.0000
     37  O1D      -20.4340    5.8720    8.2610 O.co2 500  HEM500      0.0000
     38  O2D      -21.3090    4.9880    6.4330 O.co2 500  HEM500      0.0000
     39  NA       -14.4520    4.6710    3.2380 N.ar  500  HEM500      0.0000
     40  NB       -11.9550    3.2250    2.9810 N.2   500  HEM500      0.0000
     41  NC       -12.9440    1.1310    4.7300 N.ar  500  HEM500      0.0000
     42  ND       -15.4980    2.5870    5.0530 N.2   500  HEM500      0.0000
     43 FE        -13.7240    2.9000    4.0070 Fe    500  HEM500      0.0000
@<TRIPOS>BOND
     1     9     7    1
     2    19    16    1
     3    16    15    1
     4    16    17    2
     5    11    12    1
     6    11    10    1
     7     7     8   ar
     8     7     6   ar
     9    21    20    2
    10     2    15    1
    11     2     8    2
    12    13    12   ar
    13    20    17    1
    14    12    14   ar
    15    15    40    2
    16    10     6    1
    17    17    18    1
    18     8    39   ar
    19     6     5   ar
    20    40    18    1
    21    40    43    1
    22    18     3    2
    23    39     5   ar
    24    39    43    1
    25     5     1    2
    26     3    22    1
    27    43    41    1
    28    43    42    1
    29     1    32    1
    30    22    41   ar
    31    22    23   ar
    32    41    25   ar
    33    32    42    2
    34    32    31    1
    35    42    29    1
    36    25     4    1
    37    25    24   ar
    38    23    26    1
    39    23    24   ar
    40    31    34    1
    41    31    30    2
    42    29     4    2
    43    29    30    1
    44    34    35    1
    45    30    33    1
    46    24    27    1
    47    38    36   ar
    48    35    36    1
    49    36    37   ar
    50    27    28    2
