@<TRIPOS>MOLECULE
3qu8_CM5_A_1.pdb
 34 37 0 0 0
SMALL
GASTEIGER

@<TRIPOS>ATOM
      1  C7       -39.7150   -2.0760  -20.1740 C.3   601  CM5601      0.0000
      2  C8       -39.4470   -0.8550  -19.3480 C.3   601  CM5601      0.0000
      3  C9       -40.6860   -0.4680  -18.6120 C.3   601  CM5601      0.0000
      4  C10      -40.9680   -1.5650  -17.6490 C.3   601  CM5601      0.0000
      5  C11      -41.1600   -2.8660  -18.4090 C.3   601  CM5601      0.0000
      6  C6       -39.9700   -3.2220  -19.2620 C.3   601  CM5601      0.0000
      7  C5       -40.3240   -4.4350  -20.0910 C.3   601  CM5601      0.0000
      8  C4       -39.9710   -5.7220  -19.3690 C.3   601  CM5601      0.0001
      9  C3       -39.6790   -6.8500  -20.3390 C.3   601  CM5601      0.0026
     10  C2       -38.4380   -7.5850  -19.9030 C.3   601  CM5601      0.0322
     11  C1       -38.4990   -9.0260  -20.3150 C.3   601  CM5601      0.1449
     12  O12      -37.8790   -9.7600  -19.3130 O.3   601  CM5601     -0.3286
     13  C13      -36.9830  -10.6220  -19.8960 C.3   601  CM5601      0.2695
     14  C18      -36.1050  -10.9680  -18.7620 C.3   601  CM5601      0.2404
     15  O22      -35.1600   -9.9050  -18.3530 O.3   601  CM5601     -0.2149
     16  C17      -35.0490  -11.8540  -18.8350 C.3   601  CM5601      0.2167
     17  O21      -34.3670  -12.0300  -17.9830 O.3   601  CM5601     -0.2175
     18  O14      -37.5710  -11.8290  -19.9050 O.3   601  CM5601     -0.3257
     19  C15      -36.5960  -12.6270  -20.3660 C.3   601  CM5601      0.1803
     20  C19      -37.2790  -13.7340  -21.0310 C.3   601  CM5601      0.2141
     21  O20      -38.3540  -14.1250  -20.2100 O.3   601  CM5601     -0.2176
     22  C16      -36.0350  -13.0670  -19.2590 C.3   601  CM5601      0.1805
     23  O23      -35.4660  -14.0470  -19.8960 O.3   601  CM5601     -0.3239
     24  C24      -35.1600  -15.1520  -19.2880 C.3   601  CM5601      0.2943
     25  O25      -35.4500  -16.3810  -18.9900 O.3   601  CM5601     -0.3238
     26  C26      -34.2080  -17.1740  -19.0540 C.3   601  CM5601      0.1835
     27  C30      -34.2980  -17.9050  -17.7330 C.3   601  CM5601      0.2142
     28  O31      -34.6830  -19.3190  -17.8670 O.3   601  CM5601     -0.2176
     29  C27      -33.0120  -16.6460  -19.2830 C.3   601  CM5601      0.2137
     30  O32      -32.5120  -17.9110  -20.0560 O.3   601  CM5601     -0.2176
     31  C28      -33.0550  -16.0280  -20.4010 C.3   601  CM5601      0.2095
     32  O33      -32.7590  -14.6570  -20.2650 O.3   601  CM5601     -0.3211
     33  C29      -34.2820  -15.2830  -20.3920 C.3   601  CM5601      0.2990
     34  O34      -34.8110  -16.1790  -21.4550 O.3   601  CM5601     -0.1871
@<TRIPOS>BOND
     1    34    33    1
     2    20    19    1
     3    20    21    1
     4    31    33    1
     5    31    32    1
     6    31    29    1
     7    33    32    1
     8    33    24    1
     9    19    18    1
    10    19    22    1
    11     9    10    1
    12     9     8    1
    13    11    10    1
    14    11    12    1
    15     1     2    1
    16     1     6    1
    17     7     8    1
    18     7     6    1
    19    30    29    1
    20    18    13    1
    21    23    24    1
    22    23    22    1
    23    13    12    1
    24    13    14    1
    25     2     3    1
    26    24    25    1
    27    29    26    1
    28     6     5    1
    29    22    16    1
    30    26    25    1
    31    26    27    1
    32    16    14    1
    33    16    17    1
    34    14    15    1
    35     3     4    1
    36     5     4    1
    37    28    27    1
