@<TRIPOS>MOLECULE
3qu8_3QU_B_1.pdb
 16 17 0 0 0
SMALL
GASTEIGER

@<TRIPOS>ATOM
      1  OAA      -49.2180   26.3770    2.4910 O.2   501  3QU501     -0.1261
      2  OAB      -47.8670   26.9790    4.0810 O.2   501  3QU501     -0.1261
      3  CAC      -54.2450   28.9110    8.5180 C.ar  501  3QU501      0.0986
      4  CAD      -53.4220   31.0460    8.9580 C.ar  501  3QU501      0.0986
      5  CAE      -53.9650   29.0270    7.1810 C.ar  501  3QU501      0.0167
      6  CAF      -53.1170   31.2340    7.6220 C.ar  501  3QU501      0.0167
      7  CAG      -50.6410   29.7610    5.2540 C.ar  501  3QU501     -0.0022
      8  CAH      -52.2550   28.4860    4.0080 C.ar  501  3QU501     -0.0022
      9  CAI      -49.6030   28.9650    4.8290 C.ar  501  3QU501      0.0238
     10  CAJ      -51.2300   27.6780    3.5770 C.ar  501  3QU501      0.0238
     11  CAK      -53.0860   30.3650    5.2820 C.3   501  3QU501      0.0527
     12  NAL      -53.9760   29.8970    9.3740 N.ar  501  3QU501     -0.2423
     13  CAM      -53.3990   30.1990    6.7430 C.ar  501  3QU501     -0.0147
     14  CAN      -51.9410   29.5130    4.8490 C.ar  501  3QU501     -0.0177
     15  CAO      -49.9290   27.9200    3.9840 C.ar  501  3QU501      0.1429
     16  NAP      -48.9540   27.0550    3.4880 N.pl3 501  3QU501      0.0577
@<TRIPOS>BOND
     1     1    16    2
     2    16    15    1
     3    16     2    2
     4    10    15   ar
     5    10     8   ar
     6    15     9   ar
     7     8    14   ar
     8     9     7   ar
     9    14     7   ar
    10    14    11    1
    11    11    13    1
    12    13     5   ar
    13    13     6   ar
    14     5     3   ar
    15     6     4   ar
    16     3    12   ar
    17     4    12   ar
