@<TRIPOS>MOLECULE
3qud_N3F_A_1.pdb
 22 24 0 0 0
SMALL
GASTEIGER

@<TRIPOS>ATOM
      1  NAA       -2.1980   -2.6940  -17.5930 N.pl3 361  N3F361     -0.1267
      2  OAB       -2.0130    3.6160  -23.6200 O.2   361  N3F361     -0.2866
      3  CAC       -0.7390    1.2180  -27.8290 C.ar  361  N3F361      0.0000
      4  CAD        0.0970    0.9020  -26.7530 C.ar  361  N3F361      0.0001
      5  CAE       -1.9270    1.9290  -27.6180 C.ar  361  N3F361      0.0001
      6  CAF       -5.1020   -0.9090  -16.2760 C.ar  361  N3F361      0.0015
      7  CAG       -5.5610   -0.2520  -17.4090 C.ar  361  N3F361      0.0014
      8  CAH       -3.9670   -1.7320  -16.3500 C.ar  361  N3F361      0.0194
      9  CAI       -0.2480    1.2900  -25.4640 C.ar  361  N3F361      0.0032
     10  CAJ       -2.2770    2.3120  -26.3200 C.ar  361  N3F361      0.0032
     11  CAK       -2.6820    0.8730  -20.4380 C.ar  361  N3F361      0.0166
     12  CAL       -2.5160   -0.8990  -22.0740 C.ar  361  N3F361      0.0166
     13  CAM       -4.8750   -0.4120  -18.6120 C.ar  361  N3F361      0.0179
     14  CAN       -2.3880    1.8000  -21.4420 C.ar  361  N3F361      0.0045
     15  CAO       -2.2150    0.0200  -23.0700 C.ar  361  N3F361      0.0045
     16  NAP       -3.0490   -1.4280  -19.8350 N.pl3 361  N3F361     -0.2111
     17  CAQ       -1.8380    2.4250  -23.8480 C.2   361  N3F361      0.1955
     18  CAR       -3.2850   -1.8970  -17.5440 C.ar  361  N3F361      0.1042
     19  CAS       -2.7460   -0.4880  -20.7540 C.ar  361  N3F361      0.0705
     20  CAT       -1.4420    1.9920  -25.2500 C.ar  361  N3F361      0.0390
     21  CAU       -2.1440    1.3800  -22.7510 C.ar  361  N3F361      0.0390
     22  CAV       -3.7240   -1.2250  -18.6860 C.ar  361  N3F361      0.0871
@<TRIPOS>BOND
     1     3     5   ar
     2     3     4   ar
     3     5    10   ar
     4     4     9   ar
     5    10    20   ar
     6     9    20   ar
     7    20    17    1
     8    17     2    2
     9    17    21    1
    10    15    21   ar
    11    15    12   ar
    12    21    14   ar
    13    12    19   ar
    14    14    11   ar
    15    19    11   ar
    16    19    16    1
    17    16    22    1
    18    22    13   ar
    19    22    18   ar
    20    13     7   ar
    21     1    18    1
    22    18     8   ar
    23     7     6   ar
    24     8     6   ar
