@<TRIPOS>MOLECULE
3que_3FF_A_1.pdb
 31 34 0 0 0
SMALL
GASTEIGER

@<TRIPOS>ATOM
      1  OAA        2.3180    3.9460   23.0190 O.2   362  3FF362     -0.2866
      2  OAB        3.3050    5.6500   30.5640 O.3   362  3FF362     -0.2174
      3  OAC        4.6640    3.4050   31.2010 O.3   362  3FF362     -0.2163
      4  FAD        6.0590    0.6140   14.8610 F     362  3FF362     -0.2041
      5  FAE        5.9520    0.0610   19.5230 F     362  3FF362     -0.2027
      6  CAF        4.0940   -0.3520   15.8310 C.ar  362  3FF362      0.0311
      7  CAG        3.3890    1.1640   20.1500 C.ar  362  3FF362      0.0166
      8  CAH        1.4440    1.6660   27.3690 C.ar  362  3FF362      0.0366
      9  CAI        0.6650    0.9990   26.4070 C.ar  362  3FF362     -0.0010
     10  CAJ        3.4130   -0.7550   16.9860 C.ar  362  3FF362      0.0211
     11  CAK        3.0750    2.0750   21.1380 C.ar  362  3FF362      0.0042
     12  CAL        5.9680    0.3020   17.2050 C.ar  362  3FF362      0.0606
     13  CAM        2.2090   -0.5560   21.3260 C.ar  362  3FF362      0.0123
     14  CAN        2.5350    2.9430   25.6320 C.ar  362  3FF362      0.0398
     15  CAO        4.3330    5.2260   29.6510 C.3   362  3FF362      0.2187
     16  CAP       -0.0140    0.5610   24.1130 C.3   362  3FF362      0.0311
     17  CAQ        1.0080   -0.3340   23.4130 C.3   362  3FF362      0.0312
     18  CAR        3.4600    2.8090   29.1760 C.3   362  3FF362      0.2408
     19  NAS        3.2840   -1.0430   19.2800 N.pl3 362  3FF362     -0.2102
     20  OAT        3.1610    3.3180   27.8470 O.3   362  3FF362     -0.4726
     21  CAU        2.0720    2.7620   23.2550 C.2   362  3FF362      0.1950
     22  CAV        5.3730    0.1890   15.9490 C.ar  362  3FF362      0.1425
     23  CAW        2.9730   -0.1550   20.2390 C.ar  362  3FF362      0.0703
     24  CAX        5.2960   -0.1060   18.3420 C.ar  362  3FF362      0.1575
     25  CAY        2.3780    2.6240   26.9720 C.ar  362  3FF362      0.1388
     26  CAZ        0.8410    1.3450   25.0640 C.ar  362  3FF362     -0.0186
     27  CBA        1.8730    0.3460   22.3270 C.ar  362  3FF362     -0.0175
     28  CBB        3.9970   -0.6450   18.2300 C.ar  362  3FF362      0.0980
     29  CBC        2.3070    1.6670   22.2200 C.ar  362  3FF362      0.0351
     30  CBD        1.7610    2.3110   24.6830 C.ar  362  3FF362      0.0380
     31  CBE        4.5640    3.7070   29.8120 C.3   362  3FF362      0.2280
@<TRIPOS>BOND
     1     4    22    1
     2     6    22   ar
     3     6    10   ar
     4    22    12   ar
     5    10    28   ar
     6    12    24   ar
     7    28    24   ar
     8    28    19    1
     9    24     5    1
    10    19    23    1
    11     7    23   ar
    12     7    11   ar
    13    23    13   ar
    14    11    29   ar
    15    13    27   ar
    16    29    27   ar
    17    29    21    1
    18    27    17    1
    19     1    21    2
    20    21    30    1
    21    17    16    1
    22    16    26    1
    23    30    26   ar
    24    30    14   ar
    25    26     9   ar
    26    14    25   ar
    27     9     8   ar
    28    25     8   ar
    29    25    20    1
    30    20    18    1
    31    18    31    1
    32    15    31    1
    33    15     2    1
    34    31     3    1
