@<TRIPOS>MOLECULE
3qui_ADP_A_1.pdb
 27 29 0 0 0
SMALL
GASTEIGER

@<TRIPOS>ATOM
      1  PB        11.9980    3.1250   27.5550 P.3   101  ADP101      0.5373
      2  O1B       10.9110    2.1180   27.8470 O.3   101  ADP101     -0.1143
      3  O2B       11.9300    3.5300   26.1160 O.2   101  ADP101     -0.2221
      4  O3B       11.7910    4.3420   28.4250 O.3   101  ADP101     -0.1143
      5  PA        13.7670    1.0330   27.2830 P.3   101  ADP101      0.2231
      6  O1A       13.1920   -0.0400   28.2110 O.3   101  ADP101     -0.4370
      7  O2A       13.2110    0.8550   25.8960 O.2   101  ADP101     -0.5169
      8  O3A       13.4050    2.4830   27.8450 O.3   101  ADP101     -0.2261
      9  O5'       15.3480    0.8770   27.2170 O.3   101  ADP101     -0.3111
     10  C5'       15.9020   -0.0300   26.2860 C.3   101  ADP101      0.1813
     11  C4'       16.8850    0.6980   25.4070 C.3   101  ADP101      0.1821
     12  O4'       16.2950    1.0700   24.2230 O.3   101  ADP101     -0.3135
     13  C3'       17.3450    1.9450   26.0750 C.3   101  ADP101      0.2184
     14  O3'       18.6950    1.9310   26.1130 O.3   101  ADP101     -0.2174
     15  C2'       16.8540    3.0640   25.2430 C.3   101  ADP101      0.2570
     16  O2'       17.7950    4.0420   25.1210 O.3   101  ADP101     -0.2130
     17  C1'       16.6550    2.3660   23.9820 C.3   101  ADP101      0.3186
     18  N9        15.5350    2.9800   23.1890 N.pl3 101  ADP101     -0.1439
     19  C8        14.2120    3.0160   23.5430 C.3   101  ADP101      0.3377
     20  N7        13.5290    3.6520   22.5420 N.2   101  ADP101     -0.2095
     21  C5        14.4300    3.9990   21.5720 C.2   101  ADP101      0.2526
     22  C6        14.2850    4.6500   20.3520 C.2   101  ADP101      0.4393
     23  N6        12.9850    5.0920   19.9280 N.pl3 101  ADP101      0.2180
     24  N1        15.3890    4.8700   19.5650 N.2   101  ADP101      0.0021
     25  C2        16.6300    4.4470   19.9760 C.3   101  ADP101      0.5254
     26  N3        16.7690    3.8010   21.1810 N.2   101  ADP101     -0.0055
     27  C4        15.6680    3.5790   21.9700 C.2   101  ADP101      0.3518
@<TRIPOS>BOND
     1    24    25    1
     2    24    22    2
     3    23    22    1
     4    25    26    1
     5    22    21    1
     6    26    27    2
     7    21    27    1
     8    21    20    2
     9    27    18    1
    10    20    19    1
    11    18    19    1
    12    18    17    1
    13    17    12    1
    14    17    15    1
    15    12    11    1
    16    16    15    1
    17    15    13    1
    18    11    13    1
    19    11    10    1
    20     7     5    2
    21    13    14    1
    22     3     1    2
    23    10     9    1
    24     9     5    1
    25     5     8    1
    26     5     6    1
    27     1     8    1
    28     1     2    1
    29     1     4    1
