@<TRIPOS>MOLECULE
3qui_ANP_D_1.pdb
 31 33 0 0 0
SMALL
GASTEIGER

@<TRIPOS>ATOM
      1  PG        49.2280   -9.6440   20.2540 P.3   101  ANP101      0.4884
      2  O1G       47.7450   -9.8300   20.0050 O.3   101  ANP101     -0.1240
      3  O2G       49.9080   -9.0270   18.9870 O.2   101  ANP101     -0.2331
      4  O3G       49.8720  -11.0430   20.5360 O.3   101  ANP101     -0.1240
      5  PB        48.1200   -7.7250   21.9970 P.3   101  ANP101      0.4669
      6  O1B       47.5080   -7.1080   20.7750 O.2   101  ANP101     -0.2351
      7  O2B       47.0560   -8.6140   22.7130 O.3   101  ANP101     -0.1253
      8  N3B       49.4750   -8.6350   21.5830 N.3   101  ANP101     -0.0163
      9  PA        47.5250   -5.4420   23.3910 P.3   101  ANP101      0.2220
     10  O1A       47.0390   -5.7120   24.8110 O.3   101  ANP101     -0.4370
     11  O2A       48.2080   -4.0830   23.3410 O.2   101  ANP101     -0.5170
     12  O3A       48.5690   -6.5700   22.9720 O.3   101  ANP101     -0.2360
     13  O5'       46.3050   -5.4540   22.3660 O.3   101  ANP101     -0.3111
     14  C5'       45.0950   -6.0780   22.6830 C.3   101  ANP101      0.1813
     15  C4'       43.9890   -5.1060   22.4890 C.3   101  ANP101      0.1821
     16  O4'       44.4220   -4.0250   21.7470 O.3   101  ANP101     -0.3135
     17  C3'       42.8930   -5.7350   21.7150 C.3   101  ANP101      0.2184
     18  O3'       41.7000   -5.2080   22.1480 O.3   101  ANP101     -0.2174
     19  C2'       43.1420   -5.3620   20.3110 C.3   101  ANP101      0.2570
     20  O2'       41.9510   -5.1910   19.6660 O.3   101  ANP101     -0.2130
     21  C1'       43.8400   -4.0920   20.4900 C.3   101  ANP101      0.3186
     22  N9        44.9080   -3.8290   19.4670 N.pl3 101  ANP101     -0.1439
     23  C8        46.2250   -4.1210   19.5750 C.3   101  ANP101      0.3377
     24  N7        46.8500   -3.6880   18.4480 N.2   101  ANP101     -0.2095
     25  C5        45.9290   -3.1260   17.6500 C.2   101  ANP101      0.2526
     26  C6        46.0050   -2.5280   16.3940 C.2   101  ANP101      0.4393
     27  N6        47.2820   -2.4320   15.7150 N.pl3 101  ANP101      0.2180
     28  N1        44.8630   -2.0320   15.8110 N.2   101  ANP101      0.0021
     29  C2        43.6590   -2.1090   16.4580 C.3   101  ANP101      0.5254
     30  N3        43.5980   -2.6940   17.6960 N.2   101  ANP101     -0.0055
     31  C4        44.7250   -3.2070   18.2870 C.2   101  ANP101      0.3518
@<TRIPOS>BOND
     1    27    26    1
     2    28    26    2
     3    28    29    1
     4    26    25    1
     5    29    30    1
     6    25    31    1
     7    25    24    2
     8    30    31    2
     9    31    22    1
    10    24    23    1
    11     3     1    2
    12    22    23    1
    13    22    21    1
    14    20    19    1
    15     2     1    1
    16     1     4    1
    17     1     8    1
    18    19    21    1
    19    19    17    1
    20    21    16    1
    21     6     5    2
    22     8     5    1
    23    17    18    1
    24    17    15    1
    25    16    15    1
    26     5     7    1
    27     5    12    1
    28    13    14    1
    29    13     9    1
    30    15    14    1
    31    12     9    1
    32    11     9    2
    33     9    10    1
