@<TRIPOS>MOLECULE
3qui_ADE_F_1.pdb
 10 11 0 0 0
SMALL
GASTEIGER

@<TRIPOS>ATOM
      1  N9        17.4460  -11.5630   12.8400 N.2   101  ADE101     -0.1914
      2  C8        17.7130  -10.7830   11.7490 C.3   101  ADE101      0.2618
      3  N7        18.4290   -9.7080   12.0140 N.2   101  ADE101     -0.2267
      4  C5        18.6520   -9.7930   13.3790 C.2   101  ADE101      0.2303
      5  C6        19.3520   -8.9670   14.2780 C.2   101  ADE101      0.4393
      6  N6        19.9830   -7.8410   13.9140 N.pl3 101  ADE101      0.2185
      7  N1        19.3770   -9.3420   15.5750 N.2   101  ADE101     -0.0265
      8  C2        18.7560  -10.4650   15.9400 C.3   101  ADE101      0.4008
      9  N3        18.0690  -11.3250   15.1900 N.2   101  ADE101     -0.1640
     10  C4        18.0550  -10.9290   13.9040 C.1   101  ADE101      0.0579
@<TRIPOS>BOND
     1     2     3    1
     2     2     1    1
     3     3     4    2
     4     1    10    2
     5     4    10    1
     6     4     5    1
     7    10     9    2
     8     6     5    1
     9     5     7    2
    10     9     8    1
    11     7     8    1
