@<TRIPOS>MOLECULE
3qun_ATP_A_1.pdb
 31 33 0 0 0
SMALL
GASTEIGER

@<TRIPOS>ATOM
      1  PG        27.5200    8.9960    2.3280 P.3   1260  ATP1260     0.5373
      2  O1G       27.2330   10.4600    2.7700 O.3   1260  ATP1260    -0.1143
      3  O2G       28.5170    8.9280    1.1480 O.2   1260  ATP1260    -0.2221
      4  O3G       26.2870    8.1080    2.0850 O.3   1260  ATP1260    -0.1143
      5  PB        29.6590    8.2130    3.8150 P.3   1260  ATP1260     0.2277
      6  O1B       30.0840    9.4540    3.0120 O.2   1260  ATP1260    -0.5168
      7  O2B       29.8700    8.3290    5.2690 O.3   1260  ATP1260    -0.4368
      8  O3B       28.1250    8.0560    3.5500 O.3   1260  ATP1260    -0.2258
      9  PA        31.6180    7.0730    1.9750 P.3   1260  ATP1260     0.2189
     10  O1A       31.5290    5.7230    1.3170 O.3   1260  ATP1260    -0.4371
     11  O2A       31.5390    8.2420    1.0090 O.2   1260  ATP1260    -0.5170
     12  O3A       30.4260    6.9620    3.1060 O.3   1260  ATP1260    -0.2700
     13  O5'       33.1010    7.2590    2.6450 O.3   1260  ATP1260    -0.3112
     14  C5'       33.6100    6.2270    3.5170 C.3   1260  ATP1260     0.1813
     15  C4'       34.2950    5.1400    2.6980 C.3   1260  ATP1260     0.1821
     16  O4'       35.5510    5.5920    2.1760 O.3   1260  ATP1260    -0.3135
     17  C3'       34.6510    3.8940    3.4920 C.3   1260  ATP1260     0.2184
     18  O3'       33.4670    3.0990    3.6890 O.3   1260  ATP1260    -0.2174
     19  C2'       35.7740    3.3090    2.6360 C.3   1260  ATP1260     0.2570
     20  O2'       35.3120    2.3050    1.7460 O.3   1260  ATP1260    -0.2130
     21  C1'       36.3240    4.4530    1.7770 C.3   1260  ATP1260     0.3186
     22  N9        37.7910    4.6660    1.9250 N.pl3 1260  ATP1260    -0.1439
     23  C8        38.6930    4.8210    0.9340 C.3   1260  ATP1260     0.3377
     24  N7        39.9460    4.9700    1.4520 N.2   1260  ATP1260    -0.2095
     25  C5        39.8300    4.9060    2.7950 C.2   1260  ATP1260     0.2526
     26  C6        40.7480    4.9640    3.9450 C.2   1260  ATP1260     0.4393
     27  N6        42.0750    5.1510    3.7770 N.pl3 1260  ATP1260     0.2180
     28  N1        40.2090    4.8590    5.1700 N.2   1260  ATP1260     0.0021
     29  C2        38.9080    4.6480    5.3740 C.3   1260  ATP1260     0.5254
     30  N3        38.0090    4.5780    4.3720 N.2   1260  ATP1260    -0.0055
     31  C4        38.4230    4.7080    3.0900 C.2   1260  ATP1260     0.3518
@<TRIPOS>BOND
     1    23    24    1
     2    23    22    1
     3    11     9    2
     4     3     1    2
     5    10     9    1
     6    24    25    2
     7    20    19    1
     8    21    22    1
     9    21    16    1
    10    21    19    1
    11    22    31    1
    12     9    13    1
    13     9    12    1
    14     4     1    1
    15    16    15    1
    16     1     2    1
    17     1     8    1
    18    19    17    1
    19    13    14    1
    20    15    17    1
    21    15    14    1
    22    25    31    1
    23    25    26    1
    24     6     5    2
    25    31    30    2
    26    12     5    1
    27    17    18    1
    28     8     5    1
    29    27    26    1
    30     5     7    1
    31    26    28    2
    32    30    29    1
    33    28    29    1
