@<TRIPOS>MOLECULE
3qup_LUN_A_1.pdb
 31 36 0 0 0
SMALL
GASTEIGER

@<TRIPOS>ATOM
      1  C1        10.4110   -7.6330   14.6510 C.3     1  LUN1        0.0548
      2  C2         9.0600   -7.0270   14.8810 C.ar    1  LUN1       -0.0061
      3  C3        10.1140   -9.1220   14.7860 C.3     1  LUN1        0.1039
      4  C4        11.0310   -7.3660   13.2940 C.3     1  LUN1        0.0779
      5  C5        11.4010   -7.1810   15.6740 C.3     1  LUN1        0.0244
      6  C6         8.1400   -7.9940   15.2020 C.ar    1  LUN1        0.0503
      7  C7         8.6740   -5.7040   14.8030 C.ar    1  LUN1       -0.0030
      8  N8         8.7300   -9.2630   15.2120 N.am    1  LUN1       -0.2530
      9  N9        12.4500   -6.9770   13.5480 N.3     1  LUN1       -0.2722
     10  C10       12.7510   -7.1270   14.9920 C.3     1  LUN1        0.0725
     11  C11        6.8250   -7.6850   15.4460 C.ar    1  LUN1        0.0146
     12  C12        7.3540   -5.3730   15.0490 C.ar    1  LUN1       -0.0002
     13  C13        7.9510  -10.4290   15.1240 C.2     1  LUN1        0.2825
     14  C14       13.4640   -7.6100   12.6550 C.3     1  LUN1        0.0750
     15  C15        6.4340   -6.3650   15.3650 C.ar    1  LUN1        0.0013
     16  C16        8.5430  -11.6450   14.6620 C.2     1  LUN1        0.1850
     17  O17        6.7560  -10.4270   15.4130 O.2     1  LUN1       -0.2668
     18  C18       14.8460   -7.0420   12.9640 C.3     1  LUN1        0.0189
     19  C19       13.1270   -7.2050   11.2400 C.3     1  LUN1        0.1046
     20  C20        9.8320  -12.1490   14.6400 C.2     1  LUN1        0.0394
     21  N21        7.7680  -12.6110   14.0910 N.2     1  LUN1       -0.3973
     22  C22       15.8630   -7.5510   11.9460 C.3     1  LUN1        0.0202
     23  N23       14.0820   -7.7900   10.2980 N.3     1  LUN1       -0.2166
     24  C24        9.8090  -13.4370   14.0360 C.ar    1  LUN1        0.0345
     25  C25        8.4950  -13.6980   13.6990 C.ar    1  LUN1        0.1318
     26  C26       15.4130   -7.2160   10.5330 C.3     1  LUN1        0.0888
     27  C27       10.7790  -14.3920   13.7520 C.ar    1  LUN1        0.0323
     28  C28        8.0610  -14.8540   13.0850 C.ar    1  LUN1        0.0344
     29  C29       10.3600  -15.5620   13.1450 C.ar    1  LUN1        0.1403
     30  C30        9.0420  -15.7820   12.8190 C.ar    1  LUN1        0.0323
     31  F31       11.2700  -16.5290   12.8460 F       1  LUN1       -0.2042
@<TRIPOS>BOND
     1    23    26    1
     2    23    19    1
     3    26    22    1
     4    19    14    1
     5    22    18    1
     6    14    18    1
     7    14     9    1
     8    30    28   ar
     9    30    29   ar
    10    31    29    1
    11    28    25   ar
    12    29    27   ar
    13     4     9    1
    14     4     1    1
    15     9    10    1
    16    25    24   ar
    17    25    21    2
    18    27    24   ar
    19    24    20    2
    20    21    16    2
    21    20    16    1
    22     1     3    1
    23     1     2    1
    24     1     5    1
    25    16    13    1
    26     3     8    1
    27     7     2   ar
    28     7    12   ar
    29     2     6   ar
    30    10     5    1
    31    12    15   ar
    32    13     8   am
    33    13    17    2
    34     6     8    1
    35     6    11   ar
    36    15    11   ar
