@<TRIPOS>MOLECULE
3quq_UNL_A_1.pdb
 14 13 0 0 0
SMALL
GASTEIGER

@<TRIPOS>ATOM
      1  N1         9.9830   -3.2480   -6.0690 N.3   230  UNL230     -0.1231
      2  C1         9.6700   -1.8240   -5.7620 C.3   230  UNL230      0.1696
      3  C2        10.7920   -0.9100   -6.2650 C.2   230  UNL230      0.2632
      4  O1        11.8660   -1.3820   -6.6090 O.2   230  UNL230     -0.2714
      5  C3         9.3640   -1.6240   -4.2720 C.3   230  UNL230      0.0285
      6  C4         7.9860   -2.1720   -3.8340 C.3   230  UNL230      0.0035
      7  C5         6.8690   -1.1160   -3.7940 C.3   230  UNL230      0.0206
      8  C6         5.5210   -1.7560   -3.9980 C.3   230  UNL230      0.1093
      9  N2         4.3750   -0.9280   -4.5160 N.3   230  UNL230     -0.1314
     10  N3        10.5300    0.3860   -6.3500 N.am  230  UNL230     -0.1697
     11  C7        11.5120    1.3070   -6.9030 C.2   230  UNL230      0.1746
     12  C8        11.1970    2.7730   -6.7050 C.2   230  UNL230      0.4043
     13  O2        10.6240    3.2030   -5.6950 O.co2 230  UNL230     -0.2390
     14  O3        11.5430    3.5660   -7.5830 O.co2 230  UNL230     -0.2390
@<TRIPOS>BOND
     1    14    12   ar
     2    11    12    1
     3    11    10    2
     4    12    13   ar
     5     4     3    2
     6    10     3    1
     7     3     2    1
     8     1     2    1
     9     2     5    1
    10     9     8    1
    11     5     6    1
    12     8     7    1
    13     6     7    1
