@<TRIPOS>MOLECULE
3qur_ADP_A_1.pdb
 27 29 0 0 0
SMALL
GASTEIGER

@<TRIPOS>ATOM
      1  PB        29.5990    8.9990    4.1400 P.3   1260  ADP1260     0.5373
      2  O1B       29.8400   10.3030    3.3620 O.2   1260  ADP1260    -0.2221
      3  O2B       29.8130    8.8510    5.6070 O.3   1260  ADP1260    -0.1143
      4  O3B       28.2940    8.3500    3.7360 O.3   1260  ADP1260    -0.1143
      5  PA        31.6160    7.7760    2.2470 P.3   1260  ADP1260     0.2231
      6  O1A       31.1990    6.3940    1.7670 O.3   1260  ADP1260    -0.4370
      7  O2A       31.4090    8.9240    1.2430 O.2   1260  ADP1260    -0.5169
      8  O3A       30.8150    8.0410    3.6280 O.3   1260  ADP1260    -0.2261
      9  O5'       33.1840    7.9420    2.7540 O.3   1260  ADP1260    -0.3111
     10  C5'       33.7190    7.0690    3.7690 C.3   1260  ADP1260     0.1813
     11  C4'       34.3710    5.9320    3.0020 C.3   1260  ADP1260     0.1821
     12  O4'       35.5580    6.4350    2.3810 O.3   1260  ADP1260    -0.3135
     13  C3'       34.7910    4.7540    3.8560 C.3   1260  ADP1260     0.2184
     14  O3'       33.6850    3.8690    4.0360 O.3   1260  ADP1260    -0.2174
     15  C2'       35.9120    4.1690    3.0030 C.3   1260  ADP1260     0.2570
     16  O2'       35.4520    3.0920    2.2090 O.3   1260  ADP1260    -0.2130
     17  C1'       36.3490    5.2820    2.0490 C.3   1260  ADP1260     0.3186
     18  N9        37.8120    5.4750    2.1510 N.pl3 1260  ADP1260    -0.1439
     19  C8        38.6540    5.5720    1.0820 C.3   1260  ADP1260     0.3377
     20  N7        39.9200    5.7050    1.5060 N.2   1260  ADP1260    -0.2095
     21  C5        39.9140    5.6630    2.8660 C.2   1260  ADP1260     0.2526
     22  C6        40.9440    5.7370    3.9280 C.2   1260  ADP1260     0.4393
     23  N6        42.2830    5.8560    3.6290 N.pl3 1260  ADP1260     0.2180
     24  N1        40.4970    5.6890    5.2150 N.2   1260  ADP1260     0.0021
     25  C2        39.1860    5.5320    5.5460 C.3   1260  ADP1260     0.5254
     26  N3        38.1940    5.4480    4.6100 N.2   1260  ADP1260    -0.0055
     27  C4        38.5160    5.5010    3.2890 C.2   1260  ADP1260     0.3518
@<TRIPOS>BOND
     1    19    20    1
     2    19    18    1
     3     7     5    2
     4    20    21    2
     5     6     5    1
     6    17    18    1
     7    17    12    1
     8    17    15    1
     9    18    27    1
    10    16    15    1
    11     5     9    1
    12     5     8    1
    13    12    11    1
    14     9    10    1
    15    21    27    1
    16    21    22    1
    17    11    10    1
    18    11    13    1
    19    15    13    1
    20    27    26    2
    21     2     1    2
    22     8     1    1
    23    23    22    1
    24     4     1    1
    25    13    14    1
    26    22    24    2
    27     1     3    1
    28    26    25    1
    29    24    25    1
