@<TRIPOS>MOLECULE
3qur_FM4_A_1.pdb
 12 12 0 0 0
SMALL
GASTEIGER

@<TRIPOS>ATOM
      1  O         24.3080   14.9520   -1.4080 O.3   2000  FM42000    -0.3419
      2  P         26.6900   13.7680   -0.5390 P.3   2000  FM42000     0.4059
      3  C1        25.3320   13.9390   -1.7880 C.3   2000  FM42000     0.2484
      4  C2        24.8170   15.1460   -2.6910 C.3   2000  FM42000     0.1551
      5  O2        28.2180   10.2630    1.0320 O.2   2000  FM42000    -0.2220
      6  P2        27.0800   11.2900    1.5550 P.3   2000  FM42000     0.5389
      7  C3        25.4050   16.5320   -3.1720 C.3   2000  FM42000     0.0354
      8  O3        27.3270   11.6320    3.0830 O.3   2000  FM42000    -0.1143
      9  O4        25.6420   10.7040    1.2710 O.3   2000  FM42000    -0.1143
     10  O1P       26.5180   15.0690    0.1050 O.3   2000  FM42000    -0.1373
     11  O2P       26.4800   12.5840    0.6000 O.3   2000  FM42000    -0.2013
     12  O3P       28.0830   13.6430   -1.2890 O.2   2000  FM42000    -0.2525
@<TRIPOS>BOND
     1     7     4    1
     2     4     3    1
     3     4     1    1
     4     3     1    1
     5     3     2    1
     6    12     2    2
     7     2    10    1
     8     2    11    1
     9    11     6    1
    10     5     6    2
    11     9     6    1
    12     6     8    1
