@<TRIPOS>MOLECULE
3qus_AGS_A_1.pdb
 31 33 0 0 0
SMALL
GASTEIGER

@<TRIPOS>ATOM
      1  PG       -24.1660   -3.5800   67.6140 P.3   700  AGS700      0.4340
      2  S1G      -24.8560   -2.6920   69.2090 S.3   700  AGS700      0.0416
      3  O2G      -25.3490   -3.6730   66.5240 O.2   700  AGS700     -0.2423
      4  O3G      -22.9340   -2.7520   66.9930 O.3   700  AGS700     -0.1305
      5  PB       -22.1080   -5.4730   67.6990 P.3   700  AGS700      0.2262
      6  O1B      -21.9290   -6.9720   67.6280 O.2   700  AGS700     -0.5168
      7  O2B      -21.2250   -4.6240   68.5730 O.3   700  AGS700     -0.4369
      8  O3B      -23.6450   -5.0660   67.9880 O.3   700  AGS700     -0.2405
      9  PA       -20.3530   -4.8300   65.8380 P.3   700  AGS700      0.2189
     10  O1A      -20.2680   -5.2010   64.3710 O.2   700  AGS700     -0.5170
     11  O2A      -19.6630   -5.6620   66.8910 O.3   700  AGS700     -0.4371
     12  O3A      -21.8990   -4.8460   66.2460 O.3   700  AGS700     -0.2701
     13  O5'      -19.8730   -3.3080   66.0660 O.3   700  AGS700     -0.3112
     14  C5'      -18.5520   -3.1380   66.5870 C.3   700  AGS700      0.1813
     15  C4'      -18.2970   -1.7340   67.1180 C.3   700  AGS700      0.1821
     16  O4'      -17.5530   -1.7060   68.3440 O.3   700  AGS700     -0.3135
     17  C3'      -17.4290   -0.9600   66.1540 C.3   700  AGS700      0.2184
     18  O3'      -18.2630   -0.3690   65.1640 O.3   700  AGS700     -0.2174
     19  C2'      -16.7470    0.0800   67.0230 C.3   700  AGS700      0.2570
     20  O2'      -17.3460    1.3570   66.7870 O.3   700  AGS700     -0.2130
     21  C1'      -17.0310   -0.3720   68.4590 C.3   700  AGS700      0.3186
     22  N9       -15.9010   -0.2260   69.4480 N.pl3 700  AGS700     -0.1439
     23  C8       -15.6610   -1.0640   70.4790 C.3   700  AGS700      0.3377
     24  N7       -14.6030   -0.6630   71.2320 N.2   700  AGS700     -0.2095
     25  C5       -14.1290    0.4720   70.6830 C.2   700  AGS700      0.2526
     26  C6       -13.0180    1.4330   70.9710 C.2   700  AGS700      0.4393
     27  N6       -12.1830    1.2310   72.0190 N.pl3 700  AGS700      0.2180
     28  N1       -12.8550    2.5120   70.1570 N.2   700  AGS700      0.0021
     29  C2       -13.6850    2.7260   69.1120 C.3   700  AGS700      0.5254
     30  N3       -14.7120    1.8960   68.7890 N.2   700  AGS700     -0.0055
     31  C4       -14.9890    0.7680   69.5150 C.2   700  AGS700      0.3518
@<TRIPOS>BOND
     1    10     9    2
     2    18    17    1
     3     9    13    1
     4     9    12    1
     5     9    11    1
     6    13    14    1
     7    17    19    1
     8    17    15    1
     9    12     5    1
    10     3     1    2
    11    14    15    1
    12    20    19    1
    13     4     1    1
    14    19    21    1
    15    15    16    1
    16     1     8    1
    17     1     2    1
    18     6     5    2
    19     5     8    1
    20     5     7    1
    21    16    21    1
    22    21    22    1
    23    30    29    1
    24    30    31    2
    25    29    28    1
    26    22    31    1
    27    22    23    1
    28    31    25    1
    29    28    26    2
    30    23    24    1
    31    25    26    1
    32    25    24    2
    33    26    27    1
