@<TRIPOS>MOLECULE
3qux_FUC_A_1.pdb
 10 10 0 0 0
SMALL
GASTEIGER

@<TRIPOS>ATOM
      1  C1        14.5070    9.8570    9.0880 C.3   513  FUC513      0.1776
      2  C2        13.1970    9.0760    9.2930 C.3   513  FUC513      0.2141
      3  C3        12.7680    9.1950   10.7730 C.3   513  FUC513      0.2172
      4  C4        12.5460   10.6760   11.1280 C.3   513  FUC513      0.2116
      5  C5        13.8480   11.4360   10.8220 C.3   513  FUC513      0.1483
      6  C6        13.7070   12.9310   11.0910 C.3   513  FUC513      0.0349
      7  O2        13.3510    7.7360    8.8580 O.3   513  FUC513     -0.2176
      8  O3        11.6600    8.3860   11.1270 O.3   513  FUC513     -0.2175
      9  O4        11.4440   11.2450   10.4390 O.3   513  FUC513     -0.2177
     10  O5        14.3040   11.2170    9.4850 O.3   513  FUC513     -0.3508
@<TRIPOS>BOND
     1     7     2    1
     2     1     2    1
     3     1    10    1
     4     2     3    1
     5    10     5    1
     6     9     4    1
     7     3     8    1
     8     3     4    1
     9     5     6    1
    10     5     4    1
