@<TRIPOS>MOLECULE
3qux_NAG_A_1.pdb
 14 14 0 0 0
SMALL
GASTEIGER

@<TRIPOS>ATOM
      1  C1        -1.1610   33.0170   25.4860 C.3   501  NAG501      0.1665
      2  C2        -1.8380   34.3730   25.6510 C.3   501  NAG501      0.1576
      3  C3        -0.8700   35.5460   25.4840 C.3   501  NAG501      0.2069
      4  C4         0.3150   35.3980   26.4530 C.3   501  NAG501      0.2134
      5  C5         0.9450   34.0120   26.2340 C.3   501  NAG501      0.1809
      6  C6         1.9790   33.7240   27.3100 C.3   501  NAG501      0.2141
      7  C7        -4.2010   34.5990   25.1450 C.2   501  NAG501      0.2420
      8  C8        -5.2230   34.7480   24.0660 C.3   501  NAG501      0.0964
      9  N2        -2.9400   34.5170   24.7270 N.am  501  NAG501     -0.2019
     10  O3        -1.5930   36.7420   25.7130 O.3   501  NAG501     -0.2184
     11  O4         1.2690   36.4650   26.3830 O.3   501  NAG501     -0.2176
     12  O5        -0.0270   32.9680   26.3290 O.3   501  NAG501     -0.3489
     13  O6         1.4640   32.6910   28.1240 O.3   501  NAG501     -0.2176
     14  O7        -4.5520   34.5480   26.3240 O.2   501  NAG501     -0.2733
@<TRIPOS>BOND
     1     8     7    1
     2     9     7   am
     3     9     2    1
     4     7    14    2
     5     3     2    1
     6     3    10    1
     7     3     4    1
     8     1     2    1
     9     1    12    1
    10     5    12    1
    11     5     4    1
    12     5     6    1
    13    11     4    1
    14     6    13    1
