@<TRIPOS>MOLECULE
3quy_NAG_A_1.pdb
 14 14 0 0 0
SMALL
GASTEIGER

@<TRIPOS>ATOM
      1  C1        45.1890   42.0230  -17.6470 C.3   286  NAG286      0.1665
      2  C2        46.3880   41.3760  -18.3840 C.3   286  NAG286      0.1576
      3  C3        47.3880   42.4420  -18.9040 C.3   286  NAG286      0.2069
      4  C4        46.7730   43.7580  -19.3850 C.3   286  NAG286      0.2134
      5  C5        45.6830   44.1990  -18.4140 C.3   286  NAG286      0.1809
      6  C6        44.9580   45.4700  -18.8270 C.3   286  NAG286      0.2141
      7  C7        48.0890   39.6640  -17.6750 C.2   286  NAG286      0.2420
      8  C8        48.7610   39.0670  -16.4670 C.3   286  NAG286      0.0964
      9  N2        47.1650   40.6040  -17.4290 N.am  286  NAG286     -0.2019
     10  O3        48.2420   41.9260  -19.9120 O.3   286  NAG286     -0.2184
     11  O4        47.8110   44.7050  -19.4570 O.3   286  NAG286     -0.2176
     12  O5        44.7240   43.1610  -18.3540 O.3   286  NAG286     -0.3489
     13  O6        43.8720   45.6440  -17.9380 O.3   286  NAG286     -0.2176
     14  O7        48.4000   39.2600  -18.7920 O.2   286  NAG286     -0.2733
@<TRIPOS>BOND
     1    10     3    1
     2    11     4    1
     3     4     3    1
     4     4     5    1
     5     3     2    1
     6     6     5    1
     7     6    13    1
     8    14     7    2
     9     5    12    1
    10     2     1    1
    11     2     9    1
    12    12     1    1
    13     7     9   am
    14     7     8    1
