@<TRIPOS>MOLECULE
3quy_FUC_A_1.pdb
 10 10 0 0 0
SMALL
GASTEIGER

@<TRIPOS>ATOM
      1  C1        25.1270   10.6530   -9.1230 C.3   290  FUC290      0.1776
      2  C2        26.4110    9.8700   -9.4310 C.3   290  FUC290      0.2141
      3  C3        26.7170    9.9670  -10.9380 C.3   290  FUC290      0.2172
      4  C4        26.8340   11.4370  -11.3940 C.3   290  FUC290      0.2116
      5  C5        25.5720   12.1850  -10.9040 C.3   290  FUC290      0.1483
      6  C6        25.5360   13.6720  -11.2540 C.3   290  FUC290      0.0349
      7  O2        26.2580    8.5190   -9.0180 O.3   290  FUC290     -0.2176
      8  O3        27.8110    9.1510  -11.3330 O.3   290  FUC290     -0.2175
      9  O4        28.0200   12.0790  -10.9380 O.3   290  FUC290     -0.2177
     10  O5        25.3660   11.9990   -9.4970 O.3   290  FUC290     -0.3508
@<TRIPOS>BOND
     1     4     3    1
     2     4     9    1
     3     4     5    1
     4     8     3    1
     5     6     5    1
     6     3     2    1
     7     5    10    1
     8    10     1    1
     9     2     1    1
    10     2     7    1
