@<TRIPOS>MOLECULE
3quz_NAG_A_1.pdb
 14 14 0 0 0
SMALL
GASTEIGER

@<TRIPOS>ATOM
      1  C1       -34.4090  -42.4880   17.3460 C.3   500  NAG500      0.1665
      2  C2       -33.7710  -43.8000   17.9030 C.3   500  NAG500      0.1576
      3  C3       -32.8820  -43.6040   19.1410 C.3   500  NAG500      0.2069
      4  C4       -31.9100  -42.4640   18.9060 C.3   500  NAG500      0.2134
      5  C5       -32.7270  -41.1890   18.6340 C.3   500  NAG500      0.1809
      6  C6       -31.8500  -39.9380   18.4890 C.3   500  NAG500      0.2141
      7  C7       -35.2650  -45.6490   17.2060 C.2   500  NAG500      0.2420
      8  C8       -36.2240  -46.7310   17.6460 C.3   500  NAG500      0.0964
      9  N2       -34.7250  -44.8830   18.1690 N.am  500  NAG500     -0.2019
     10  O3       -32.1410  -44.7770   19.4190 O.3   500  NAG500     -0.2184
     11  O4       -31.0600  -42.3450   20.0320 O.3   500  NAG500     -0.2176
     12  O5       -33.5590  -41.3480   17.4830 O.3   500  NAG500     -0.3489
     13  O6       -30.9440  -40.0420   17.4090 O.3   500  NAG500     -0.2176
     14  O7       -35.0270  -45.5070   16.0000 O.2   500  NAG500     -0.2733
@<TRIPOS>BOND
     1    14     7    2
     2     7     8    1
     3     7     9   am
     4     1    12    1
     5     1     2    1
     6    13     6    1
     7    12     5    1
     8     2     9    1
     9     2     3    1
    10     6     5    1
    11     5     4    1
    12     4     3    1
    13     4    11    1
    14     3    10    1
