@<TRIPOS>MOLECULE
3quz_FUC_A_1.pdb
 10 10 0 0 0
SMALL
GASTEIGER

@<TRIPOS>ATOM
      1  C1       -54.2150  -10.3310    9.2600 C.3   513  FUC513      0.1776
      2  C2       -52.9190   -9.5320    9.5190 C.3   513  FUC513      0.2141
      3  C3       -52.5980   -9.5270   11.0300 C.3   513  FUC513      0.2172
      4  C4       -52.4440  -10.9810   11.5120 C.3   513  FUC513      0.2116
      5  C5       -53.7170  -11.7530   11.1370 C.3   513  FUC513      0.1483
      6  C6       -53.7030  -13.2280   11.5570 C.3   513  FUC513      0.0349
      7  O2       -53.0530   -8.2210    9.0220 O.3   513  FUC513     -0.2176
      8  O3       -51.5030   -8.6910   11.4040 O.3   513  FUC513     -0.2175
      9  O4       -51.3090  -11.6010   10.9260 O.3   513  FUC513     -0.2177
     10  O5       -53.9890  -11.6450    9.7360 O.3   513  FUC513     -0.3508
@<TRIPOS>BOND
     1     7     2    1
     2     1     2    1
     3     1    10    1
     4     2     3    1
     5    10     5    1
     6     9     4    1
     7     3     8    1
     8     3     4    1
     9     5     4    1
    10     5     6    1
