@<TRIPOS>MOLECULE
3qv1_NAD_A_1.pdb
 44 48 0 0 0
SMALL
GASTEIGER

@<TRIPOS>ATOM
      1  PA        18.4400   60.0310  -11.2530 P.3   335  NAD335      0.2189
      2  O1A       19.1180   60.0330   -9.9430 O.3   335  NAD335     -0.4371
      3  O2A       17.8390   58.7110  -11.6080 O.2   335  NAD335     -0.5170
      4  O5B       19.4210   60.4190  -12.4250 O.3   335  NAD335     -0.3112
      5  C5B       20.5110   61.2990  -12.3200 C.3   335  NAD335      0.1813
      6  C4B       21.5460   60.7850  -13.3030 C.3   335  NAD335      0.1821
      7  O4B       22.5560   61.7800  -13.3830 O.3   335  NAD335     -0.3135
      8  C3B       22.1780   59.4950  -12.7970 C.3   335  NAD335      0.2184
      9  O3B       22.2590   58.4620  -13.7710 O.3   335  NAD335     -0.2174
     10  C2B       23.5740   59.9560  -12.3100 C.3   335  NAD335      0.2570
     11  O2B       24.6370   59.0440  -12.4610 O.3   335  NAD335     -0.2130
     12  C1B       23.8280   61.1810  -13.1630 C.3   335  NAD335      0.3186
     13  N9A       24.8100   62.1680  -12.6490 N.pl3 335  NAD335     -0.1439
     14  C8A       24.9200   62.7320  -11.3860 C.3   335  NAD335      0.3377
     15  N7A       25.9440   63.5930  -11.4060 N.2   335  NAD335     -0.2095
     16  C5A       26.4820   63.5900  -12.6750 C.2   335  NAD335      0.2526
     17  C6A       27.5450   64.2720  -13.2670 C.2   335  NAD335      0.4393
     18  N6A       28.2540   65.1760  -12.6040 N.pl3 335  NAD335      0.2180
     19  N1A       27.8190   64.0780  -14.6140 N.2   335  NAD335      0.0021
     20  C2A       27.0960   63.1360  -15.3300 C.3   335  NAD335      0.5254
     21  N3A       26.0490   62.4420  -14.7610 N.2   335  NAD335     -0.0055
     22  C4A       25.7630   62.6920  -13.4450 C.2   335  NAD335      0.3518
     23  O3        17.3960   61.2460  -11.0980 O.3   335  NAD335     -0.2703
     24  PN        16.0050   61.5130  -11.8740 P.3   335  NAD335      0.2189
     25  O1N       14.8330   60.9370  -11.2740 O.3   335  NAD335     -0.4371
     26  O2N       16.2220   61.1790  -13.3900 O.2   335  NAD335     -0.5170
     27  O5D       15.9730   63.0850  -11.7800 O.3   335  NAD335     -0.3112
     28  C5D       16.9150   63.8870  -12.4950 C.3   335  NAD335      0.1813
     29  C4D       16.5190   65.3700  -12.6020 C.3   335  NAD335      0.1799
     30  O4D       15.2270   65.4490  -13.1920 O.3   335  NAD335     -0.3327
     31  C3D       16.4090   66.0510  -11.2310 C.3   335  NAD335      0.2158
     32  O3D       16.7160   67.4370  -11.3170 O.3   335  NAD335     -0.2175
     33  C2D       14.9510   65.8520  -10.8790 C.3   335  NAD335      0.2309
     34  O2D       14.3460   66.7890   -9.9890 O.3   335  NAD335     -0.2158
     35  C1D       14.3070   65.9930  -12.2620 C.3   335  NAD335      0.2263
     36  N1N       12.9980   65.3420  -12.3920 N.pl3 335  NAD335     -0.2787
     37  C2N       12.6890   64.2080  -11.6870 C.3   335  NAD335      0.1244
     38  C3N       11.4380   63.6210  -11.8590 C.2   335  NAD335      0.0544
     39  C7N       11.1740   62.2340  -11.3720 C.2   335  NAD335      0.2818
     40  O7N        9.8350   61.9930  -11.0670 O.2   335  NAD335     -0.2670
     41  N7N       12.1290   61.3040  -11.2410 N.am  335  NAD335     -0.0839
     42  C4N       10.5070   64.1670  -12.7730 C.2   335  NAD335      0.0033
     43  C5N       10.8390   65.3110  -13.4640 C.2   335  NAD335      0.0157
     44  C6N       12.0840   65.8810  -13.2720 C.2   335  NAD335      0.0633
@<TRIPOS>BOND
     1    20    21    1
     2    20    19    1
     3    21    22    2
     4    19    17    2
     5     9     8    1
     6    43    44    2
     7    43    42    1
     8    22    16    1
     9    22    13    1
    10    26    24    2
    11     7     6    1
    12     7    12    1
    13     6     8    1
    14     6     5    1
    15    44    36    1
    16    17    16    1
    17    17    18    1
    18    30    29    1
    19    30    35    1
    20    12    13    1
    21    12    10    1
    22     8    10    1
    23    42    38    2
    24    16    15    2
    25    13    14    1
    26    29    28    1
    27    29    31    1
    28    28    27    1
    29    11    10    1
    30     4     5    1
    31     4     1    1
    32    36    35    1
    33    36    37    1
    34    35    33    1
    35    24    27    1
    36    24    25    1
    37    24    23    1
    38    38    37    1
    39    38    39    1
    40     3     1    2
    41    15    14    1
    42    39    41   am
    43    39    40    2
    44    32    31    1
    45     1    23    1
    46     1     2    1
    47    31    33    1
    48    33    34    1
