@<TRIPOS>MOLECULE
3qv2_SAH_A_1.pdb
 26 28 0 0 0
SMALL
GASTEIGER

@<TRIPOS>ATOM
      1  N         12.9780  -20.5850   19.5840 N.3   323  SAH323     -0.1159
      2  CA        14.0920  -19.6610   19.6750 C.3   323  SAH323      0.2168
      3  CB        15.2880  -20.1700   18.8820 C.2   323  SAH323      0.0105
      4  CG        15.4590  -21.6580   18.6950 C.2   323  SAH323      0.0284
      5  SD        16.8390  -22.2110   17.6730 S.3   323  SAH323     -0.1108
      6  C         13.6520  -18.3010   19.1950 C.2   323  SAH323      0.3860
      7  O         14.5000  -17.5060   18.6990 O.co2 323  SAH323     -0.2437
      8  OXT       12.4260  -17.9540   19.2950 O.co2 323  SAH323     -0.2437
      9  C5'       17.8390  -23.3510   18.6050 C.3   323  SAH323      0.0945
     10  C4'       18.7920  -22.7980   19.6000 C.3   323  SAH323      0.1634
     11  O4'       19.2650  -23.8390   20.3810 O.3   323  SAH323     -0.3152
     12  C3'       19.9430  -22.2140   18.9080 C.3   323  SAH323      0.2168
     13  O3'       19.9440  -20.8380   19.0800 O.3   323  SAH323     -0.2175
     14  C2'       21.1280  -22.7870   19.4930 C.3   323  SAH323      0.2569
     15  O2'       22.0150  -21.7840   19.8450 O.3   323  SAH323     -0.2130
     16  C1'       20.6530  -23.4950   20.6850 C.3   323  SAH323      0.3185
     17  N9        21.4970  -24.6090   21.0110 N.pl3 323  SAH323     -0.1439
     18  C8        21.9740  -25.5930   20.2370 C.3   323  SAH323      0.3377
     19  N7        22.7160  -26.3930   21.0200 N.2   323  SAH323     -0.2095
     20  C5        22.7000  -25.9000   22.2820 C.2   323  SAH323      0.2526
     21  C6        23.2850  -26.3130   23.4810 C.2   323  SAH323      0.4393
     22  N6        24.1070  -27.4970   23.5310 N.pl3 323  SAH323      0.2180
     23  N1        23.0640  -25.5770   24.5850 N.2   323  SAH323      0.0021
     24  C2        22.3050  -24.4730   24.5620 C.3   323  SAH323      0.5254
     25  N3        21.7340  -24.0600   23.4250 N.2   323  SAH323     -0.0055
     26  C4        21.9150  -24.7480   22.2830 C.2   323  SAH323      0.3518
@<TRIPOS>BOND
     1     5     9    1
     2     5     4    1
     3     9    10    1
     4     4     3    2
     5     7     6   ar
     6     3     2    1
     7    12    13    1
     8    12    14    1
     9    12    10    1
    10     6     8   ar
    11     6     2    1
    12    14    15    1
    13    14    16    1
    14     1     2    1
    15    10    11    1
    16    18    17    1
    17    18    19    1
    18    11    16    1
    19    16    17    1
    20    17    26    1
    21    19    20    2
    22    20    26    1
    23    20    21    1
    24    26    25    2
    25    25    24    1
    26    21    22    1
    27    21    23    2
    28    24    23    1
