@<TRIPOS>MOLECULE
3qv4_CTO_B_1.pdb
 43 45 0 0 0
SMALL
GASTEIGER

@<TRIPOS>ATOM
      1  C11       -3.1110  -41.1520  -78.4170 C.3   2735  CTO2735     0.2586
      2  C21       -3.2000  -42.1130  -79.6470 C.3   2735  CTO2735     0.1842
      3  N21       -4.0420  -43.3000  -79.3140 N.am  2735  CTO2735    -0.1992
      4  C71       -5.4130  -43.2420  -79.6150 C.2   2735  CTO2735     0.2420
      5  O71       -5.9610  -42.2760  -80.1380 O.2   2735  CTO2735    -0.2733
      6  C81       -6.3910  -44.3870  -79.2980 C.3   2735  CTO2735     0.0964
      7  C31       -1.7790  -42.5380  -79.9850 C.3   2735  CTO2735     0.2094
      8  O31       -1.7640  -43.4350  -81.1300 O.3   2735  CTO2735    -0.2183
      9  C41       -0.9630  -41.2940  -80.3050 C.3   2735  CTO2735     0.2136
     10  O41        0.3980  -41.6680  -80.5960 O.3   2735  CTO2735    -0.2176
     11  C51       -0.9980  -40.3080  -79.1270 C.3   2735  CTO2735     0.1834
     12  O51       -2.3700  -39.9620  -78.8300 O.3   2735  CTO2735    -0.3262
     13  C61       -0.2070  -39.0540  -79.5530 C.3   2735  CTO2735     0.2142
     14  O61       -0.2210  -38.1020  -78.6100 O.3   2735  CTO2735    -0.2176
     15  C12       -7.3700  -39.4160  -75.8420 C.3   2735  CTO2735     0.2586
     16  C22       -6.4100  -38.3210  -76.4350 C.3   2735  CTO2735     0.1841
     17  N22       -7.1940  -37.1930  -76.9570 N.am  2735  CTO2735    -0.1992
     18  C72       -7.5840  -36.2030  -76.1170 C.2   2735  CTO2735     0.2420
     19  O72       -7.2810  -36.2550  -74.9270 O.2   2735  CTO2735    -0.2733
     20  C82       -8.4030  -35.0350  -76.6440 C.3   2735  CTO2735     0.0964
     21  C32       -5.6970  -39.0130  -77.5740 C.3   2735  CTO2735     0.2062
     22  O32       -4.7740  -38.1000  -78.2080 O.3   2735  CTO2735    -0.2184
     23  C42       -4.9190  -40.1650  -77.0550 C.3   2735  CTO2735     0.1795
     24  O42       -4.4260  -40.8880  -78.1670 O.3   2735  CTO2735    -0.3264
     25  C52       -5.8330  -41.1540  -76.3330 C.3   2735  CTO2735     0.1803
     26  O52       -6.5460  -40.5380  -75.2610 O.3   2735  CTO2735    -0.3263
     27  C62       -4.9820  -42.3210  -75.7750 C.3   2735  CTO2735     0.2141
     28  O62       -5.8140  -43.2770  -75.0850 O.3   2735  CTO2735    -0.2176
     29  C13      -11.1960  -40.8870  -72.7330 C.3   2735  CTO2735     0.2917
     30  O13      -12.0410  -41.9470  -72.2820 O.3   2735  CTO2735    -0.1879
     31  C23       -9.7150  -41.2500  -72.4170 C.3   2735  CTO2735     0.1870
     32  N23       -9.4960  -41.3960  -70.9590 N.am  2735  CTO2735    -0.1991
     33  C73       -9.6970  -42.5590  -70.2770 C.2   2735  CTO2735     0.2420
     34  O73      -10.0840  -43.5740  -70.8520 O.2   2735  CTO2735    -0.2733
     35  C83       -9.4390  -42.5900  -68.7840 C.3   2735  CTO2735     0.0964
     36  C33       -8.8230  -40.1330  -72.9050 C.3   2735  CTO2735     0.2063
     37  O33       -7.4380  -40.4490  -72.6490 O.3   2735  CTO2735    -0.2184
     38  C43       -9.0410  -39.9320  -74.3890 C.3   2735  CTO2735     0.1795
     39  O43       -8.1750  -38.8400  -74.8150 O.3   2735  CTO2735    -0.3264
     40  C53      -10.5570  -39.6180  -74.6500 C.3   2735  CTO2735     0.1803
     41  O53      -11.3960  -40.7170  -74.1770 O.3   2735  CTO2735    -0.3243
     42  C63      -10.8220  -39.4190  -76.1570 C.3   2735  CTO2735     0.2141
     43  O63      -12.2320  -39.1140  -76.3700 O.3   2735  CTO2735    -0.2176
@<TRIPOS>BOND
     1     8     7    1
     2    10     9    1
     3     9     7    1
     4     9    11    1
     5     5     4    2
     6     7     2    1
     7     2     3    1
     8     2     1    1
     9     4     3   am
    10     4     6    1
    11    13    11    1
    12    13    14    1
    13    11    12    1
    14    12     1    1
    15     1    24    1
    16    22    21    1
    17    24    23    1
    18    21    23    1
    19    21    16    1
    20    23    25    1
    21    17    16    1
    22    17    18   am
    23    20    18    1
    24    16    15    1
    25    43    42    1
    26    25    27    1
    27    25    26    1
    28    42    40    1
    29    18    19    2
    30    15    26    1
    31    15    39    1
    32    27    28    1
    33    39    38    1
    34    40    38    1
    35    40    41    1
    36    38    36    1
    37    41    29    1
    38    36    37    1
    39    36    31    1
    40    29    31    1
    41    29    30    1
    42    31    32    1
    43    32    33   am
    44    34    33    2
    45    33    35    1
