@<TRIPOS>MOLECULE
3qv4_DGL_C_1.pdb
 10 9 0 0 0
SMALL
GASTEIGER

@<TRIPOS>ATOM
      1  N        -16.2220  -19.8370  -23.2210 N.3   2992  DGL2992    -0.1208
      2  CA       -17.4030  -20.3950  -22.5090 C.3   2992  DGL2992     0.1949
      3  C        -17.0090  -21.4770  -21.5480 C.2   2992  DGL2992     0.3819
      4  O        -15.9390  -22.0910  -21.7480 O.co2 2992  DGL2992    -0.2441
      5  CB       -18.1270  -19.2850  -21.7550 C.3   2992  DGL2992     0.0424
      6  CG       -19.1090  -18.5570  -22.6650 C.3   2992  DGL2992     0.1161
      7  CD       -19.6870  -17.3700  -21.9340 C.2   2992  DGL2992     0.3649
      8  OE1      -20.5310  -17.5750  -21.0350 O.co2 2992  DGL2992    -0.2457
      9  OE2      -19.3010  -16.2250  -22.2570 O.co2 2992  DGL2992    -0.2457
     10  OXT      -17.7670  -21.7250  -20.5850 O.co2 2992  DGL2992    -0.2441
@<TRIPOS>BOND
     1     1     2    1
     2     6     7    1
     3     6     5    1
     4     2     5    1
     5     2     3    1
     6     9     7   ar
     7     7     8   ar
     8     4     3   ar
     9     3    10   ar
