@<TRIPOS>MOLECULE
3qv6_QV6_A_1.pdb
 43 47 0 0 0
SMALL
GASTEIGER

@<TRIPOS>ATOM
      1  CAA       27.1720  -40.4560  -48.6930 C.3   500  QV6500      0.0324
      2  CAB       24.0470  -47.9080  -45.7530 C.3   500  QV6500      0.0324
      3  CAC       22.6550  -39.6780  -50.7410 C.3   500  QV6500      0.0324
      4  CAD       20.2970  -47.2530  -42.5280 C.3   500  QV6500      0.0324
      5  CAE       24.8000  -44.8450  -41.7540 C.3   500  QV6500      0.0337
      6  OAF       28.8760  -44.3010  -48.7070 O.2   500  QV6500     -0.2865
      7  OAG       27.9240  -46.9560  -44.2610 O.2   500  QV6500     -0.2865
      8  OAH       21.7240  -44.1160  -50.2360 O.3   500  QV6500     -0.0650
      9  OAI       20.7680  -41.8730  -50.3150 O.3   500  QV6500     -0.0650
     10  OAJ       20.4790  -45.5530  -40.4570 O.3   500  QV6500     -0.0650
     11  OAK       22.7120  -45.7530  -39.4600 O.3   500  QV6500     -0.0650
     12  OAL       21.9450  -42.7640  -52.1970 O.3   500  QV6500     -0.0650
     13  OAM       22.0860  -43.8500  -40.7560 O.3   500  QV6500     -0.0650
     14  CAN       31.8570  -46.6950  -47.2090 C.ar  500  QV6500      0.0001
     15  CAO       31.6090  -47.4030  -46.0330 C.ar  500  QV6500      0.0001
     16  CAP       25.1620  -43.8640  -46.8970 C.ar  500  QV6500      0.0179
     17  CAQ       24.9230  -44.5670  -45.7280 C.ar  500  QV6500      0.0179
     18  CAR       30.8710  -45.8690  -47.7520 C.ar  500  QV6500      0.0033
     19  CAS       30.3730  -47.2810  -45.3990 C.ar  500  QV6500      0.0033
     20  CAT       24.8890  -40.1880  -49.7130 C.ar  500  QV6500     -0.0059
     21  CAU       22.2580  -47.4800  -44.0490 C.ar  500  QV6500     -0.0060
     22  CAV       24.4130  -42.9290  -49.6740 C.ar  500  QV6500      0.0347
     23  NAW       26.5620  -43.2640  -48.6960 N.pl3 500  QV6500     -0.2126
     24  NAX       25.6430  -46.0720  -44.0620 N.pl3 500  QV6500     -0.2130
     25  CAY       25.8590  -41.0520  -49.2100 C.ar  500  QV6500     -0.0068
     26  CAZ       23.5620  -47.2260  -44.4620 C.ar  500  QV6500     -0.0071
     27  CBA       23.6820  -40.6810  -50.1970 C.ar  500  QV6500     -0.0045
     28  CBB       21.7460  -46.9010  -42.8950 C.ar  500  QV6500     -0.0048
     29  CBC       23.8700  -45.7760  -42.5470 C.ar  500  QV6500      0.0104
     30  CBD       25.6270  -42.4320  -49.1840 C.ar  500  QV6500      0.0678
     31  CBE       26.3850  -43.9610  -47.5600 C.ar  500  QV6500      0.0737
     32  CBF       25.9080  -45.3900  -45.1890 C.ar  500  QV6500      0.0737
     33  CBG       24.3790  -46.3640  -43.7070 C.ar  500  QV6500      0.0637
     34  CBH       23.4370  -42.0600  -50.1730 C.ar  500  QV6500      0.1096
     35  CBI       22.5510  -46.0370  -42.1270 C.ar  500  QV6500      0.1056
     36  CBJ       28.6390  -44.9210  -47.6670 C.2   500  QV6500      0.1970
     37  CBK       28.1430  -46.3310  -45.3020 C.2   500  QV6500      0.1970
     38  CBL       29.6300  -45.7450  -47.1210 C.ar  500  QV6500      0.0421
     39  CBM       29.3810  -46.4530  -45.9390 C.ar  500  QV6500      0.0421
     40  CBN       27.3930  -44.7900  -47.0280 C.ar  500  QV6500      0.0585
     41  CBO       27.1480  -45.5050  -45.8380 C.ar  500  QV6500      0.0585
     42  SBP       21.9160  -42.7260  -50.7690 S.3   500  QV6500      0.0418
     43  SBQ       21.9370  -45.2640  -40.6450 S.3   500  QV6500      0.0415
@<TRIPOS>BOND
     1    12    42    1
     2    42     9    1
     3    42     8    1
     4    42    34    1
     5     3    27    1
     6    27    34   ar
     7    27    20   ar
     8    34    22   ar
     9    20    25   ar
    10    22    30   ar
    11    25    30   ar
    12    25     1    1
    13    30    23    1
    14     6    36    2
    15    23    31    1
    16    18    14   ar
    17    18    38   ar
    18    36    38    1
    19    36    40    1
    20    31    40   ar
    21    31    16   ar
    22    14    15   ar
    23    38    39   ar
    24    40    41   ar
    25    16    17   ar
    26    15    19   ar
    27    39    19   ar
    28    39    37    1
    29    41    37    1
    30    41    32   ar
    31     2    26    1
    32    17    32   ar
    33    37     7    2
    34    32    24    1
    35    26    21   ar
    36    26    33   ar
    37    24    33    1
    38    21    28   ar
    39    33    29   ar
    40    28     4    1
    41    28    35   ar
    42    29    35   ar
    43    29     5    1
    44    35    43    1
    45    13    43    1
    46    43    10    1
    47    43    11    1
