@<TRIPOS>MOLECULE
3qv7_QV7_A_1.pdb
 43 46 0 0 0
SMALL
GASTEIGER

@<TRIPOS>ATOM
      1  OAA       -0.8930  -44.2160   74.2690 O.3   499  QV7499     -0.0650
      2  OAB        1.0810  -45.3000   73.3030 O.3   499  QV7499     -0.0650
      3  OAC       10.9730  -29.9860   73.6970 O.3   499  QV7499     -0.0650
      4  OAD       10.0520  -27.7060   73.5950 O.3   499  QV7499     -0.0650
      5  OAE        1.9590  -33.1880   69.0730 O.3   499  QV7499     -0.0649
      6  OAF        3.0530  -34.8050   67.5810 O.3   499  QV7499     -0.0649
      7  OAG        4.4910  -26.8520   68.6350 O.3   499  QV7499     -0.0649
      8  OAH        3.9450  -28.8700   67.3430 O.3   499  QV7499     -0.0649
      9  OAI        3.3860  -31.0480   69.3620 O.3   499  QV7499     -0.2835
     10  OAJ        1.1720  -44.2600   75.4650 O.3   499  QV7499     -0.0650
     11  OAK        9.4480  -29.1860   75.3490 O.3   499  QV7499     -0.0650
     12  OAL        0.9720  -35.3210   68.6510 O.3   499  QV7499     -0.0649
     13  OAM        2.5440  -28.1490   69.1410 O.3   499  QV7499     -0.0649
     14  CAN        4.4210  -36.4920   72.3250 C.ar  499  QV7499      0.0226
     15  CAO        2.1990  -40.5210   73.5220 C.ar  499  QV7499      0.0222
     16  CAP        1.0540  -41.1610   71.4900 C.ar  499  QV7499      0.0222
     17  CAQ        4.8100  -35.2400   71.8580 C.ar  499  QV7499      0.0238
     18  CAR        1.8290  -41.7220   74.1200 C.ar  499  QV7499      0.0205
     19  CAS        0.6840  -42.3640   72.0900 C.ar  499  QV7499      0.0205
     20  CAT        8.0280  -31.0590   73.2460 C.ar  499  QV7499      0.0189
     21  CAU        6.9510  -31.5890   72.5480 C.ar  499  QV7499      0.0030
     22  CAV        2.6920  -36.5870   70.6470 C.ar  499  QV7499      0.0414
     23  CAW        7.7040  -28.9300   72.1490 C.ar  499  QV7499      0.0190
     24  CAX        5.9040  -28.6700   70.5440 C.ar  499  QV7499      0.0223
     25  NAY        2.1670  -39.0820   71.6460 N.2   499  QV7499     -0.1480
     26  NAZ        3.0050  -38.3630   72.1940 N.2   499  QV7499     -0.1480
     27  NBA        4.5210  -33.4540   70.3430 N.2   499  QV7499     -0.1466
     28  NBB        4.8140  -32.6090   71.1860 N.2   499  QV7499     -0.1447
     29  CBC        1.8180  -40.2400   72.2070 C.ar  499  QV7499      0.1030
     30  CBD        3.3660  -37.1720   71.7180 C.ar  499  QV7499      0.1043
     31  CBE        4.4470  -30.5420   70.0510 C.ar  499  QV7499      0.2323
     32  CBF        4.1450  -34.6580   70.7780 C.ar  499  QV7499      0.1205
     33  CBG        1.0710  -42.6460   73.4020 C.ar  499  QV7499      0.1124
     34  CBH        8.4070  -29.7360   73.0470 C.ar  499  QV7499      0.1123
     35  CBI        3.0800  -35.3350   70.1770 C.ar  499  QV7499      0.1331
     36  CBJ        4.8200  -29.2120   69.8450 C.ar  499  QV7499      0.1526
     37  CBK        5.1650  -31.3420   70.9470 C.ar  499  QV7499      0.1429
     38  CBL        6.6180  -29.4610   71.4470 C.ar  499  QV7499      0.0043
     39  CBM        6.2410  -30.7950   71.6500 C.ar  499  QV7499      0.0227
     40  SBN        0.6020  -44.1610   74.1540 S.3   499  QV7499      0.0421
     41  SBO        9.7670  -29.1290   73.9580 S.3   499  QV7499      0.0421
     42  SBP        2.2210  -34.6430   68.8220 S.3   499  QV7499      0.0436
     43  SBQ        3.9030  -28.2340   68.7020 S.3   499  QV7499      0.0452
@<TRIPOS>BOND
     1     8    43    1
     2     6    42    1
     3     7    43    1
     4    12    42    1
     5    43    13    1
     6    43    36    1
     7    42     5    1
     8    42    35    1
     9     9    31    1
    10    36    31   ar
    11    36    24   ar
    12    31    37   ar
    13    35    22   ar
    14    35    32   ar
    15    27    32    1
    16    27    28    2
    17    24    38   ar
    18    22    30   ar
    19    32    17   ar
    20    37    28    1
    21    37    39   ar
    22    38    39   ar
    23    38    23   ar
    24    16    19   ar
    25    16    29   ar
    26    25    26    2
    27    25    29    1
    28    39    21   ar
    29    30    26    1
    30    30    14   ar
    31    17    14   ar
    32    19    33   ar
    33    23    34   ar
    34    29    15   ar
    35    21    20   ar
    36    34    20   ar
    37    34    41    1
    38     2    40    1
    39    33    18   ar
    40    33    40    1
    41    15    18   ar
    42     4    41    1
    43     3    41    1
    44    41    11    1
    45    40     1    1
    46    40    10    1
