@<TRIPOS>MOLECULE
3qv7_QV8_B_1.pdb
 27 30 0 0 0
SMALL
GASTEIGER

@<TRIPOS>ATOM
      1  OAA       34.4760   45.5770   35.5700 O.2   500  QV8500     -0.2866
      2  OAB       36.3540   49.8090   38.0670 O.2   500  QV8500     -0.2865
      3  OAC       29.5590   48.9890   35.6660 O.3   500  QV8500     -0.0650
      4  OAD       30.5750   50.2390   33.8220 O.3   500  QV8500     -0.0650
      5  OAE       30.5490   47.8310   33.8370 O.3   500  QV8500     -0.0650
      6  CAF       33.3670   55.1760   37.1090 C.ar  500  QV8500      0.0001
      7  CAG       32.9170   54.2740   36.1440 C.ar  500  QV8500      0.0013
      8  CAH       34.1500   54.7240   38.1710 C.ar  500  QV8500      0.0013
      9  CAI       38.1010   45.2350   37.4550 C.ar  500  QV8500      0.0001
     10  CAJ       38.5950   46.3560   38.1190 C.ar  500  QV8500      0.0001
     11  CAK       33.2520   52.9230   36.2420 C.ar  500  QV8500      0.0165
     12  CAL       34.4810   53.3720   38.2650 C.ar  500  QV8500      0.0165
     13  CAM       36.8730   45.3090   36.8020 C.ar  500  QV8500      0.0033
     14  CAN       37.8710   47.5490   38.1250 C.ar  500  QV8500      0.0033
     15  CAO       32.6850   50.1030   36.1460 C.ar  500  QV8500      0.0355
     16  CAP       32.9570   47.8000   35.5010 C.ar  500  QV8500      0.0222
     17  NAQ       34.3900   51.1700   37.4550 N.pl3 500  QV8500     -0.2123
     18  CAR       34.0330   52.4580   37.3060 C.ar  500  QV8500      0.0705
     19  CAS       32.2090   48.9690   35.4910 C.ar  500  QV8500      0.1137
     20  CAT       33.9150   50.0850   36.8120 C.ar  500  QV8500      0.0749
     21  CAU       34.9150   46.5690   36.1530 C.2   500  QV8500      0.1958
     22  CAV       35.9050   48.8230   37.4800 C.2   500  QV8500      0.1970
     23  CAW       36.1420   46.5010   36.8090 C.ar  500  QV8500      0.0420
     24  CAX       36.6380   47.6290   37.4720 C.ar  500  QV8500      0.0421
     25  CAY       34.1830   47.7580   36.1600 C.ar  500  QV8500      0.0446
     26  CAZ       34.6680   48.8960   36.8220 C.ar  500  QV8500      0.0573
     27  SBA       30.6700   48.9960   34.6590 S.3   500  QV8500      0.0421
@<TRIPOS>BOND
     1     4    27    1
     2     5    27    1
     3    27    19    1
     4    27     3    1
     5    19    16   ar
     6    19    15   ar
     7    16    25   ar
     8     1    21    2
     9     7    11   ar
    10     7     6   ar
    11    15    20   ar
    12    21    25    1
    13    21    23    1
    14    25    26   ar
    15    11    18   ar
    16    13    23   ar
    17    13     9   ar
    18    23    24   ar
    19    20    26   ar
    20    20    17    1
    21    26    22    1
    22     6     8   ar
    23    18    17    1
    24    18    12   ar
    25     9    10   ar
    26    24    22    1
    27    24    14   ar
    28    22     2    2
    29    10    14   ar
    30     8    12   ar
