@<TRIPOS>MOLECULE
3qv8_S62_A_1.pdb
 17 18 0 0 0
SMALL
GASTEIGER

@<TRIPOS>ATOM
      1  C1       -32.1600  -42.8510   43.5470 C.2   499  S62499      0.0474
      2  C2       -33.1540  -42.9010   42.5740 C.2   499  S62499      0.1404
      3  C3       -34.5450  -43.1690   43.0390 C.2   499  S62499      0.0588
      4  C4       -34.8430  -43.3640   44.3860 C.2   499  S62499     -0.0109
      5  C5       -33.7970  -43.3000   45.3070 C.3   499  S62499      0.0722
      6  C6       -32.4780  -43.0460   44.8990 C.2   499  S62499      0.0969
      7  S13      -35.6420  -43.2040   41.7750 S.3   499  S62499     -0.0341
      8  C14      -34.3660  -42.8810   40.6410 C.2   499  S62499      0.2725
      9  N15      -33.1320  -42.7450   41.2060 N.2   499  S62499     -0.3764
     10  S20      -34.5870  -42.7280   39.0060 S.3   499  S62499      0.0760
     11  O22      -33.6160  -41.7250   38.5180 O.3   499  S62499     -0.0620
     12  O24      -35.9510  -42.2760   38.6790 O.3   499  S62499     -0.0620
     13  O26      -34.3260  -44.0100   38.3180 O.3   499  S62499     -0.0620
     14  S28      -31.2930  -42.9760   45.9840 S.3   499  S62499      0.0387
     15  O30      -31.8590  -42.9540   47.3580 O.3   499  S62499     -0.0653
     16  O32      -30.4870  -41.7480   45.7570 O.3   499  S62499     -0.0653
     17  O34      -30.4280  -44.1700   45.8170 O.3   499  S62499     -0.0653
@<TRIPOS>BOND
     1    13    10    1
     2    11    10    1
     3    12    10    1
     4    10     8    1
     5     8     9    2
     6     8     7    1
     7     9     2    2
     8     7     3    1
     9     2     3    1
    10     2     1    1
    11     3     4    2
    12     1     6    2
    13     4     5    1
    14     6     5    1
    15     6    14    1
    16    16    14    1
    17    17    14    1
    18    14    15    1
