@<TRIPOS>MOLECULE
3qv9_QV7_B_1.pdb
 44 46 0 0 0
SMALL
GASTEIGER

@<TRIPOS>ATOM
      1  OAA        7.1400   17.5950   10.1350 O.3   501  QV7501     -0.0650
      2  OAA       -5.5030   15.8580  -10.4930 O.3   501  QV7501      0.0000
      3  OAB        4.9220   18.6030   10.1360 O.3   501  QV7501     -0.0650
      4  OAC       -0.6460   18.5940   -8.9280 O.3   501  QV7501     -0.0650
      5  OAD       -0.8390   20.3040   -7.2520 O.3   501  QV7501     -0.0650
      6  OAE        4.1450   12.9810   -0.9490 O.3   501  QV7501     -0.0649
      7  OAF        3.7100   12.1210    1.3250 O.3   501  QV7501     -0.0649
      8  OAG       -2.1190   11.5370   -4.0280 O.3   501  QV7501     -0.0649
      9  OAH       -1.6720   11.6010   -6.3970 O.3   501  QV7501     -0.0649
     10  OAI        0.0720   12.8520   -2.5760 O.3   501  QV7501     -0.2835
     11  OAJ        5.2470   16.3910   10.8870 O.3   501  QV7501     -0.0650
     12  OAK        1.3190   19.7100   -8.0810 O.3   501  QV7501     -0.0650
     13  OAL        1.9970   12.1450   -0.2260 O.3   501  QV7501     -0.0649
     14  OAM        0.0510   10.9660   -4.8930 O.3   501  QV7501     -0.0649
     15  CAN        2.1760   17.0090    1.6580 C.ar  501  QV7501      0.0226
     16  CAO        5.6380   15.4460    6.2170 C.ar  501  QV7501      0.0222
     17  CAP        3.8080   17.0310    6.3290 C.ar  501  QV7501      0.0222
     18  CAQ        1.7740   16.6370    0.3560 C.ar  501  QV7501      0.0238
     19  CAR        6.0380   15.8150    7.5190 C.ar  501  QV7501      0.0205
     20  CAS        4.2070   17.3810    7.6070 C.ar  501  QV7501      0.0205
     21  CAT        0.6680   18.3460   -5.2240 C.ar  501  QV7501      0.0189
     22  CAU        0.7670   17.3980   -4.1970 C.ar  501  QV7501      0.0030
     23  CAV        3.1540   14.8420    1.9810 C.ar  501  QV7501      0.0414
     24  CAW       -0.2910   16.6620   -6.6760 C.ar  501  QV7501      0.0190
     25  CAX       -0.6310   14.4160   -5.8460 C.ar  501  QV7501      0.0223
     26  NAY        4.1140   15.7240    4.3690 N.2   501  QV7501     -0.1480
     27  NAZ        3.2820   16.4110    3.7400 N.2   501  QV7501     -0.1480
     28  NBA        1.6980   14.9140   -1.3990 N.2   501  QV7501     -0.1466
     29  NBB        0.9330   15.5250   -2.1630 N.2   501  QV7501     -0.1447
     30  CBC        4.5170   16.0480    5.6170 C.ar  501  QV7501      0.1030
     31  CBD        2.8780   16.1070    2.4850 C.ar  501  QV7501      0.1043
     32  CBE       -0.0020   13.8200   -3.5630 C.ar  501  QV7501      0.2323
     33  CBF        2.0750   15.3580   -0.1510 C.ar  501  QV7501      0.1205
     34  CBG        5.3100   16.7890    8.2280 C.ar  501  QV7501      0.1124
     35  CBH        0.1420   17.9760   -6.4660 C.ar  501  QV7501      0.1123
     36  CBI        2.7550   14.4670    0.6950 C.ar  501  QV7501      0.1331
     37  CBJ       -0.5290   13.4770   -4.8150 C.ar  501  QV7501      0.1526
     38  CBK        0.4570   15.1280   -3.3560 C.ar  501  QV7501      0.1429
     39  CBL       -0.2030   15.7230   -5.6380 C.ar  501  QV7501      0.0043
     40  CBM        0.3310   16.0800   -4.3920 C.ar  501  QV7501      0.0227
     41  SBN        5.6780   17.3320    9.9050 S.3   501  QV7501      0.0421
     42  SBO        0.0240   19.1760   -7.7250 S.3   501  QV7501      0.0421
     43  SBP        3.1540   12.8500    0.1640 S.3   501  QV7501      0.0436
     44  SBQ       -1.0770   11.8470   -5.0550 S.3   501  QV7501      0.0452
@<TRIPOS>BOND
     1     4    42    1
     2    12    42    1
     3    42     5    1
     4    42    35    1
     5    24    35   ar
     6    24    39   ar
     7    35    21   ar
     8     9    44    1
     9    25    39   ar
    10    25    37   ar
    11    39    40   ar
    12    21    22   ar
    13    44    14    1
    14    44    37    1
    15    44     8    1
    16    37    32   ar
    17    40    22   ar
    18    40    38   ar
    19    32    38   ar
    20    32    10    1
    21    38    29    1
    22    29    28    2
    23    28    33    1
    24     6    43    1
    25    13    43    1
    26    33    18   ar
    27    33    36   ar
    28    43    36    1
    29    43     7    1
    30    18    15   ar
    31    36    23   ar
    32    15    31   ar
    33    23    31   ar
    34    31    27    1
    35    27    26    2
    36    26    30    1
    37    30    16   ar
    38    30    17   ar
    39    16    19   ar
    40    17    20   ar
    41    19    34   ar
    42    20    34   ar
    43    34    41    1
    44    41     1    1
    45    41     3    1
    46    41    11    1
