@<TRIPOS>MOLECULE
3qvb_UDP_A_1.pdb
 25 26 0 0 0
SMALL
GASTEIGER

@<TRIPOS>ATOM
      1  N1        19.1750   19.5700    3.9930 N.am  264  UDP264     -0.1996
      2  C2        18.2630   20.3830    3.3270 C.1   264  UDP264      0.2802
      3  N3        18.6370   20.8900    2.0820 N.2   264  UDP264     -0.2497
      4  C4        19.8790   20.6100    1.5130 C.1   264  UDP264      0.1941
      5  C5        20.7790   19.8040    2.1790 C.3   264  UDP264      0.1579
      6  C6        20.3390   19.1730    3.3420 C.3   264  UDP264      0.1249
      7  O2        17.1290   20.6480    3.8030 O.2   264  UDP264     -0.1922
      8  O4        20.1820   21.0620    0.4160 O.2   264  UDP264     -0.2133
      9  C1'       18.8490   19.0170    5.3450 C.3   264  UDP264      0.2361
     10  C2'       17.7940   17.9250    5.2880 C.3   264  UDP264      0.2316
     11  O2'       16.9740   17.8480    6.4490 O.3   264  UDP264     -0.2157
     12  C3'       18.6650   16.7050    5.1350 C.3   264  UDP264      0.2158
     13  C4'       19.8690   17.0420    6.0310 C.3   264  UDP264      0.1799
     14  O4'       20.0180   18.4520    5.9620 O.3   264  UDP264     -0.3322
     15  O3'       17.9550   15.5340    5.5000 O.3   264  UDP264     -0.2175
     16  C5'       21.1830   16.3130    5.7000 C.3   264  UDP264      0.1813
     17  O5'       21.3900   16.2590    4.3080 O.3   264  UDP264     -0.3111
     18  PA        21.0860   14.9470    3.4120 P.3   264  UDP264      0.2231
     19  O1A       19.9660   14.2110    4.0400 O.3   264  UDP264     -0.4370
     20  O2A       20.7080   15.3340    2.0220 O.2   264  UDP264     -0.5169
     21  O3A       22.4890   14.0990    3.4230 O.3   264  UDP264     -0.2261
     22  PB        22.5500   12.4690    3.4540 P.3   264  UDP264      0.5373
     23  O1B       22.1380   11.9590    2.1170 O.2   264  UDP264     -0.2221
     24  O2B       21.5880   12.0270    4.5270 O.3   264  UDP264     -0.1143
     25  O3B       23.9240   11.9240    3.6920 O.3   264  UDP264     -0.1143
@<TRIPOS>BOND
     1     8     4    2
     2     4     3    2
     3     4     5    1
     4    20    18    2
     5     3     2    2
     6    23    22    2
     7     5     6    1
     8     2     7    2
     9     2     1   am
    10     6     1    1
    11    18    21    1
    12    18    19    1
    13    18    17    1
    14    21    22    1
    15    22    25    1
    16    22    24    1
    17     1     9    1
    18    17    16    1
    19    12    10    1
    20    12    15    1
    21    12    13    1
    22    10     9    1
    23    10    11    1
    24     9    14    1
    25    16    13    1
    26    14    13    1
