@<TRIPOS>MOLECULE
3qvf_FV1_A_1.pdb
 12 12 0 0 0
SMALL
GASTEIGER

@<TRIPOS>ATOM
      1  O         -0.1820   27.3490   41.2890 O.3   4001  FV14001     0.0000
      2  P         -1.3490   29.4800   39.8510 P.3   4001  FV14001     0.0000
      3  V         -3.9610   28.4820   38.1180 V     4001  FV14001     0.0000
      4  C1        -1.1780   28.4230   41.2990 C.3   4001  FV14001     0.0000
      5  O1        -3.8720   26.5510   38.1080 O.3   4001  FV14001     0.0000
      6  C2         0.0620   28.3690   42.2240 C.3   4001  FV14001     0.0000
      7  O2        -3.6940   29.3080   36.4080 O.3   4001  FV14001     0.0000
      8  C3         1.2100   29.4050   42.1340 C.3   4001  FV14001     0.0000
      9  O3        -5.6890   29.2120   38.9270 O.3   4001  FV14001     0.0000
     10  O1P        0.0080   29.7300   39.2210 O.2   4001  FV14001     0.0000
     11  O2P       -2.1590   28.7020   38.8140 O.3   4001  FV14001     0.0000
     12  O3P       -2.1500   30.7390   40.3420 O.3   4001  FV14001     0.0000
@<TRIPOS>BOND
     1     7     3    1
     2     5     3    1
     3     3    11    1
     4     3     9    1
     5    11     2    1
     6    10     2    2
     7     2    12    1
     8     2     4    1
     9     1     4    1
    10     1     6    1
    11     4     6    1
    12     8     6    1
