@<TRIPOS>MOLECULE
3qvf_ADP_A_1.pdb
 27 29 0 0 0
SMALL
GASTEIGER

@<TRIPOS>ATOM
      1  PB        -6.9590   30.2060   35.5310 P.3   1260  ADP1260     0.5373
      2  O1B       -6.0140   30.9090   36.4350 O.3   1260  ADP1260    -0.1143
      3  O2B       -6.9400   30.8030   34.1750 O.2   1260  ADP1260    -0.2221
      4  O3B       -6.8230   28.7060   35.5590 O.3   1260  ADP1260    -0.1143
      5  PA        -9.1140   31.1050   37.3880 P.3   1260  ADP1260     0.2231
      6  O1A      -10.1800   30.1670   37.9110 O.2   1260  ADP1260    -0.5169
      7  O2A       -8.0600   31.2950   38.4450 O.3   1260  ADP1260    -0.4370
      8  O3A       -8.4780   30.3840   36.1060 O.3   1260  ADP1260    -0.2261
      9  O5'       -9.6940   32.5220   36.8470 O.3   1260  ADP1260    -0.3111
     10  C5'      -10.7450   32.4850   35.8750 C.3   1260  ADP1260     0.1813
     11  C4'      -12.0870   32.5260   36.5940 C.3   1260  ADP1260     0.1821
     12  O4'      -12.3030   33.8200   37.1270 O.3   1260  ADP1260    -0.3135
     13  C3'      -13.3030   32.3210   35.6810 C.3   1260  ADP1260     0.2184
     14  O3'      -13.5160   30.9160   35.4650 O.3   1260  ADP1260    -0.2174
     15  C2'      -14.3930   32.9630   36.5140 C.3   1260  ADP1260     0.2570
     16  O2'      -15.0640   31.9650   37.2800 O.3   1260  ADP1260    -0.2130
     17  C1'      -13.6700   33.9050   37.4850 C.3   1260  ADP1260     0.3186
     18  N9       -14.2010   35.2550   37.3530 N.pl3 1260  ADP1260    -0.1439
     19  C8       -14.5350   36.0260   38.4050 C.3   1260  ADP1260     0.3377
     20  N7       -15.0420   37.1950   37.9890 N.2   1260  ADP1260    -0.2095
     21  C5       -15.0710   37.1810   36.6510 C.2   1260  ADP1260     0.2526
     22  C6       -15.5110   38.1200   35.6220 C.2   1260  ADP1260     0.4393
     23  N6       -16.0390   39.3330   35.9580 N.pl3 1260  ADP1260     0.2180
     24  N1       -15.3440   37.7390   34.3400 N.2   1260  ADP1260     0.0021
     25  C2       -14.8270   36.5210   34.0180 C.3   1260  ADP1260     0.5254
     26  N3       -14.4320   35.5900   34.9090 N.2   1260  ADP1260    -0.0055
     27  C4       -14.5240   35.8780   36.2320 C.2   1260  ADP1260     0.3518
@<TRIPOS>BOND
     1    25    24    1
     2    25    26    1
     3     3     1    2
     4    24    22    2
     5    26    27    2
     6    14    13    1
     7     1     4    1
     8     1     8    1
     9     1     2    1
    10    22    23    1
    11    22    21    1
    12    13    15    1
    13    13    11    1
    14    10    11    1
    15    10     9    1
    16     8     5    1
    17    27    21    1
    18    27    18    1
    19    15    16    1
    20    15    17    1
    21    11    12    1
    22    21    20    2
    23     9     5    1
    24    12    17    1
    25    18    17    1
    26    18    19    1
    27     5     6    2
    28     5     7    1
    29    20    19    1
