@<TRIPOS>MOLECULE
3qvh_ADP_A_1.pdb
 27 29 0 0 0
SMALL
GASTEIGER

@<TRIPOS>ATOM
      1  PB       -29.4660    8.7820   22.0350 P.3   1260  ADP1260     0.5373
      2  O1B      -29.6920   10.1290   22.7790 O.3   1260  ADP1260    -0.1143
      3  O2B      -29.5150    8.5860   20.5550 O.2   1260  ADP1260    -0.2221
      4  O3B      -28.2860    7.9950   22.5050 O.3   1260  ADP1260    -0.1143
      5  PA       -31.5320    7.5980   23.9030 P.3   1260  ADP1260     0.2231
      6  O1A      -31.0150    6.1990   24.3280 O.2   1260  ADP1260    -0.5169
      7  O2A      -31.4180    8.7420   24.9170 O.3   1260  ADP1260    -0.4370
      8  O3A      -30.8190    7.9750   22.4650 O.3   1260  ADP1260    -0.2261
      9  O5'      -33.1390    7.6600   23.4900 O.3   1260  ADP1260    -0.3111
     10  C5'      -33.5420    6.7440   22.4750 C.3   1260  ADP1260     0.1813
     11  C4'      -34.0350    5.4890   23.1900 C.3   1260  ADP1260     0.1821
     12  O4'      -35.2470    5.8620   23.8410 O.3   1260  ADP1260    -0.3135
     13  C3'      -34.3830    4.3080   22.2990 C.3   1260  ADP1260     0.2184
     14  O3'      -33.2650    3.4320   22.0390 O.3   1260  ADP1260    -0.2174
     15  C2'      -35.4630    3.6000   23.0870 C.3   1260  ADP1260     0.2570
     16  O2'      -34.8400    2.4120   23.5560 O.3   1260  ADP1260    -0.2130
     17  C1'      -35.9440    4.6290   24.1240 C.3   1260  ADP1260     0.3186
     18  N9       -37.4360    4.8300   24.0860 N.pl3 1260  ADP1260    -0.1439
     19  C8       -38.2460    4.8010   25.1600 C.3   1260  ADP1260     0.3377
     20  N7       -39.5470    4.9930   24.8120 N.2   1260  ADP1260    -0.2095
     21  C5       -39.6070    5.1500   23.4800 C.2   1260  ADP1260     0.2526
     22  C6       -40.6680    5.3810   22.4770 C.2   1260  ADP1260     0.4393
     23  N6       -41.9690    5.4760   22.8500 N.pl3 1260  ADP1260     0.2180
     24  N1       -40.3100    5.5260   21.1720 N.2   1260  ADP1260     0.0021
     25  C2       -39.0110    5.4160   20.7940 C.3   1260  ADP1260     0.5254
     26  N3       -38.0110    5.1980   21.6780 N.2   1260  ADP1260    -0.0055
     27  C4       -38.2210    5.0600   23.0080 C.2   1260  ADP1260     0.3518
@<TRIPOS>BOND
     1     3     1    2
     2    25    24    1
     3    25    26    1
     4    24    22    2
     5    26    27    2
     6     1     8    1
     7     1     4    1
     8     1     2    1
     9    14    13    1
    10    13    15    1
    11    13    11    1
    12     8     5    1
    13    10    11    1
    14    10     9    1
    15    22    23    1
    16    22    21    1
    17    27    21    1
    18    27    18    1
    19    15    16    1
    20    15    17    1
    21    11    12    1
    22    21    20    2
    23     9     5    1
    24    12    17    1
    25     5     6    2
    26     5     7    1
    27    18    17    1
    28    18    19    1
    29    20    19    1
