@<TRIPOS>MOLECULE
3qvi_K95_A_1.pdb
 49 53 0 0 0
SMALL
GASTEIGER

@<TRIPOS>ATOM
      1  CBH       17.5860  -18.0770    5.6480 C.2   329  K95329      0.2462
      2  CAX       17.8620  -19.5530    5.8430 C.3   329  K95329      0.1131
      3  CBL       19.1770  -19.9520    6.4190 C.ar  329  K95329     -0.0130
      4  CAR       20.0890  -20.6370    5.5510 C.ar  329  K95329     -0.0038
      5  CAL       21.3320  -21.0860    6.0700 C.ar  329  K95329     -0.0003
      6  CAJ       21.6330  -20.8260    7.4430 C.ar  329  K95329     -0.0000
      7  CAM       20.7090  -20.1390    8.2970 C.ar  329  K95329     -0.0003
      8  CAS       19.4590  -19.7160    7.7930 C.ar  329  K95329     -0.0038
      9  OAD       18.3210  -17.1520    6.0400 O.2   329  K95329     -0.2730
     10  N         16.4470  -17.9140    4.9970 N.am  329  K95329     -0.1966
     11  CA        15.9520  -16.5890    4.7330 C.3   329  K95329      0.1834
     12  CB        15.9810  -16.4380    3.2230 C.3   329  K95329      0.0886
     13  SBF       17.5310  -15.6640    2.5920 S.3   329  K95329     -0.1370
     14  CAA       17.3980  -16.9920    1.4100 C.3   329  K95329      0.0692
     15  C         14.5550  -16.5790    5.2940 C.2   329  K95329      0.2622
     16  O         14.0720  -17.6300    5.6760 O.2   329  K95329     -0.2715
     17  CBK       10.1380  -16.0010    5.2220 C.2   329  K95329      0.2589
     18  NBD       13.9270  -15.4220    5.3430 N.am  329  K95329     -0.2022
     19  OAG        9.2370  -15.1460    5.1950 O.2   329  K95329     -0.2720
     20  CBR       11.5480  -15.7090    4.6790 C.3   329  K95329      0.2475
     21  CBM       11.1060  -13.8990    7.3620 C.ar  329  K95329     -0.0204
     22  CBB       12.3150  -13.9360    6.4070 C.3   329  K95329      0.0511
     23  CAK        8.8880  -13.8300    9.0840 C.ar  329  K95329     -0.0000
     24  CBS       12.5420  -15.3300    5.8270 C.3   329  K95329      0.1389
     25  OAI       11.5040  -14.6690    3.7060 O.3   329  K95329     -0.2114
     26  CAU        9.9890  -13.0910    7.0940 C.ar  329  K95329     -0.0042
     27  CAT       11.1100  -14.6740    8.5070 C.ar  329  K95329     -0.0042
     28  CAO        8.8860  -13.0440    7.9610 C.ar  329  K95329     -0.0003
     29  CAN       10.0020  -14.6250    9.3490 C.ar  329  K95329     -0.0003
     30  CBJ       11.0630  -19.0820    4.4150 C.2   329  K95329      0.2606
     31  NBV        9.9140  -17.1920    5.7680 N.am  329  K95329     -0.2602
     32  OAF       10.0670  -19.3590    3.7520 O.2   329  K95329     -0.2715
     33  CBU       10.9540  -18.3070    5.7930 C.3   329  K95329      0.1633
     34  CBW       10.6080  -19.2620    6.9950 C.3   329  K95329      0.0661
     35  CAZ        8.5820  -17.4880    6.3630 C.3   329  K95329      0.1527
     36  CAC       10.9970  -18.6480    8.3500 C.3   329  K95329      0.0131
     37  CAB       11.0010  -20.7460    6.8740 C.3   329  K95329      0.0131
     38  SBG        8.8200  -19.2140    6.8920 S.3   329  K95329     -0.1182
     39  NBE       12.3160  -19.4590    4.0670 N.am  329  K95329     -0.1986
     40  OAH       15.0900  -20.5380    3.7530 O.3   329  K95329     -0.2206
     41  CBT       12.7010  -20.1980    2.8550 C.3   329  K95329      0.1478
     42  CBO       13.1790  -19.1900    1.7810 C.ar  329  K95329     -0.0040
     43  CAW       12.7760  -17.9000    1.5100 C.ar  329  K95329     -0.0029
     44  CAQ       13.3860  -17.2140    0.4840 C.ar  329  K95329     -0.0003
     45  CBP       13.9640  -21.1080    3.0280 C.3   329  K95329      0.1802
     46  CBN       14.1880  -19.8000    1.0130 C.ar  329  K95329     -0.0218
     47  CAV       14.7950  -19.1140   -0.0150 C.ar  329  K95329     -0.0044
     48  CAP       14.3970  -17.8110   -0.2720 C.ar  329  K95329     -0.0003
     49  CBA       14.4160  -21.2280    1.5530 C.3   329  K95329      0.0611
@<TRIPOS>BOND
     1    48    47   ar
     2    48    44   ar
     3    47    46   ar
     4    44    43   ar
     5    46    49    1
     6    46    42   ar
     7    14    13    1
     8    43    42   ar
     9    49    45    1
    10    42    41    1
    11    13    12    1
    12    41    45    1
    13    41    39    1
    14    45    40    1
    15    12    11    1
    16    25    20    1
    17    32    30    2
    18    39    30   am
    19    30    33    1
    20    20    17    1
    21    20    24    1
    22    11    10    1
    23    11    15    1
    24    10     1   am
    25    19    17    2
    26    17    31   am
    27    15    18   am
    28    15    16    2
    29    18    24    1
    30     4     5   ar
    31     4     3   ar
    32     1     2    1
    33     1     9    2
    34    31    33    1
    35    31    35    1
    36    33    34    1
    37    24    22    1
    38     2     3    1
    39     5     6   ar
    40    35    38    1
    41    22    21    1
    42     3     8   ar
    43    37    34    1
    44    38    34    1
    45    34    36    1
    46    26    21   ar
    47    26    28   ar
    48    21    27   ar
    49     6     7   ar
    50     8     7   ar
    51    28    23   ar
    52    27    29   ar
    53    23    29   ar
