@<TRIPOS>MOLECULE
3qvk_2AL_A_1.pdb
 11 11 0 0 0
SMALL
GASTEIGER

@<TRIPOS>ATOM
      1  C4        38.0420   31.0830  -19.4990 C.2   451  2AL451      0.3182
      2  C5        37.1100   32.0800  -19.7320 C.1   451  2AL451      0.2650
      3  O5        37.3540   33.2610  -19.9780 O.2   451  2AL451     -0.2044
      4  N7        35.8970   31.5420  -19.6470 N.2   451  2AL451     -0.2288
      5  C8        36.0890   30.2490  -19.3690 C.1   451  2AL451      0.3676
      6  O8        35.1830   29.4320  -19.2160 O.2   451  2AL451     -0.1744
      7  N9        37.3870   29.9490  -19.2750 N.2   451  2AL451     -0.2772
      8  N3        39.3710   31.2130  -19.5010 N.am  451  2AL451     -0.1175
      9  C2        40.0640   31.5880  -18.4230 C.2   451  2AL451      0.3659
     10  N1        39.3880   31.8640  -17.3110 N.am  451  2AL451     -0.0675
     11  O2        41.2910   31.6820  -18.4590 O.2   451  2AL451     -0.2470
@<TRIPOS>BOND
     1     3     2    2
     2     2     4    2
     3     2     1    1
     4     4     5    2
     5     8     1    1
     6     8     9   am
     7     1     7    2
     8     5     7    2
     9     5     6    2
    10    11     9    2
    11     9    10   am
