@<TRIPOS>MOLECULE
3qvl_5HY_A_1.pdb
 11 11 0 0 0
SMALL
GASTEIGER

@<TRIPOS>ATOM
      1  C         37.3370   32.2200  -19.7980 C.1     1  5HY1        0.2159
      2  N         37.7560   30.0020  -19.3510 N.2     1  5HY1       -0.1590
      3  O         37.4460   33.4160  -20.0610 O.2     1  5HY1       -0.2114
      4  CA        38.4870   31.2260  -19.7020 C.3     1  5HY1        0.2457
      5  CB        39.5280   31.6150  -18.6290 C.3     1  5HY1        0.1574
      6  CG        38.9720   31.9950  -17.2470 C.2     1  5HY1        0.3681
      7  OAB       35.5770   29.4630  -19.0890 O.2     1  5HY1       -0.1881
      8  NAF       36.1880   31.5840  -19.5810 N.2     1  5HY1       -0.2449
      9  CAI       36.4510   30.2950  -19.3320 C.1     1  5HY1        0.3073
     10  OD1       39.8100   32.0970  -16.3270 O.co2   1  5HY1       -0.2455
     11  OD2       37.7440   32.1930  -17.1270 O.co2   1  5HY1       -0.2455
@<TRIPOS>BOND
     1     3     1    2
     2     1     4    1
     3     1     8    2
     4     4     2    1
     5     4     5    1
     6     8     9    2
     7     2     9    2
     8     9     7    2
     9     5     6    1
    10     6    11   ar
    11     6    10   ar
