@<TRIPOS>MOLECULE
3qvo_MNB_A_1.pdb
 13 13 0 0 0
SMALL
GASTEIGER

@<TRIPOS>ATOM
      1  C6        -4.5850    5.1950    6.4210 C.ar  215  MNB215      0.0152
      2  C1        -5.5400    4.7770    5.5240 C.ar  215  MNB215      0.1027
      3  C2        -5.1690    4.1420    4.3250 C.ar  215  MNB215      0.1492
      4  C3        -3.8020    3.9280    4.0160 C.ar  215  MNB215      0.0248
      5  C4        -2.8530    4.3570    4.9290 C.ar  215  MNB215      0.0087
      6  C5        -3.2550    4.9820    6.1200 C.ar  215  MNB215      0.0360
      7  S5        -2.0630    5.4860    7.3500 S.3   215  MNB215     -0.0507
      8  C10       -6.9910    5.0560    5.9460 C.2   215  MNB215      0.3894
      9  O12       -7.4190    6.2680    5.8600 O.co2 215  MNB215     -0.2405
     10  O11       -7.5930    4.0310    6.3880 O.co2 215  MNB215     -0.2405
     11  N7        -6.0990    3.7170    3.4400 N.pl3 215  MNB215      0.0579
     12  O9        -5.7120    2.9640    2.2790 O.2   215  MNB215     -0.1261
     13  O8        -7.4220    3.9480    3.6500 O.2   215  MNB215     -0.1261
@<TRIPOS>BOND
     1    12    11    2
     2    11    13    2
     3    11     3    1
     4     4     3   ar
     5     4     5   ar
     6     3     2   ar
     7     5     6   ar
     8     2     8    1
     9     2     1   ar
    10     9     8   ar
    11     8    10   ar
    12     6     1   ar
    13     6     7    1
