@<TRIPOS>MOLECULE
3qvp_NAG_A_1.pdb
 14 14 0 0 0
SMALL
GASTEIGER

@<TRIPOS>ATOM
      1  C1        11.7410   -8.0470   31.9160 C.3   601  NAG601      0.1665
      2  C2        11.4730   -6.6100   31.4670 C.3   601  NAG601      0.1576
      3  C3        12.7270   -6.0570   30.8110 C.3   601  NAG601      0.2069
      4  C4        13.9220   -6.1800   31.7660 C.3   601  NAG601      0.2134
      5  C5        14.0690   -7.6180   32.2790 C.3   601  NAG601      0.1809
      6  C6        15.0790   -7.7480   33.4190 C.3   601  NAG601      0.2141
      7  C7         9.1390   -6.2100   30.9330 C.2   601  NAG601      0.2420
      8  C8         8.0520   -6.2480   29.8990 C.3   601  NAG601      0.0964
      9  N2        10.3490   -6.5900   30.5420 N.am  601  NAG601     -0.2019
     10  O3        12.4950   -4.7110   30.4270 O.3   601  NAG601     -0.2184
     11  O4        15.0840   -5.8010   31.0620 O.3   601  NAG601     -0.2176
     12  O5        12.8460   -8.0940   32.8020 O.3   601  NAG601     -0.3489
     13  O6        15.2490   -9.1180   33.7310 O.3   601  NAG601     -0.2176
     14  O7         8.8720   -5.8420   32.0850 O.2   601  NAG601     -0.2733
@<TRIPOS>BOND
     1     8     7    1
     2    10     3    1
     3     9     7   am
     4     9     2    1
     5     3     2    1
     6     3     4    1
     7     7    14    2
     8    11     4    1
     9     2     1    1
    10     4     5    1
    11     1    12    1
    12     5    12    1
    13     5     6    1
    14     6    13    1
