@<TRIPOS>MOLECULE
3qvq_G3P_A_1.pdb
 17 16 0 0 0
SMALL
GASTEIGER

@<TRIPOS>ATOM
      1  O1        72.0650  -17.3660   -6.2200 O.3   301  G3P301     -0.3924
      2  C1        71.3460  -18.5580   -6.4760 C.3   301  G3P301      0.0723
      3  C2        70.6610  -18.4730   -7.8350 C.3   301  G3P301      0.1020
      4  O2        69.8880  -17.2990   -7.9330 O.3   301  G3P301     -0.3872
      5  C3        71.6770  -18.4590   -8.9650 C.3   301  G3P301      0.0873
      6  O1P       70.9950  -18.6160  -10.1940 O.3   301  G3P301     -0.2809
      7  O4P       70.3170  -16.0400  -10.4820 O.3   301  G3P301     -0.1145
      8  O2P       68.6200  -17.8440  -10.3540 O.3   301  G3P301     -0.1145
      9  O3P       70.0570  -17.5990  -12.3430 O.2   301  G3P301     -0.2224
     10  P         70.0120  -17.4940  -10.8300 P.3   301  G3P301      0.5320
     11  HO1       71.9600  -16.7520   -6.9770 H     301  G3P301      0.2095
     12  H11       70.5990  -18.7110   -5.6970 H     301  G3P301      0.0583
     13  H12       72.0280  -19.4080   -6.4620 H     301  G3P301      0.0583
     14  H2        70.0190  -19.3460   -7.9550 H     301  G3P301      0.0639
     15  HO2       70.1950  -16.7700   -8.6990 H     301  G3P301      0.2100
     16  H31       72.3920  -19.2710   -8.8310 H     301  G3P301      0.0592
     17  H32       72.2230  -17.5160   -8.9620 H     301  G3P301      0.0592
@<TRIPOS>BOND
     1     9    10    2
     2    10     7    1
     3    10     8    1
     4    10     6    1
     5     6     5    1
     6     5    17    1
     7     5    16    1
     8     5     3    1
     9    15     4    1
    10    14     3    1
    11     4     3    1
    12     3     2    1
    13    11     1    1
    14     2    13    1
    15     2     1    1
    16     2    12    1
