@<TRIPOS>MOLECULE
3qvr_NAG_A_1.pdb
 14 14 0 0 0
SMALL
GASTEIGER

@<TRIPOS>ATOM
      1  C1       -11.8300   11.3720  -31.8510 C.3   601  NAG601      0.1665
      2  C2       -10.3690   11.1710  -31.4470 C.3   601  NAG601      0.1576
      3  C3        -9.8510   12.4480  -30.7980 C.3   601  NAG601      0.2069
      4  C4       -10.0610   13.6550  -31.7140 C.3   601  NAG601      0.2134
      5  C5       -11.5280   13.7090  -32.1640 C.3   601  NAG601      0.1809
      6  C6       -11.7470   14.7780  -33.2330 C.3   601  NAG601      0.2141
      7  C7        -9.7870    8.8330  -30.9850 C.2   601  NAG601      0.2420
      8  C8        -9.7770    7.7250  -29.9650 C.3   601  NAG601      0.0964
      9  N2       -10.2780   10.0050  -30.5740 N.am  601  NAG601     -0.2019
     10  O3        -8.4950   12.2820  -30.4460 O.3   601  NAG601     -0.2184
     11  O4        -9.7790   14.8040  -30.9490 O.3   601  NAG601     -0.2176
     12  O5       -11.9470   12.4790  -32.7210 O.3   601  NAG601     -0.3489
     13  O6       -13.1270   14.8210  -33.5490 O.3   601  NAG601     -0.2176
     14  O7        -9.3520    8.6120  -32.1310 O.2   601  NAG601     -0.2733
@<TRIPOS>BOND
     1    13     6    1
     2     6     5    1
     3    12     5    1
     4    12     1    1
     5     5     4    1
     6    14     7    2
     7     1     2    1
     8     4    11    1
     9     4     3    1
    10     2     3    1
    11     2     9    1
    12     7     9   am
    13     7     8    1
    14     3    10    1
