@<TRIPOS>MOLECULE
3qvs_NAD_A_1.pdb
 44 48 0 0 0
SMALL
GASTEIGER

@<TRIPOS>ATOM
      1  PA         8.7690   24.7350   18.1080 P.3   396  NAD396      0.2189
      2  O1A        7.9950   25.1360   19.3190 O.3   396  NAD396     -0.4371
      3  O2A        8.0170   23.9510   17.0760 O.2   396  NAD396     -0.5170
      4  O5B       10.1420   24.0450   18.5990 O.3   396  NAD396     -0.3112
      5  C5B       10.7310   24.2600   19.8760 C.3   396  NAD396      0.1813
      6  C4B       10.8590   22.9090   20.5870 C.3   396  NAD396      0.1821
      7  O4B       11.6860   23.0190   21.7390 O.3   396  NAD396     -0.3135
      8  C3B        9.5030   22.3510   21.0280 C.3   396  NAD396      0.2184
      9  O3B        9.3810   21.0240   20.5570 O.3   396  NAD396     -0.2174
     10  C2B        9.5180   22.4660   22.5520 C.3   396  NAD396      0.2570
     11  O2B        8.8420   21.4100   23.2050 O.3   396  NAD396     -0.2130
     12  C1B       11.0090   22.4700   22.8690 C.3   396  NAD396      0.3186
     13  N9A       11.4670   23.2010   24.0700 N.pl3 396  NAD396     -0.1439
     14  C8A       11.0480   24.3970   24.6100 C.3   396  NAD396      0.3377
     15  N7A       11.8490   24.6650   25.6760 N.2   396  NAD396     -0.2095
     16  C5A       12.7530   23.6610   25.7970 C.2   396  NAD396      0.2526
     17  C6A       13.7890   23.4280   26.6860 C.2   396  NAD396      0.4393
     18  N6A       14.1260   24.3480   27.5690 N.pl3 396  NAD396      0.2180
     19  N1A       14.5720   22.3090   26.5400 N.2   396  NAD396      0.0021
     20  C2A       14.3480   21.4040   25.5230 C.3   396  NAD396      0.5254
     21  N3A       13.3050   21.6300   24.6380 N.2   396  NAD396     -0.0055
     22  C4A       12.5440   22.7580   24.7860 C.2   396  NAD396      0.3518
     23  O3         9.3600   26.1310   17.5310 O.3   396  NAD396     -0.2703
     24  PN        10.1880   26.2580   16.1310 P.3   396  NAD396      0.2189
     25  O1N        9.2450   26.8380   15.1540 O.2   396  NAD396     -0.5170
     26  O2N       10.8810   24.9780   15.8520 O.3   396  NAD396     -0.4371
     27  O5D       11.2690   27.4030   16.4590 O.3   396  NAD396     -0.3112
     28  C5D       12.3510   27.0530   17.3140 C.3   396  NAD396      0.1813
     29  C4D       13.0080   28.2510   17.9740 C.3   396  NAD396      0.1799
     30  O4D       13.6830   28.9590   16.9480 O.3   396  NAD396     -0.3327
     31  C3D       12.0460   29.2250   18.6600 C.3   396  NAD396      0.2158
     32  O3D       12.6520   29.7600   19.8250 O.3   396  NAD396     -0.2175
     33  C2D       11.9340   30.3340   17.6350 C.3   396  NAD396      0.2309
     34  O2D       11.5100   31.5670   18.1790 O.3   396  NAD396     -0.2158
     35  C1D       13.3510   30.3360   17.0610 C.3   396  NAD396      0.2263
     36  N1N       13.4460   30.9590   15.7390 N.pl3 396  NAD396     -0.2787
     37  C2N       12.7340   30.3990   14.6880 C.3   396  NAD396      0.1244
     38  C3N       12.8330   30.9800   13.4230 C.2   396  NAD396      0.0544
     39  C7N       12.0790   30.3970   12.2570 C.2   396  NAD396      0.2818
     40  O7N       11.2080   29.3190   12.4250 O.2   396  NAD396     -0.2670
     41  N7N       12.2430   30.9230   11.0460 N.am  396  NAD396     -0.0839
     42  C4N       13.6480   32.1150   13.2540 C.2   396  NAD396      0.0033
     43  C5N       14.3580   32.6630   14.3320 C.2   396  NAD396      0.0157
     44  C6N       14.2630   32.0670   15.5890 C.2   396  NAD396      0.0633
@<TRIPOS>BOND
     1    41    39   am
     2    39    40    2
     3    39    38    1
     4    42    38    2
     5    42    43    1
     6    38    37    1
     7    43    44    2
     8    37    36    1
     9    25    24    2
    10    44    36    1
    11    36    35    1
    12    26    24    1
    13    24    27    1
    14    24    23    1
    15    27    28    1
    16    30    35    1
    17    30    29    1
    18    35    33    1
    19     3     1    2
    20    28    29    1
    21    23     1    1
    22    33    34    1
    23    33    31    1
    24    29    31    1
    25     1     4    1
    26     1     2    1
    27     4     5    1
    28    31    32    1
    29     5     6    1
    30     9     8    1
    31     6     8    1
    32     6     7    1
    33     8    10    1
    34     7    12    1
    35    10    12    1
    36    10    11    1
    37    12    13    1
    38    13    14    1
    39    13    22    1
    40    14    15    1
    41    21    22    2
    42    21    20    1
    43    22    16    1
    44    20    19    1
    45    15    16    2
    46    16    17    1
    47    19    17    2
    48    17    18    1
