@<TRIPOS>MOLECULE
3qvt_NAI_A_1.pdb
 44 48 0 0 0
SMALL
GASTEIGER

@<TRIPOS>ATOM
      1  PA         8.7940   24.7790   18.1950 P.3   396  NAI396      0.2189
      2  O1A        7.9970   23.9180   17.2110 O.2   396  NAI396     -0.5170
      3  O2A        8.1330   25.1680   19.5080 O.3   396  NAI396     -0.4371
      4  O5B       10.1650   23.9980   18.6140 O.3   396  NAI396     -0.3112
      5  C5B       10.7640   24.2360   19.9000 C.3   396  NAI396      0.1813
      6  C4B       10.8490   22.9030   20.6400 C.3   396  NAI396      0.1821
      7  O4B       11.7170   23.0140   21.7630 O.3   396  NAI396     -0.3135
      8  C3B        9.5210   22.3570   21.1470 C.3   396  NAI396      0.2184
      9  O3B        9.4610   21.0210   20.6220 O.3   396  NAI396     -0.2174
     10  C2B        9.6280   22.3660   22.6680 C.3   396  NAI396      0.2570
     11  O2B        9.0360   21.2240   23.3000 O.3   396  NAI396     -0.2130
     12  C1B       11.1350   22.3500   22.8980 C.3   396  NAI396      0.3186
     13  N9A       11.6280   23.1180   24.0790 N.pl3 396  NAI396     -0.1439
     14  C8A       11.1970   24.2980   24.5380 C.3   396  NAI396      0.3377
     15  N7A       11.9530   24.6530   25.5900 N.2   396  NAI396     -0.2095
     16  C5A       12.8530   23.6710   25.7810 C.2   396  NAI396      0.2526
     17  C6A       13.8670   23.4890   26.6980 C.2   396  NAI396      0.4393
     18  N6A       14.0700   24.4380   27.6340 N.pl3 396  NAI396      0.2180
     19  N1A       14.6370   22.3700   26.6290 N.2   396  NAI396      0.0021
     20  C2A       14.4150   21.4580   25.6670 C.3   396  NAI396      0.5254
     21  N3A       13.4320   21.6110   24.7600 N.2   396  NAI396     -0.0055
     22  C4A       12.6470   22.7070   24.8200 C.2   396  NAI396      0.3518
     23  O3         9.3900   26.1600   17.5560 O.3   396  NAI396     -0.2703
     24  PN        10.2250   26.2730   16.1570 P.3   396  NAI396      0.2189
     25  O1N        9.2970   27.0040   15.2060 O.2   396  NAI396     -0.5170
     26  O2N       10.8420   24.9030   15.8500 O.3   396  NAI396     -0.4371
     27  O5D       11.3870   27.3280   16.4780 O.3   396  NAI396     -0.3112
     28  C5D       12.4940   26.9820   17.3020 C.3   396  NAI396      0.1813
     29  C4D       13.1120   28.2180   17.9230 C.3   396  NAI396      0.1799
     30  O4D       13.7750   28.9590   16.8880 O.3   396  NAI396     -0.3327
     31  C3D       12.1080   29.1590   18.5780 C.3   396  NAI396      0.2158
     32  O3D       12.6750   29.5940   19.8230 O.3   396  NAI396     -0.2175
     33  C2D       12.0680   30.3450   17.6300 C.3   396  NAI396      0.2309
     34  O2D       11.8150   31.5940   18.2660 O.3   396  NAI396     -0.2158
     35  C1D       13.4610   30.3520   17.0430 C.3   396  NAI396      0.2263
     36  N1N       13.4790   31.0470   15.7580 N.pl3 396  NAI396     -0.2787
     37  C2N       12.8590   30.4530   14.7230 C.3   396  NAI396      0.1244
     38  C3N       12.9720   31.0020   13.4610 C.2   396  NAI396      0.0544
     39  C7N       12.1220   30.4200   12.3680 C.2   396  NAI396      0.2818
     40  O7N       11.4610   29.2670   12.5330 O.2   396  NAI396     -0.2670
     41  N7N       12.0590   31.0390   11.2710 N.am  396  NAI396     -0.0839
     42  C4N       13.5650   32.2790   13.3280 C.2   396  NAI396      0.0033
     43  C5N       14.3650   32.7700   14.3540 C.2   396  NAI396      0.0157
     44  C6N       14.3220   32.0960   15.5820 C.2   396  NAI396      0.0633
@<TRIPOS>BOND
     1    41    39   am
     2    39    40    2
     3    39    38    1
     4    42    38    2
     5    42    43    1
     6    38    37    1
     7    43    44    2
     8    37    36    1
     9    25    24    2
    10    44    36    1
    11    36    35    1
    12    26    24    1
    13    24    27    1
    14    24    23    1
    15    27    28    1
    16    30    35    1
    17    30    29    1
    18    35    33    1
    19     2     1    2
    20    28    29    1
    21    23     1    1
    22    33    34    1
    23    33    31    1
    24    29    31    1
    25     1     4    1
    26     1     3    1
    27    31    32    1
    28     4     5    1
    29     5     6    1
    30     9     8    1
    31     6     8    1
    32     6     7    1
    33     8    10    1
    34     7    12    1
    35    10    12    1
    36    10    11    1
    37    12    13    1
    38    13    14    1
    39    13    22    1
    40    14    15    1
    41    21    22    2
    42    21    20    1
    43    22    16    1
    44    15    16    2
    45    20    19    1
    46    16    17    1
    47    19    17    2
    48    17    18    1
