@<TRIPOS>MOLECULE
3qvt_KPG_A_1.pdb
 17 16 0 0 0
SMALL
GASTEIGER

@<TRIPOS>ATOM
      1  P         12.5590   37.3180   11.0630 P.3   520  KPG520      0.5330
      2  C1         8.1240   36.4370   13.7980 C.3   520  KPG520      0.4581
      3  C2         8.3310   34.9380   13.9370 C.3   520  KPG520      0.2763
      4  O2         8.3660   34.3410   12.6250 O.3   520  KPG520     -0.2118
      5  C3         9.6370   34.7010   14.7010 C.3   520  KPG520      0.2275
      6  O3         9.5510   33.6520   15.6690 O.3   520  KPG520     -0.2169
      7  C4        10.7670   34.3990   13.7480 C.3   520  KPG520      0.2441
      8  O4        11.1940   33.0620   13.9560 O.3   520  KPG520     -0.2122
      9  C5        11.8840   35.3440   14.0820 C.2   520  KPG520      0.2137
     10  O5        12.7120   35.0660   14.9170 O.2   520  KPG520     -0.2906
     11  C6        11.9890   36.6440   13.3440 C.3   520  KPG520      0.2203
     12  O6        13.0010   36.4830   12.3600 O.3   520  KPG520     -0.2621
     13  O11        8.1550   37.0660   15.0840 O.2   520  KPG520     -0.2640
     14  O12        6.8310   36.6490   13.2310 O.2   520  KPG520     -0.2640
     15  O1P       13.8400   37.6270   10.1450 O.2   520  KPG520     -0.2224
     16  O2P       11.4940   36.3970   10.2810 O.3   520  KPG520     -0.1145
     17  O3P       11.8490   38.6800   11.5280 O.3   520  KPG520     -0.1145
@<TRIPOS>BOND
     1    15     1    2
     2    16     1    1
     3     1    17    1
     4     1    12    1
     5    12    11    1
     6     4     3    1
     7    14     2    1
     8    11     9    1
     9     7     8    1
    10     7     9    1
    11     7     5    1
    12     2     3    1
    13     2    13    1
    14     3     5    1
    15     9    10    2
    16     5     6    1
