@<TRIPOS>MOLECULE
3qvu_NPO_A_1.pdb
 10 10 0 0 0
SMALL
GASTEIGER

@<TRIPOS>ATOM
      1  C1       -26.2640   -0.0260   -5.0270 C.ar  296  NPO296      0.1431
      2  C2       -25.8850    1.2380   -4.5840 C.ar  296  NPO296      0.0274
      3  C3       -24.5370    1.5610   -4.4690 C.ar  296  NPO296      0.0437
      4  C4       -23.5670    0.6200   -4.7990 C.ar  296  NPO296      0.1958
      5  C5       -23.9450   -0.6430   -5.2430 C.ar  296  NPO296      0.0437
      6  C6       -25.2930   -0.9650   -5.3560 C.ar  296  NPO296      0.0274
      7  OH       -22.2460    0.9340   -4.6880 O.3   296  NPO296     -0.2866
      8  N1       -27.6210   -0.3590   -5.1420 N.pl3 296  NPO296      0.0577
      9  O2       -28.4850    0.4690   -4.9050 O.2   296  NPO296     -0.1261
     10  O3       -27.9420   -1.4880   -5.4760 O.2   296  NPO296     -0.1261
@<TRIPOS>BOND
     1    10     8    2
     2     6     5   ar
     3     6     1   ar
     4     5     4   ar
     5     8     1    1
     6     8     9    2
     7     1     2   ar
     8     4     7    1
     9     4     3   ar
    10     2     3   ar
