@<TRIPOS>MOLECULE
3qvu_A3P_A_1.pdb
 27 29 0 0 0
SMALL
GASTEIGER

@<TRIPOS>ATOM
      1  P1       -19.7650   -1.2130    7.0970 P.3   2001  A3P2001     0.5327
      2  O1P      -20.8020   -2.0210    6.4170 O.2   2001  A3P2001    -0.2224
      3  O2P      -20.3210   -0.3410    8.3360 O.3   2001  A3P2001    -0.1145
      4  O3P      -18.5510   -2.1000    7.7020 O.3   2001  A3P2001    -0.1145
      5  P2       -19.2640    1.9030    0.2600 P.3   2001  A3P2001     0.5327
      6  O4P      -20.4860    1.1390   -0.1040 O.3   2001  A3P2001    -0.1145
      7  O5P      -19.4890    3.5020    0.1850 O.3   2001  A3P2001    -0.1145
      8  O6P      -18.0440    1.6040   -0.7570 O.2   2001  A3P2001    -0.2224
      9  O5'      -18.7260    1.5930    1.7330 O.3   2001  A3P2001    -0.2675
     10  C5'      -19.6380    1.2070    2.7590 C.3   2001  A3P2001     0.1859
     11  C4'      -18.8800    0.9700    4.0580 C.3   2001  A3P2001     0.1796
     12  O4'      -18.2380    2.2140    4.4530 O.3   2001  A3P2001    -0.3136
     13  C3'      -19.8290    0.6110    5.1990 C.3   2001  A3P2001     0.1928
     14  O3'      -19.0660   -0.1370    6.1410 O.3   2001  A3P2001    -0.2673
     15  C2'      -20.1330    1.9820    5.7810 C.3   2001  A3P2001     0.2543
     16  O2'      -20.6350    1.8500    7.1160 O.3   2001  A3P2001    -0.2131
     17  C1'      -18.7150    2.5420    5.7870 C.3   2001  A3P2001     0.3185
     18  N9       -18.6180    4.0100    5.9470 N.pl3 2001  A3P2001    -0.1439
     19  C8       -19.4130    4.9320    5.4010 C.3   2001  A3P2001     0.3377
     20  N7       -19.0040    6.1480    5.7670 N.2   2001  A3P2001    -0.2095
     21  C5       -17.9380    6.0000    6.5470 C.2   2001  A3P2001     0.2526
     22  C6       -17.1040    6.8860    7.2120 C.2   2001  A3P2001     0.4393
     23  N6       -17.3050    8.1980    7.1330 N.pl3 2001  A3P2001     0.2180
     24  N1       -16.0880    6.3980    7.9380 N.2   2001  A3P2001     0.0021
     25  C2       -15.8800    5.0920    8.0240 C.3   2001  A3P2001     0.5254
     26  N3       -16.6590    4.2200    7.4020 N.2   2001  A3P2001    -0.0055
     27  C4       -17.6910    4.6440    6.6590 C.2   2001  A3P2001     0.3518
@<TRIPOS>BOND
     1     8     5    2
     2     6     5    1
     3     7     5    1
     4     5     9    1
     5     9    10    1
     6    10    11    1
     7    11    12    1
     8    11    13    1
     9    12    17    1
    10    13    15    1
    11    13    14    1
    12    19    20    1
    13    19    18    1
    14    20    21    2
    15    15    17    1
    16    15    16    1
    17    17    18    1
    18    18    27    1
    19    14     1    1
    20     2     1    2
    21    21    27    1
    22    21    22    1
    23    27    26    2
    24     1     4    1
    25     1     3    1
    26    23    22    1
    27    22    24    2
    28    26    25    1
    29    24    25    1
