@<TRIPOS>MOLECULE
3qvv_3QV_A_1.pdb
 14 15 0 0 0
SMALL
GASTEIGER

@<TRIPOS>ATOM
      1  C1         2.1220   12.1180   12.7420 C.ar  296  3QV296      0.1988
      2  N1         4.5130    5.1180   11.6260 N.1   296  3QV296     -0.1906
      3  O1         1.5030   13.2900   13.0350 O.3   296  3QV296     -0.2865
      4  C2         3.3610   12.1270   12.1130 C.ar  296  3QV296      0.0422
      5  O2         1.5850    6.3140   13.0970 O.2   296  3QV296     -0.2437
      6  C3         3.9940   10.9270   11.8180 C.ar  296  3QV296      0.0063
      7  O3         1.5090    8.5480   13.1190 O.2   296  3QV296     -0.4205
      8  C4         3.3840    9.7240   12.1510 C.ar  296  3QV296      0.0358
      9  C5         4.0160    8.5300   11.8510 C.ar  296  3QV296      0.0199
     10  C6         3.3770    7.3480   12.1840 C.ar  296  3QV296      0.1443
     11  C7         3.9950    6.0980   11.8810 C.1   296  3QV296      0.1070
     12  C8         2.1360    7.3760   12.8100 C.ar  296  3QV296      0.3555
     13  C9         2.1410    9.7100   12.7780 C.ar  296  3QV296      0.1519
     14  C10        1.5140   10.9140   13.0730 C.ar  296  3QV296      0.0796
@<TRIPOS>BOND
     1     2    11    3
     2     6     4   ar
     3     6     8   ar
     4     9     8   ar
     5     9    10   ar
     6    11    10    1
     7     4     1   ar
     8     8    13   ar
     9    10    12   ar
    10     1     3    1
    11     1    14   ar
    12    13    14   ar
    13    13     7   ar
    14    12     5    2
    15    12     7   ar
