@<TRIPOS>MOLECULE
3qvv_A3P_A_1.pdb
 27 29 0 0 0
SMALL
GASTEIGER

@<TRIPOS>ATOM
      1  P1         4.2720   16.3760   24.0220 P.3   2001  A3P2001     0.5327
      2  O1P        5.2020   15.3950   23.3540 O.2   2001  A3P2001    -0.2224
      3  O2P        3.3590   15.7600   25.0550 O.3   2001  A3P2001    -0.1145
      4  O3P        4.9250   17.6590   24.4650 O.3   2001  A3P2001    -0.1145
      5  P2         1.0650   16.1510   17.1170 P.3   2001  A3P2001     0.5327
      6  O4P        2.0270   14.9990   16.9960 O.3   2001  A3P2001    -0.1145
      7  O5P       -0.3860   15.7400   17.1330 O.3   2001  A3P2001    -0.1145
      8  O6P        1.3860   17.3340   16.2350 O.2   2001  A3P2001    -0.2224
      9  O5'        1.3170   16.7560   18.5800 O.3   2001  A3P2001    -0.2675
     10  C5'        1.7950   15.9540   19.6510 C.3   2001  A3P2001     0.1859
     11  C4'        2.0950   16.8640   20.8320 C.3   2001  A3P2001     0.1796
     12  O4'        0.9360   17.6410   21.1650 O.3   2001  A3P2001    -0.3136
     13  C3'        2.4370   16.0590   22.0700 C.3   2001  A3P2001     0.1928
     14  O3'        3.2900   16.8870   22.8540 O.3   2001  A3P2001    -0.2673
     15  C2'        1.0900   15.9200   22.7360 C.3   2001  A3P2001     0.2543
     16  O2'        1.2130   15.6420   24.1270 O.3   2001  A3P2001    -0.2131
     17  C1'        0.5050   17.2990   22.4860 C.3   2001  A3P2001     0.3185
     18  N9        -0.9730   17.3560   22.6370 N.pl3 2001  A3P2001    -0.1439
     19  C8        -1.8770   16.4720   22.1730 C.3   2001  A3P2001     0.3377
     20  N7        -3.1400   16.8460   22.5050 N.2   2001  A3P2001    -0.2095
     21  C5        -3.0510   17.9940   23.2010 C.2   2001  A3P2001     0.2526
     22  C6        -3.9940   18.9340   23.8530 C.2   2001  A3P2001     0.4393
     23  N6        -5.3290   18.7180   23.8290 N.pl3 2001  A3P2001     0.2180
     24  N1        -3.4770   20.0190   24.4730 N.2   2001  A3P2001     0.0021
     25  C2        -2.1530   20.2550   24.5110 C.3   2001  A3P2001     0.5254
     26  N3        -1.2450   19.4450   23.9410 N.2   2001  A3P2001    -0.0055
     27  C4        -1.6220   18.3220   23.2840 C.2   2001  A3P2001     0.3518
@<TRIPOS>BOND
     1     8     5    2
     2     6     5    1
     3     5     7    1
     4     5     9    1
     5     9    10    1
     6    10    11    1
     7    11    12    1
     8    11    13    1
     9    12    17    1
    10    13    15    1
    11    13    14    1
    12    19    20    1
    13    19    18    1
    14    17    18    1
    15    17    15    1
    16    20    21    2
    17    18    27    1
    18    15    16    1
    19    14     1    1
    20    21    27    1
    21    21    22    1
    22    27    26    2
    23     2     1    2
    24    23    22    1
    25    22    24    2
    26    26    25    1
    27     1     4    1
    28     1     3    1
    29    24    25    1
