@<TRIPOS>MOLECULE
3qvw_NAD_A_1.pdb
 44 48 0 0 0
SMALL
GASTEIGER

@<TRIPOS>ATOM
      1  PA         8.8210   25.0220   18.1500 P.3   396  NAD396      0.2189
      2  O1A        8.1020   25.4870   19.3490 O.3   396  NAD396     -0.4371
      3  O2A        7.9750   24.0860   17.3070 O.2   396  NAD396     -0.5170
      4  O5B       10.1130   24.1940   18.6730 O.3   396  NAD396     -0.3112
      5  C5B       10.7320   24.3920   19.9460 C.3   396  NAD396      0.1813
      6  C4B       10.8800   23.0270   20.6230 C.3   396  NAD396      0.1821
      7  O4B       11.6730   23.2020   21.7820 O.3   396  NAD396     -0.3135
      8  C3B        9.5450   22.4770   21.1030 C.3   396  NAD396      0.2184
      9  O3B        9.3920   21.1080   20.7190 O.3   396  NAD396     -0.2174
     10  C2B        9.5540   22.6900   22.6140 C.3   396  NAD396      0.2570
     11  O2B        8.8940   21.6580   23.2790 O.3   396  NAD396     -0.2130
     12  C1B       11.0280   22.6350   22.9220 C.3   396  NAD396      0.3186
     13  N9A       11.4860   23.3730   24.1100 N.pl3 396  NAD396     -0.1439
     14  C8A       11.0560   24.5690   24.6130 C.3   396  NAD396      0.3377
     15  N7A       11.8310   24.8960   25.6760 N.2   396  NAD396     -0.2095
     16  C5A       12.7440   23.8980   25.8530 C.2   396  NAD396      0.2526
     17  C6A       13.7480   23.7130   26.7920 C.2   396  NAD396      0.4393
     18  N6A       14.0290   24.7130   27.6190 N.pl3 396  NAD396      0.2180
     19  N1A       14.5710   22.5950   26.7060 N.2   396  NAD396      0.0021
     20  C2A       14.3660   21.6470   25.7040 C.3   396  NAD396      0.5254
     21  N3A       13.3470   21.8410   24.7770 N.2   396  NAD396     -0.0055
     22  C4A       12.5480   22.9460   24.8710 C.2   396  NAD396      0.3518
     23  O3         9.4120   26.3900   17.5130 O.3   396  NAD396     -0.2703
     24  PN        10.1570   26.5910   16.0880 P.3   396  NAD396      0.2189
     25  O1N        9.3060   27.4300   15.2050 O.2   396  NAD396     -0.5170
     26  O2N       10.7020   25.2550   15.7180 O.3   396  NAD396     -0.4371
     27  O5D       11.3320   27.5280   16.5390 O.3   396  NAD396     -0.3112
     28  C5D       12.2570   27.1350   17.5230 C.3   396  NAD396      0.1813
     29  C4D       13.0160   28.3440   18.0080 C.3   396  NAD396      0.1799
     30  O4D       13.6290   28.9610   16.8910 O.3   396  NAD396     -0.3327
     31  C3D       12.1130   29.3580   18.6700 C.3   396  NAD396      0.2158
     32  O3D       12.7700   30.0430   19.7390 O.3   396  NAD396     -0.2175
     33  C2D       12.0800   30.4150   17.6180 C.3   396  NAD396      0.2309
     34  O2D       11.6790   31.6480   18.1660 O.3   396  NAD396     -0.2158
     35  C1D       13.5000   30.3720   17.0670 C.3   396  NAD396      0.2263
     36  N1N       13.5150   31.0720   15.7700 N.pl3 396  NAD396     -0.2787
     37  C2N       12.7570   30.5640   14.7290 C.3   396  NAD396      0.1244
     38  C3N       12.7110   31.2210   13.5050 C.2   396  NAD396      0.0544
     39  C7N       12.0450   30.5640   12.3320 C.2   396  NAD396      0.2818
     40  O7N       11.3640   29.3400   12.5140 O.2   396  NAD396     -0.2670
     41  N7N       12.1700   31.1540   11.1330 N.am  396  NAD396     -0.0839
     42  C4N       13.4420   32.4220   13.3270 C.2   396  NAD396      0.0033
     43  C5N       14.2000   32.9200   14.3860 C.2   396  NAD396      0.0157
     44  C6N       14.2220   32.2360   15.6010 C.2   396  NAD396      0.0633
@<TRIPOS>BOND
     1    41    39   am
     2    39    40    2
     3    39    38    1
     4    42    38    2
     5    42    43    1
     6    38    37    1
     7    43    44    2
     8    37    36    1
     9    25    24    2
    10    44    36    1
    11    26    24    1
    12    36    35    1
    13    24    27    1
    14    24    23    1
    15    27    28    1
    16    30    35    1
    17    30    29    1
    18    35    33    1
    19     3     1    2
    20    23     1    1
    21    28    29    1
    22    33    34    1
    23    33    31    1
    24    29    31    1
    25     1     4    1
    26     1     2    1
    27    31    32    1
    28     4     5    1
    29     5     6    1
    30     6     8    1
    31     6     7    1
    32     9     8    1
    33     8    10    1
    34     7    12    1
    35    10    12    1
    36    10    11    1
    37    12    13    1
    38    13    14    1
    39    13    22    1
    40    14    15    1
    41    21    22    2
    42    21    20    1
    43    22    16    1
    44    15    16    2
    45    20    19    1
    46    16    17    1
    47    19    17    2
    48    17    18    1
