@<TRIPOS>MOLECULE
3qvx_NAD_A_1.pdb
 44 48 0 0 0
SMALL
GASTEIGER

@<TRIPOS>ATOM
      1  PA         8.9130   24.7830   18.0360 P.3   396  NAD396      0.2189
      2  O1A        8.1220   25.1430   19.2400 O.3   396  NAD396     -0.4371
      3  O2A        8.1360   23.9280   17.0970 O.2   396  NAD396     -0.5170
      4  O5B       10.1640   23.8890   18.5310 O.3   396  NAD396     -0.3112
      5  C5B       10.8120   24.0770   19.7820 C.3   396  NAD396      0.1813
      6  C4B       10.8870   22.7640   20.5780 C.3   396  NAD396      0.1821
      7  O4B       11.6080   23.0200   21.7850 O.3   396  NAD396     -0.3135
      8  C3B        9.5270   22.2040   21.0020 C.3   396  NAD396      0.2184
      9  O3B        9.3540   20.8590   20.5490 O.3   396  NAD396     -0.2174
     10  C2B        9.5070   22.3720   22.5260 C.3   396  NAD396      0.2570
     11  O2B        8.7720   21.3540   23.1370 O.3   396  NAD396     -0.2130
     12  C1B       11.0050   22.3150   22.8520 C.3   396  NAD396      0.3186
     13  N9A       11.4850   23.0440   24.0410 N.pl3 396  NAD396     -0.1439
     14  C8A       11.0390   24.2190   24.5780 C.3   396  NAD396      0.3377
     15  N7A       11.8310   24.5300   25.6240 N.2   396  NAD396     -0.2095
     16  C5A       12.7470   23.5450   25.7810 C.2   396  NAD396      0.2526
     17  C6A       13.7720   23.3500   26.7020 C.2   396  NAD396      0.4393
     18  N6A       14.0350   24.2470   27.6430 N.pl3 396  NAD396      0.2180
     19  N1A       14.5800   22.2310   26.5770 N.2   396  NAD396      0.0021
     20  C2A       14.3480   21.3120   25.5600 C.3   396  NAD396      0.5254
     21  N3A       13.3250   21.5060   24.6450 N.2   396  NAD396     -0.0055
     22  C4A       12.5450   22.6160   24.7730 C.2   396  NAD396      0.3518
     23  O3         9.5060   26.1840   17.4540 O.3   396  NAD396     -0.2703
     24  PN        10.1850   26.2890   16.0010 P.3   396  NAD396      0.2189
     25  O1N        9.2170   26.8080   15.0390 O.2   396  NAD396     -0.5170
     26  O2N       10.7930   24.9650   15.6960 O.3   396  NAD396     -0.4371
     27  O5D       11.3460   27.2970   16.3440 O.3   396  NAD396     -0.3112
     28  C5D       12.3950   26.8890   17.1900 C.3   396  NAD396      0.1813
     29  C4D       13.1310   28.0360   17.8330 C.3   396  NAD396      0.1799
     30  O4D       13.8710   28.7710   16.8590 O.3   396  NAD396     -0.3327
     31  C3D       12.1650   28.9940   18.5330 C.3   396  NAD396      0.2158
     32  O3D       12.7970   29.5570   19.6590 O.3   396  NAD396     -0.2175
     33  C2D       12.0740   30.0700   17.4900 C.3   396  NAD396      0.2309
     34  O2D       11.5600   31.2810   17.9880 O.3   396  NAD396     -0.2158
     35  C1D       13.5040   30.1230   16.9480 C.3   396  NAD396      0.2263
     36  N1N       13.5200   30.7660   15.6200 N.pl3 396  NAD396     -0.2787
     37  C2N       12.7980   30.2160   14.5920 C.3   396  NAD396      0.1244
     38  C3N       12.7930   30.7830   13.3250 C.2   396  NAD396      0.0544
     39  C7N       12.0010   30.1700   12.1980 C.2   396  NAD396      0.2818
     40  O7N       11.2110   29.0310   12.4430 O.2   396  NAD396     -0.2670
     41  N7N       12.0620   30.6880   10.9560 N.am  396  NAD396     -0.0839
     42  C4N       13.5080   31.9820   13.1200 C.2   396  NAD396      0.0033
     43  C5N       14.2160   32.5320   14.1880 C.2   396  NAD396      0.0157
     44  C6N       14.2140   31.9330   15.4360 C.2   396  NAD396      0.0633
@<TRIPOS>BOND
     1    41    39   am
     2    39    40    2
     3    39    38    1
     4    42    38    2
     5    42    43    1
     6    38    37    1
     7    43    44    2
     8    37    36    1
     9    25    24    2
    10    44    36    1
    11    36    35    1
    12    26    24    1
    13    24    27    1
    14    24    23    1
    15    27    28    1
    16    30    35    1
    17    30    29    1
    18    35    33    1
    19     3     1    2
    20    28    29    1
    21    23     1    1
    22    33    34    1
    23    33    31    1
    24    29    31    1
    25     1     4    1
    26     1     2    1
    27     4     5    1
    28    31    32    1
    29     5     6    1
    30     9     8    1
    31     6     8    1
    32     6     7    1
    33     8    10    1
    34     7    12    1
    35    10    12    1
    36    10    11    1
    37    12    13    1
    38    13    14    1
    39    13    22    1
    40    14    15    1
    41    21    22    2
    42    21    20    1
    43    22    16    1
    44    20    19    1
    45    15    16    2
    46    16    17    1
    47    19    17    2
    48    17    18    1
