@<TRIPOS>MOLECULE
3qvy_HEM_A_1.pdb
 43 50 0 0 0
SMALL
GASTEIGER

@<TRIPOS>ATOM
      1  CHA      -22.2640   33.4420   20.6720 C.2   150  HEM150      0.0000
      2  CHB      -24.0250   29.0570   20.0310 C.2   150  HEM150      0.0000
      3  CHC      -21.3180   28.6290   16.0200 C.2   150  HEM150      0.0000
      4  CHD      -18.7940   32.5140   17.2480 C.2   150  HEM150      0.0000
      5  C1A      -23.0170   32.3230   20.8890 C.2   150  HEM150      0.0000
      6  C2A      -23.9160   32.0920   22.0010 C.2   150  HEM150      0.0000
      7  C3A      -24.3670   30.8280   21.8000 C.2   150  HEM150      0.0000
      8  C4A      -23.7970   30.2950   20.5900 C.2   150  HEM150      0.0000
      9  CMA      -25.3440   30.0250   22.6520 C.3   150  HEM150      0.0000
     10  CAA      -24.2580   33.0890   23.1900 C.3   150  HEM150      0.0000
     11  CBA      -24.7600   34.4880   22.7360 C.3   150  HEM150      0.0000
     12  CGA      -25.3700   35.4670   23.7610 C.2   150  HEM150      0.0000
     13  O1A      -26.6200   35.5520   23.9340 O.co2 150  HEM150      0.0000
     14  O2A      -24.6570   36.2750   24.4100 O.co2 150  HEM150      0.0000
     15  C1B      -23.4530   28.5710   18.8740 C.ar  150  HEM150      0.0000
     16  C2B      -23.7140   27.2780   18.3130 C.ar  150  HEM150      0.0000
     17  C3B      -22.9800   27.1550   17.2010 C.ar  150  HEM150      0.0000
     18  C4B      -22.2230   28.3680   17.0320 C.ar  150  HEM150      0.0000
     19  CMB      -24.7410   26.2480   18.9060 C.3   150  HEM150      0.0000
     20  CAB      -22.9620   25.9030   16.2790 C.2   150  HEM150      0.0000
     21  CBB      -24.1650   25.3700   15.9280 C.2   150  HEM150      0.0000
     22  C1C      -20.3700   29.6100   16.0020 C.2   150  HEM150      0.0000
     23  C2C      -19.3190   29.7900   14.9870 C.2   150  HEM150      0.0000
     24  C3C      -18.6190   30.8750   15.2900 C.2   150  HEM150      0.0000
     25  C4C      -19.1910   31.4090   16.5270 C.2   150  HEM150      0.0000
     26  CMC      -19.0730   28.9070   13.7380 C.3   150  HEM150      0.0000
     27  CAC      -17.4040   31.3880   14.4480 C.2   150  HEM150      0.0000
     28  CBC      -17.2680   30.9960   13.1540 C.2   150  HEM150      0.0000
     29  C1D      -19.5620   33.1170   18.2450 C.ar  150  HEM150      0.0000
     30  C2D      -19.2690   34.4390   18.7530 C.ar  150  HEM150      0.0000
     31  C3D      -20.3150   34.7100   19.8130 C.ar  150  HEM150      0.0000
     32  C4D      -21.1660   33.5300   19.8390 C.ar  150  HEM150      0.0000
     33  CMD      -18.0900   35.3210   18.3090 C.3   150  HEM150      0.0000
     34  CAD      -20.4590   35.9720   20.6980 C.3   150  HEM150      0.0000
     35  CBD      -21.2710   37.0600   20.0130 C.3   150  HEM150      0.0000
     36  CGD      -21.5740   38.1280   21.0480 C.2   150  HEM150      0.0000
     37  O1D      -21.7010   39.3400   20.6860 O.co2 150  HEM150      0.0000
     38  O2D      -21.6850   37.7430   22.2350 O.co2 150  HEM150      0.0000
     39  NA       -22.9630   31.2160   20.0750 N.2   150  HEM150      0.0000
     40  NB       -22.5330   29.2140   18.0700 N.ar  150  HEM150      0.0000
     41  NC       -20.2600   30.6210   16.9300 N.2   150  HEM150      0.0000
     42  ND       -20.6960   32.6060   18.8990 N.ar  150  HEM150      0.0000
     43 FE        -21.6050   30.9010   18.4600 Fe    150  HEM150      0.0000
@<TRIPOS>BOND
     1    28    27    2
     2    26    23    1
     3    27    24    1
     4    23    24    2
     5    23    22    1
     6    24    25    1
     7    21    20    2
     8    22     3    2
     9    22    41    1
    10     3    18    1
    11    20    17    1
    12    25    41    2
    13    25     4    1
    14    41    43    1
    15    18    17   ar
    16    18    40   ar
    17    17    16   ar
    18     4    29    2
    19    40    43    1
    20    40    15   ar
    21    29    30   ar
    22    29    42   ar
    23    33    30    1
    24    16    15   ar
    25    16    19    1
    26    43    42    1
    27    43    39    1
    28    30    31   ar
    29    15     2    1
    30    42    32   ar
    31    31    32   ar
    32    31    34    1
    33    32     1    2
    34    35    34    1
    35    35    36    1
    36     2     8    2
    37    39     8    1
    38    39     5    2
    39     8     7    1
    40     1     5    1
    41    37    36   ar
    42     5     6    1
    43    36    38   ar
    44     7     6    2
    45     7     9    1
    46     6    10    1
    47    11    10    1
    48    11    12    1
    49    12    13   ar
    50    12    14   ar
