@<TRIPOS>MOLECULE
3qvy_ME7_C_1.pdb
 16 17 0 0 0
SMALL
GASTEIGER

@<TRIPOS>ATOM
      1  OAA      -37.7440    5.2750   -1.4410 O.2   501  ME7501     -0.2691
      2  OAB      -38.6080    9.4820   -0.1630 O.2   501  ME7501     -0.2691
      3  OAC      -37.9370    6.7630    3.3340 O.2   501  ME7501     -0.2691
      4  OAD      -40.3520    9.8640    1.1620 O.2   501  ME7501     -0.2691
      5  CAE      -36.5180    7.2550   -1.9170 C.2   501  ME7501      0.0634
      6  CAF      -36.8310    8.6560   -1.4360 C.2   501  ME7501      0.0634
      7  CAG      -37.7440    9.1890    3.4870 C.2   501  ME7501      0.0634
      8  CAH      -38.5590   10.2420    2.7410 C.2   501  ME7501      0.0634
      9  CAI      -39.6420    6.5830    0.0560 C.2   501  ME7501      0.0919
     10  CAJ      -40.1550    7.1290    1.3840 C.2   501  ME7501      0.0919
     11  CAK      -37.6440    6.4760   -1.2960 C.2   501  ME7501      0.2591
     12  CAL      -38.0910    8.4970   -0.6490 C.2   501  ME7501      0.2591
     13  CAM      -38.3370    7.8760    2.9760 C.2   501  ME7501      0.2591
     14  CAN      -39.5100    9.4000    1.9180 C.2   501  ME7501      0.2591
     15  NAO      -38.4850    7.2210   -0.5910 N.am  501  ME7501     -0.1985
     16  NAP      -39.3080    8.1000    2.0720 N.am  501  ME7501     -0.1985
@<TRIPOS>BOND
     1     5     6    2
     2     5    11    1
     3     1    11    2
     4     6    12    1
     5    11    15   am
     6    12    15   am
     7    12     2    2
     8    15     9    1
     9     9    10    2
    10     4    14    2
    11    10    16    1
    12    14    16   am
    13    14     8    1
    14    16    13   am
    15     8     7    2
    16    13     3    2
    17    13     7    1
