@<TRIPOS>MOLECULE
3qvz_HEM_A_1.pdb
 43 50 0 0 0
SMALL
GASTEIGER

@<TRIPOS>ATOM
      1  CHA       -8.3680    9.1490  -19.6350 C.2   150  HEM150      0.0000
      2  CHB      -13.0240    9.3040  -18.7600 C.2   150  HEM150      0.0000
      3  CHC      -12.3190   12.2630  -15.0010 C.2   150  HEM150      0.0000
      4  CHD       -7.6570   11.9240  -15.7730 C.2   150  HEM150      0.0000
      5  C1A       -9.7010    8.9580  -19.7370 C.ar  150  HEM150      0.0000
      6  C2A      -10.3010    8.1400  -20.7610 C.ar  150  HEM150      0.0000
      7  C3A      -11.6170    8.1830  -20.5300 C.ar  150  HEM150      0.0000
      8  C4A      -11.8410    9.0180  -19.3450 C.ar  150  HEM150      0.0000
      9  CMA      -12.6920    7.4760  -21.3720 C.3   150  HEM150      0.0000
     10  CAA       -9.4970    7.4160  -21.8950 C.3   150  HEM150      0.0000
     11  CBA       -8.9150    6.0750  -21.4140 C.3   150  HEM150      0.0000
     12  CGA       -7.7490    5.5370  -22.2370 C.2   150  HEM150      0.0000
     13  O1A       -7.8700    4.4110  -22.8040 O.co2 150  HEM150      0.0000
     14  O2A       -6.6760    6.2090  -22.3270 O.co2 150  HEM150      0.0000
     15  C1B      -13.2080   10.1420  -17.6900 C.2   150  HEM150      0.0000
     16  C2B      -14.5030   10.5600  -17.2050 C.2   150  HEM150      0.0000
     17  C3B      -14.3120   11.3880  -16.1650 C.2   150  HEM150      0.0000
     18  C4B      -12.8920   11.5050  -15.9770 C.2   150  HEM150      0.0000
     19  CMB      -15.8230   10.0940  -17.8260 C.3   150  HEM150      0.0000
     20  CAB      -15.3510   12.1310  -15.2800 C.2   150  HEM150      0.0000
     21  CBB      -16.4720   11.4760  -14.9250 C.2   150  HEM150      0.0000
     22  C1C      -10.9750   12.4350  -14.8940 C.ar  150  HEM150      0.0000
     23  C2C      -10.2930   13.2900  -13.9300 C.ar  150  HEM150      0.0000
     24  C3C       -8.9810   13.1720  -14.1510 C.ar  150  HEM150      0.0000
     25  C4C       -8.8410   12.2710  -15.2550 C.ar  150  HEM150      0.0000
     26  CMC      -10.9870   14.1380  -12.8500 C.3   150  HEM150      0.0000
     27  CAC       -7.7940   13.8630  -13.4470 C.2   150  HEM150      0.0000
     28  CBC       -7.9690   14.4340  -12.2440 C.2   150  HEM150      0.0000
     29  C1D       -7.4530   11.1640  -16.8640 C.2   150  HEM150      0.0000
     30  C2D       -6.1470   10.9200  -17.3750 C.2   150  HEM150      0.0000
     31  C3D       -6.3650   10.0370  -18.5860 C.2   150  HEM150      0.0000
     32  C4D       -7.7820    9.8710  -18.6570 C.2   150  HEM150      0.0000
     33  CMD       -4.8000   11.3920  -16.8420 C.3   150  HEM150      0.0000
     34  CAD       -5.2690    9.4670  -19.5060 C.3   150  HEM150      0.0000
     35  CBD       -4.7140    8.1980  -18.8820 C.3   150  HEM150      0.0000
     36  CGD       -4.1900    7.3560  -20.0110 C.2   150  HEM150      0.0000
     37  O1D       -3.3160    6.4820  -19.7340 O.co2 150  HEM150      0.0000
     38  O2D       -4.6490    7.5590  -21.1760 O.co2 150  HEM150      0.0000
     39  NA       -10.6400    9.4810  -18.8790 N.ar  150  HEM150      0.0000
     40  NB       -12.2310   10.7560  -16.9230 N.2   150  HEM150      0.0000
     41  NC       -10.0530   11.8030  -15.6960 N.ar  150  HEM150      0.0000
     42  ND        -8.4120   10.5560  -17.6400 N.2   150  HEM150      0.0000
     43 FE        -10.3260   10.6910  -17.2770 Fe    150  HEM150      0.0000
@<TRIPOS>BOND
     1    13    12   ar
     2    14    12   ar
     3    12    11    1
     4    10    11    1
     5    10     6    1
     6     9     7    1
     7    38    36   ar
     8     6     7   ar
     9     6     5   ar
    10     7     8   ar
    11    36    37   ar
    12    36    35    1
    13     5     1    2
    14     5    39   ar
    15     1    32    1
    16    34    35    1
    17    34    31    1
    18     8    39   ar
    19     8     2    2
    20    39    43    1
    21     2    15    1
    22    32    31    1
    23    32    42    2
    24    31    30    2
    25    19    16    1
    26    15    16    1
    27    15    40    2
    28    42    43    1
    29    42    29    1
    30    30    29    1
    31    30    33    1
    32    43    40    1
    33    43    41    1
    34    16    17    2
    35    40    18    1
    36    29     4    2
    37    17    18    1
    38    17    20    1
    39    18     3    2
    40     4    25    1
    41    41    25   ar
    42    41    22   ar
    43    20    21    2
    44    25    24   ar
    45     3    22    1
    46    22    23   ar
    47    24    23   ar
    48    24    27    1
    49    23    26    1
    50    27    28    2
