@<TRIPOS>MOLECULE
3qvz_ME7_A_1.pdb
 16 17 0 0 0
SMALL
GASTEIGER

@<TRIPOS>ATOM
      1  OAA      -39.8310    6.9350   -2.7850 O.2   501  ME7501     -0.2695
      2  OAB      -37.0080    6.7330    0.4880 O.2   501  ME7501     -0.2695
      3  OAC      -40.3640    9.4770   -0.0970 O.2   501  ME7501     -0.2695
      4  OAD      -38.8260    6.7850    3.0770 O.2   501  ME7501     -0.2695
      5  CAE      -37.6060    7.7250   -2.8420 C.2   501  ME7501      0.0630
      6  CAF      -36.6530    7.6260   -1.6880 C.2   501  ME7501      0.0630
      7  CAG      -38.8370    9.9610    1.5530 C.2   501  ME7501      0.0630
      8  CAH      -38.2960    9.0920    2.6780 C.2   501  ME7501      0.0630
      9  CAI      -39.6460    6.0420   -0.1320 C.3   501  ME7501      0.1234
     10  CAJ      -40.6200    6.7750    0.8040 C.3   501  ME7501      0.1234
     11  CAK      -38.8020    7.0740   -2.2150 C.2   501  ME7501      0.2553
     12  CAL      -37.4500    6.9770   -0.6040 C.2   501  ME7501      0.2553
     13  CAM      -39.7850    9.0070    0.8480 C.2   501  ME7501      0.2553
     14  CAN      -39.0410    7.7910    2.5180 C.2   501  ME7501      0.2553
     15  NAO      -38.6590    6.7200   -0.9760 N.am  501  ME7501     -0.2211
     16  NAP      -39.8350    7.7900    1.4210 N.am  501  ME7501     -0.2211
@<TRIPOS>BOND
     1     5    11    1
     2     5     6    2
     3     1    11    2
     4    11    15   am
     5     6    12    1
     6    15    12   am
     7    15     9    1
     8    12     2    2
     9     9    10    1
    10     3    13    2
    11    10    16    1
    12    13    16   am
    13    13     7    1
    14    16    14   am
    15     7     8    2
    16    14     8    1
    17    14     4    2
