@<TRIPOS>MOLECULE
3qw0_HEM_A_1.pdb
 43 50 0 0 0
SMALL
GASTEIGER

@<TRIPOS>ATOM
      1  CHA       21.7300    4.9150   10.9520 C.2   150  HEM150      0.0000
      2  CHB       21.0730    5.3160    6.1680 C.2   150  HEM150      0.0000
      3  CHC       16.2590    4.8890    6.8970 C.2   150  HEM150      0.0000
      4  CHD       16.8700    4.6480   11.7110 C.2   150  HEM150      0.0000
      5  C1A       21.9630    5.0610    9.6090 C.ar  150  HEM150      0.0000
      6  C2A       23.2830    5.1680    9.0010 C.ar  150  HEM150      0.0000
      7  C3A       23.0910    5.2660    7.6870 C.ar  150  HEM150      0.0000
      8  C4A       21.6650    5.2660    7.4260 C.ar  150  HEM150      0.0000
      9  CMA       24.1630    5.4160    6.5500 C.3   150  HEM150      0.0000
     10  CAA       24.6510    5.1000    9.7630 C.3   150  HEM150      0.0000
     11  CBA       24.8840    3.6340   10.1830 C.3   150  HEM150      0.0000
     12  CGA       26.2140    3.4760   10.8780 C.2   150  HEM150      0.0000
     13  O1A       27.2300    3.1850   10.1970 O.co2 150  HEM150      0.0000
     14  O2A       26.2960    3.6250   12.1350 O.co2 150  HEM150      0.0000
     15  C1B       19.7180    5.1970    5.9690 C.2   150  HEM150      0.0000
     16  C2B       19.0490    5.2610    4.6800 C.2   150  HEM150      0.0000
     17  C3B       17.7100    5.1660    4.8810 C.2   150  HEM150      0.0000
     18  C4B       17.4870    5.0350    6.3100 C.2   150  HEM150      0.0000
     19  CMB       19.8020    5.4720    3.3460 C.3   150  HEM150      0.0000
     20  CAB       16.5480    5.1420    3.8060 C.2   150  HEM150      0.0000
     21  CBB       16.7280    4.4460    2.6450 C.2   150  HEM150      0.0000
     22  C1C       16.0340    4.7690    8.2800 C.ar  150  HEM150      0.0000
     23  C2C       14.7370    4.6740    8.8740 C.ar  150  HEM150      0.0000
     24  C3C       14.8720    4.6040   10.2140 C.ar  150  HEM150      0.0000
     25  C4C       16.2930    4.6890   10.4780 C.ar  150  HEM150      0.0000
     26  CMC       13.4850    4.6810    7.9870 C.3   150  HEM150      0.0000
     27  CAC       13.7360    4.4820   11.3020 C.2   150  HEM150      0.0000
     28  CBC       12.4810    4.0900   10.9110 C.2   150  HEM150      0.0000
     29  C1D       18.2250    4.7290   11.9190 C.2   150  HEM150      0.0000
     30  C2D       18.8420    4.7580   13.2650 C.2   150  HEM150      0.0000
     31  C3D       20.3260    4.7990   13.0310 C.2   150  HEM150      0.0000
     32  C4D       20.5070    4.8490   11.5740 C.2   150  HEM150      0.0000
     33  CMD       18.1200    4.7260   14.6340 C.3   150  HEM150      0.0000
     34  CAD       21.4180    4.8280   14.1370 C.3   150  HEM150      0.0000
     35  CBD       21.7960    3.3460   14.2870 C.3   150  HEM150      0.0000
     36  CGD       22.8900    3.2770   15.3580 C.2   150  HEM150      0.0000
     37  O1D       23.0350    2.2570   16.0580 O.co2 150  HEM150      0.0000
     38  O2D       23.6160    4.2840   15.5180 O.co2 150  HEM150      0.0000
     39  NA        20.9670    5.1140    8.5890 N.ar  150  HEM150      0.0000
     40  NB        18.7300    5.1020    6.9400 N.2   150  HEM150      0.0000
     41  NC        16.9880    4.7640    9.2930 N.ar  150  HEM150      0.0000
     42  ND        19.2450    4.7820   10.9500 N.2   150  HEM150      0.0000
     43 FE         19.0270    4.9330    8.9460 Fe    150  HEM150      0.0000
@<TRIPOS>BOND
     1    21    20    2
     2    19    16    1
     3    20    17    1
     4    16    17    2
     5    16    15    1
     6    17    18    1
     7    15     2    1
     8    15    40    2
     9     2     8    2
    10    18     3    2
    11    18    40    1
    12     9     7    1
    13     3    22    1
    14    40    43    1
    15     8     7   ar
    16     8    39   ar
    17     7     6   ar
    18    26    23    1
    19    22    23   ar
    20    22    41   ar
    21    39    43    1
    22    39     5   ar
    23    23    24   ar
    24    43    41    1
    25    43    42    1
    26     6     5   ar
    27     6    10    1
    28    41    25   ar
    29     5     1    2
    30    10    11    1
    31    11    12    1
    32    13    12   ar
    33    24    25   ar
    34    24    27    1
    35    25     4    1
    36    12    14   ar
    37    28    27    2
    38    42    32    2
    39    42    29    1
    40     1    32    1
    41    32    31    1
    42     4    29    2
    43    29    30    1
    44    31    30    2
    45    31    34    1
    46    30    33    1
    47    34    35    1
    48    35    36    1
    49    36    38   ar
    50    36    37   ar
