@<TRIPOS>MOLECULE
3qw0_ME9_A_1.pdb
 18 19 0 0 0
SMALL
GASTEIGER

@<TRIPOS>ATOM
      1  OAA        9.9360   -2.1810  -20.0080 O.2   501  ME9501     -0.2695
      2  OAB       11.5120   -6.2720  -20.1780 O.2   501  ME9501     -0.2695
      3  OAC        6.3000   -7.5850  -20.4960 O.2   501  ME9501     -0.2695
      4  OAD        5.0010   -4.5200  -23.4570 O.2   501  ME9501     -0.2695
      5  CAE       11.2750   -3.3130  -18.5320 C.2   501  ME9501      0.0630
      6  CAF       11.7490   -4.5860  -18.5660 C.2   501  ME9501      0.0630
      7  CAG        4.5660   -6.0830  -20.4890 C.2   501  ME9501      0.0630
      8  CAH        4.2040   -5.1350  -21.3730 C.2   501  ME9501      0.0630
      9  CAI        8.9810   -5.6400  -21.7990 C.3   501  ME9501      0.0238
     10  CAJ        8.1860   -5.6380  -23.1300 C.3   501  ME9501      0.0238
     11  CAK        9.8460   -4.3480  -21.7240 C.3   501  ME9501      0.1016
     12  CAL        7.0400   -6.6270  -23.1210 C.3   501  ME9501      0.1016
     13  CAM       10.5500   -3.1660  -19.6520 C.2   501  ME9501      0.2552
     14  CAN       11.3070   -5.1270  -19.7510 C.2   501  ME9501      0.2552
     15  CAO        5.6520   -6.6840  -21.0130 C.2   501  ME9501      0.2552
     16  CAP        5.0450   -5.2190  -22.4400 C.2   501  ME9501      0.2552
     17  NAQ       10.5730   -4.2450  -20.4120 N.am  501  ME9501     -0.2229
     18  NAR        5.9290   -6.1940  -22.2260 N.am  501  ME9501     -0.2229
@<TRIPOS>BOND
     1     4    16    2
     2    10    12    1
     3    10     9    1
     4    12    18    1
     5    16    18   am
     6    16     8    1
     7    18    15   am
     8     9    11    1
     9    11    17    1
    10     8     7    2
    11    15     3    2
    12    15     7    1
    13    17    14   am
    14    17    13   am
    15     2    14    2
    16     1    13    2
    17    14     6    1
    18    13     5    1
    19     6     5    2
