@<TRIPOS>MOLECULE
3qw1_HEM_A_1.pdb
 43 50 0 0 0
SMALL
GASTEIGER

@<TRIPOS>ATOM
      1  CHA      -18.2910   -7.7070   17.9950 C.2   150  HEM150      0.0000
      2  CHB      -13.9750   -5.5060   17.6370 C.2   150  HEM150      0.0000
      3  CHC      -16.0970   -1.1950   18.2370 C.2   150  HEM150      0.0000
      4  CHD      -20.3920   -3.3890   18.8500 C.2   150  HEM150      0.0000
      5  C1A      -16.9360   -7.4990   17.8340 C.ar  150  HEM150      0.0000
      6  C2A      -15.9440   -8.5470   17.5750 C.ar  150  HEM150      0.0000
      7  C3A      -14.7410   -7.9520   17.4750 C.ar  150  HEM150      0.0000
      8  C4A      -14.9400   -6.4960   17.6640 C.ar  150  HEM150      0.0000
      9  CMA      -13.4070   -8.7080   17.2050 C.3   150  HEM150      0.0000
     10  CAA      -16.2260  -10.0730   17.4300 C.3   150  HEM150      0.0000
     11  CBA      -16.6910  -10.3530   15.9970 C.3   150  HEM150      0.0000
     12  CGA      -16.1480  -11.6660   15.4880 C.2   150  HEM150      0.0000
     13  O1A      -14.8950  -11.7960   15.3060 O.co2 150  HEM150      0.0000
     14  O2A      -16.9900  -12.5760   15.2510 O.co2 150  HEM150      0.0000
     15  C1B      -14.1690   -4.1530   17.8220 C.2   150  HEM150      0.0000
     16  C2B      -13.1170   -3.1610   17.9290 C.2   150  HEM150      0.0000
     17  C3B      -13.7000   -1.9560   18.1050 C.2   150  HEM150      0.0000
     18  C4B      -15.1320   -2.1580   18.0910 C.2   150  HEM150      0.0000
     19  CMB      -11.6030   -3.4910   17.8660 C.3   150  HEM150      0.0000
     20  CAB      -12.9810   -0.5820   18.2610 C.2   150  HEM150      0.0000
     21  CBB      -12.3440   -0.1120   17.1710 C.2   150  HEM150      0.0000
     22  C1C      -17.4460   -1.4210   18.4330 C.ar  150  HEM150      0.0000
     23  C2C      -18.4480   -0.3820   18.5980 C.ar  150  HEM150      0.0000
     24  C3C      -19.6400   -0.9810   18.7530 C.ar  150  HEM150      0.0000
     25  C4C      -19.4150   -2.4250   18.7130 C.ar  150  HEM150      0.0000
     26  CMC      -18.1530    1.1320   18.5710 C.3   150  HEM150      0.0000
     27  CAC      -21.0310   -0.3170   18.9590 C.2   150  HEM150      0.0000
     28  CBC      -21.3620    0.9170   18.5370 C.2   150  HEM150      0.0000
     29  C1D      -20.2760   -4.7280   18.5670 C.2   150  HEM150      0.0000
     30  C2D      -21.3650   -5.6610   18.3080 C.2   150  HEM150      0.0000
     31  C3D      -20.7190   -7.0300   18.0350 C.2   150  HEM150      0.0000
     32  C4D      -19.2880   -6.7610   18.1560 C.2   150  HEM150      0.0000
     33  CMD      -22.8820   -5.3660   18.3020 C.3   150  HEM150      0.0000
     34  CAD      -21.4440   -8.3760   17.6950 C.3   150  HEM150      0.0000
     35  CBD      -21.2810   -8.7250   16.2000 C.3   150  HEM150      0.0000
     36  CGD      -22.0950   -9.9070   15.6620 C.2   150  HEM150      0.0000
     37  O1D      -23.1320   -9.6600   14.9780 O.co2 150  HEM150      0.0000
     38  O2D      -21.7140  -11.1030   15.8660 O.co2 150  HEM150      0.0000
     39  NA       -16.2960   -6.2570   17.8710 N.ar  150  HEM150      0.0000
     40  NB       -15.3830   -3.5020   17.9220 N.2   150  HEM150      0.0000
     41  NC       -18.0710   -2.6540   18.5090 N.ar  150  HEM150      0.0000
     42  ND       -19.0760   -5.4110   18.4630 N.2   150  HEM150      0.0000
     43 FE        -17.2080   -4.4120   18.1870 Fe    150  HEM150      0.0000
@<TRIPOS>BOND
     1    37    36   ar
     2    14    12   ar
     3    13    12   ar
     4    12    11    1
     5    36    38   ar
     6    36    35    1
     7    11    10    1
     8    35    34    1
     9    21    20    2
    10     9     7    1
    11    10     6    1
    12     7     6   ar
    13     7     8   ar
    14     6     5   ar
    15     2     8    2
    16     2    15    1
    17     8    39   ar
    18    34    31    1
    19    15    40    2
    20    15    16    1
    21     5    39   ar
    22     5     1    2
    23    19    16    1
    24    39    43    1
    25    40    18    1
    26    40    43    1
    27    16    17    2
    28     1    32    1
    29    31    32    1
    30    31    30    2
    31    18    17    1
    32    18     3    2
    33    17    20    1
    34    32    42    2
    35    43    42    1
    36    43    41    1
    37     3    22    1
    38    33    30    1
    39    30    29    1
    40    22    41   ar
    41    22    23   ar
    42    42    29    1
    43    41    25   ar
    44    28    27    2
    45    29     4    2
    46    26    23    1
    47    23    24   ar
    48    25    24   ar
    49    25     4    1
    50    24    27    1
