@<TRIPOS>MOLECULE
3qw2_NAD_A_1.pdb
 44 48 0 0 0
SMALL
GASTEIGER

@<TRIPOS>ATOM
      1  PA        11.0800   11.5920   48.1660 P.3   396  NAD396      0.2189
      2  O1A       11.6950   10.7560   49.2180 O.3   396  NAD396     -0.4371
      3  O2A       11.9760   12.6860   47.7490 O.2   396  NAD396     -0.5170
      4  O5B        9.6520   12.1790   48.6750 O.3   396  NAD396     -0.3112
      5  C5B        8.8090   11.5250   49.6090 C.3   396  NAD396      0.1813
      6  C4B        8.6810   12.4680   50.8040 C.3   396  NAD396      0.1821
      7  O4B        7.6350   12.0930   51.6840 O.3   396  NAD396     -0.3135
      8  C3B        9.9630   12.5190   51.6260 C.3   396  NAD396      0.2184
      9  O3B       10.3910   13.8660   51.6750 O.3   396  NAD396     -0.2174
     10  C2B        9.5950   11.9760   53.0020 C.3   396  NAD396      0.2570
     11  O2B       10.1130   12.7560   54.0640 O.3   396  NAD396     -0.2130
     12  C1B        8.0910   12.1310   53.0270 C.3   396  NAD396      0.3186
     13  N9A        7.4020   11.1080   53.8170 N.pl3 396  NAD396     -0.1439
     14  C8A        7.7270    9.7870   53.9830 C.3   396  NAD396      0.3377
     15  N7A        6.7820    9.2230   54.7730 N.2   396  NAD396     -0.2095
     16  C5A        5.8680   10.1580   55.1060 C.2   396  NAD396      0.2526
     17  C6A        4.7120   10.1320   55.8810 C.2   396  NAD396      0.4393
     18  N6A        4.2230    8.9710   56.2610 N.pl3 396  NAD396      0.2180
     19  N1A        3.9580   11.2850   56.0430 N.2   396  NAD396      0.0021
     20  C2A        4.3390   12.4720   55.4370 C.3   396  NAD396      0.5254
     21  N3A        5.4850   12.4970   54.6740 N.2   396  NAD396     -0.0055
     22  C4A        6.2390   11.3590   54.5090 C.2   396  NAD396      0.3518
     23  O3        10.5910   10.5960   46.9670 O.3   396  NAD396     -0.2703
     24  PN         9.9690   11.0460   45.5130 P.3   396  NAD396      0.2189
     25  O1N       10.9400   10.5700   44.4870 O.2   396  NAD396     -0.5170
     26  O2N        9.4990   12.4650   45.6040 O.3   396  NAD396     -0.4371
     27  O5D        8.6620   10.1440   45.2260 O.3   396  NAD396     -0.3112
     28  C5D        7.6290   10.0980   46.1810 C.3   396  NAD396      0.1813
     29  C4D        6.8300    8.8130   46.0360 C.3   396  NAD396      0.1799
     30  O4D        6.1200    8.7950   44.8040 O.3   396  NAD396     -0.3327
     31  C3D        7.6690    7.5310   46.0480 C.3   396  NAD396      0.2158
     32  O3D        8.0580    7.1130   47.3550 O.3   396  NAD396     -0.2175
     33  C2D        6.7850    6.5490   45.2740 C.3   396  NAD396      0.2309
     34  O2D        5.9630    5.8160   46.1440 O.3   396  NAD396     -0.2158
     35  C1D        5.8930    7.4430   44.4100 C.3   396  NAD396      0.2263
     36  N1N        6.1260    7.3670   42.9500 N.pl3 396  NAD396     -0.2787
     37  C2N        6.9010    8.3440   42.3350 C.3   396  NAD396      0.1244
     38  C3N        7.1250    8.3490   40.9440 C.2   396  NAD396      0.0544
     39  C7N        8.2800    9.1380   40.3180 C.2   396  NAD396      0.2818
     40  O7N        9.2960    9.7540   41.0710 O.2   396  NAD396     -0.2670
     41  N7N        8.3710    9.2690   39.0090 N.am  396  NAD396     -0.0839
     42  C4N        6.4940    7.3290   40.2100 C.2   396  NAD396      0.0033
     43  C5N        5.6970    6.3530   40.8400 C.2   396  NAD396      0.0157
     44  C6N        5.5170    6.3710   42.2230 C.2   396  NAD396      0.0633
@<TRIPOS>BOND
     1    41    39   am
     2    42    43    1
     3    42    38    2
     4    39    38    1
     5    39    40    2
     6    43    44    2
     7    38    37    1
     8    44    36    1
     9    37    36    1
    10    36    35    1
    11    35    30    1
    12    35    33    1
    13    25    24    2
    14    30    29    1
    15    27    24    1
    16    27    28    1
    17    33    31    1
    18    33    34    1
    19    24    26    1
    20    24    23    1
    21    29    31    1
    22    29    28    1
    23    31    32    1
    24    23     1    1
    25     3     1    2
    26     1     4    1
    27     1     2    1
    28     4     5    1
    29     5     6    1
    30     6     8    1
    31     6     7    1
    32     8     9    1
    33     8    10    1
    34     7    12    1
    35    10    12    1
    36    10    11    1
    37    12    13    1
    38    13    14    1
    39    13    22    1
    40    14    15    1
    41    22    21    2
    42    22    16    1
    43    21    20    1
    44    15    16    2
    45    16    17    1
    46    20    19    1
    47    17    19    2
    48    17    18    1
