@<TRIPOS>MOLECULE
3qw4_U5P_B_1.pdb
 21 22 0 0 0
SMALL
GASTEIGER

@<TRIPOS>ATOM
      1  N1        24.9470  -20.3870  -32.3210 N.am  7485  U5P7485    -0.1766
      2  C2        26.2620  -19.8650  -32.1570 C.1   7485  U5P7485     0.2845
      3  N3        27.2310  -20.6170  -31.5100 N.2   7485  U5P7485    -0.2452
      4  C4        26.9190  -21.8840  -31.0210 C.1   7485  U5P7485     0.2182
      5  C5        25.6340  -22.4010  -31.1740 C.2   7485  U5P7485     0.1242
      6  C6        24.6470  -21.6620  -31.8190 C.2   7485  U5P7485     0.0929
      7  O2        26.5910  -18.7590  -32.5680 O.2   7485  U5P7485    -0.1918
      8  O4        27.7850  -22.5470  -30.4580 O.2   7485  U5P7485    -0.2085
      9  C1'       23.8460  -19.6420  -33.0000 C.3   7485  U5P7485     0.2401
     10  C2'       23.2930  -18.5650  -32.0910 C.3   7485  U5P7485     0.2319
     11  O2'       22.4250  -19.1410  -31.1130 O.3   7485  U5P7485    -0.2157
     12  C3'       22.5130  -17.7370  -33.0990 C.3   7485  U5P7485     0.2158
     13  C4'       23.2000  -18.0040  -34.4350 C.3   7485  U5P7485     0.1801
     14  O3'       21.1630  -18.1890  -33.1730 O.3   7485  U5P7485    -0.2175
     15  O4'       24.2560  -18.8880  -34.1520 O.3   7485  U5P7485    -0.3320
     16  C5'       23.7880  -16.6440  -34.6900 C.3   7485  U5P7485     0.1859
     17  O5'       24.6640  -16.6180  -35.8040 O.3   7485  U5P7485    -0.2675
     18  P         25.3300  -15.2110  -36.1850 P.3   7485  U5P7485     0.5327
     19  O1P       24.5400  -14.0710  -35.6680 O.3   7485  U5P7485    -0.1145
     20  O2P       26.8640  -15.2300  -35.6360 O.3   7485  U5P7485    -0.1145
     21  O3P       25.4520  -15.1650  -37.7990 O.2   7485  U5P7485    -0.2224
@<TRIPOS>BOND
     1    21    18    2
     2    18    17    1
     3    18    19    1
     4    18    20    1
     5    17    16    1
     6    16    13    1
     7    13    15    1
     8    13    12    1
     9    15     9    1
    10    14    12    1
    11    12    10    1
    12     9     1    1
    13     9    10    1
    14     7     2    2
    15     1     2   am
    16     1     6    1
    17     2     3    2
    18    10    11    1
    19     6     5    2
    20     3     4    2
    21     5     4    1
    22     4     8    2
