@<TRIPOS>MOLECULE
3qw5_III_B_1.pdb
 38 38 0 0 0
SMALL
GASTEIGER

@<TRIPOS>ATOM
      1  N         27.6380   27.5060   52.9170 N.3   196  ARG196     -0.1231
      2  CA        27.5490   26.0210   52.9390 C.3   196  ARG196      0.1694
      3  C         26.5170   25.5690   53.9700 C.2   196  ARG196      0.2592
      4  O         26.3290   26.2110   55.0020 O.2   196  ARG196     -0.2718
      5  CB        28.9140   25.4070   53.2840 C.3   196  ARG196      0.0321
      6  CG        30.0330   25.7970   52.3260 C.3   196  ARG196      0.0489
      7  CD        31.2680   24.9320   52.5370 C.3   196  ARG196      0.2205
      8  NE        32.3250   25.2120   51.5640 N.pl3 196  ARG196     -0.0865
      9  CZ        33.1760   26.2320   51.6460 C.cat 196  ARG196      0.5346
     10  NH1       33.1040   27.0800   52.6620 N.pl3 196  ARG196      0.1354
     11  NH2       34.1040   26.4020   50.7100 N.pl3 196  ARG196      0.1354
     12  N         25.8530   24.4590   53.6690 N.am  197  ARG197     -0.1966
     13  CA        24.8320   23.8850   54.5350 C.3   197  ARG197      0.1729
     14  C         25.3960   23.2960   55.8210 C.2   197  ARG197      0.2617
     15  O         24.7730   23.3950   56.8750 O.2   197  ARG197     -0.2715
     16  CB        24.0750   22.7970   53.7740 C.3   197  ARG197      0.0348
     17  CG        23.0340   23.2860   52.7890 C.3   197  ARG197      0.0492
     18  CD        21.7110   23.4860   53.4980 C.3   197  ARG197      0.2205
     19  NE        21.4170   22.3480   54.3680 N.pl3 197  ARG197     -0.0865
     20  CZ        20.2500   22.1310   54.9640 C.cat 197  ARG197      0.5346
     21  NH1       19.2440   22.9740   54.7870 N.pl3 197  ARG197      0.1354
     22  NH2       20.0910   21.0670   55.7400 N.pl3 197  ARG197      0.1354
     23  N         26.5690   22.6800   55.7200 N.am  198  GLY198     -0.1940
     24  CA        27.1840   22.0790   56.8910 C.3   198  GLY198      0.2014
     25  C         26.6120   20.7000   57.2150 C.2   198  GLY198      0.2639
     26  O         25.9370   20.0980   56.3480 O.2   198  GLY198     -0.2714
     27  N         26.8590   20.2010   58.4350 N.am  199  PHE199     -0.1959
     28  CA        26.3640   18.8770   58.8290 C.3   199  PHE199      0.1787
     29  C         24.8540   18.8270   59.0820 C.2   199  PHE199      0.2809
     30  O         24.2610   17.7440   58.8590 O.2   199  PHE199     -0.2698
     31  CB        27.0990   18.3740   60.0640 C.3   199  PHE199      0.0575
     32  CG        28.5820   18.2000   59.8580 C.ar  199  PHE199     -0.0200
     33  CD1       29.4670   19.2160   60.1960 C.ar  199  PHE199     -0.0042
     34  CD2       29.0880   17.0380   59.2880 C.ar  199  PHE199     -0.0042
     35  CE1       30.8400   19.0790   59.9670 C.ar  199  PHE199     -0.0003
     36  CE2       30.4510   16.8880   59.0530 C.ar  199  PHE199     -0.0003
     37  CZ        31.3320   17.9130   59.3940 C.ar  199  PHE199     -0.0000
     38  N         24.1870   19.9460   59.5490 N.am  200  NH2200     -0.0863
@<TRIPOS>BOND
     1    11     9    1
     2     8     9    2
     3     8     7    1
     4     9    10    1
     5     6     7    1
     6     6     5    1
     7    17    18    1
     8    17    16    1
     9     1     2    1
    10     2     5    1
    11     2     3    1
    12    18    19    1
    13    12     3   am
    14    12    13    1
    15    16    13    1
    16     3     4    2
    17    19    20    2
    18    13    14    1
    19    21    20    1
    20    20    22    1
    21    23    14   am
    22    23    24    1
    23    14    15    2
    24    26    25    2
    25    24    25    1
    26    25    27   am
    27    27    28    1
    28    28    29    1
    29    28    31    1
    30    30    29    2
    31    36    34   ar
    32    36    37   ar
    33    29    38   am
    34    34    32   ar
    35    37    35   ar
    36    32    31    1
    37    32    33   ar
    38    35    33   ar
