@<TRIPOS>MOLECULE
3qw6_III_B_1.pdb
 34 34 0 0 0
SMALL
GASTEIGER

@<TRIPOS>ATOM
      1  N         27.5400   27.5300   53.0280 N.3   196  ARG196     -0.1231
      2  CA        27.3840   26.0480   53.0320 C.3   196  ARG196      0.1694
      3  C         26.3670   25.6230   54.0870 C.2   196  ARG196      0.2592
      4  O         26.3380   26.1680   55.1890 O.2   196  ARG196     -0.2718
      5  CB        28.7250   25.3730   53.3220 C.3   196  ARG196      0.0321
      6  CG        29.8350   25.7180   52.3420 C.3   196  ARG196      0.0489
      7  CD        31.0490   24.8350   52.5940 C.3   196  ARG196      0.2205
      8  NE        32.1660   25.1390   51.7020 N.pl3 196  ARG196     -0.0865
      9  CZ        32.9300   26.2230   51.7990 C.cat 196  ARG196      0.5346
     10  NH1       32.7010   27.1150   52.7540 N.pl3 196  ARG196      0.1354
     11  NH2       33.9280   26.4140   50.9440 N.pl3 196  ARG196      0.1354
     12  N         25.5300   24.6520   53.7370 N.am  197  TYR197     -0.1962
     13  CA        24.4960   24.1420   54.6360 C.3   197  TYR197      0.1771
     14  C         25.1050   23.4880   55.8780 C.2   197  TYR197      0.2620
     15  O         24.5560   23.5880   56.9780 O.2   197  TYR197     -0.2715
     16  CB        23.6250   23.1190   53.8990 C.3   197  TYR197      0.0574
     17  CG        22.3180   22.8110   54.5960 C.ar  197  TYR197     -0.0198
     18  CD1       21.2630   23.7200   54.5650 C.ar  197  TYR197     -0.0009
     19  CD2       22.1390   21.6190   55.3000 C.ar  197  TYR197     -0.0009
     20  CE1       20.0550   23.4560   55.2170 C.ar  197  TYR197      0.0417
     21  CE2       20.9300   21.3410   55.9610 C.ar  197  TYR197      0.0417
     22  CZ        19.8950   22.2690   55.9120 C.ar  197  TYR197      0.1957
     23  OH        18.7040   22.0210   56.5580 O.3   197  TYR197     -0.2866
     24  N         26.2360   22.8120   55.6970 N.am  198  GLY198     -0.1940
     25  CA        26.8900   22.1700   56.8240 C.3   198  GLY198      0.2014
     26  C         26.3920   20.7740   57.1510 C.2   198  GLY198      0.2639
     27  O         25.5630   20.2100   56.4320 O.2   198  GLY198     -0.2714
     28  N         26.9020   20.2300   58.2550 N.am  199  CYS199     -0.1953
     29  CA        26.5620   18.8880   58.7280 C.3   199  CYS199      0.1860
     30  C         25.2020   18.8030   59.4110 C.2   199  CYS199      0.2815
     31  O         24.6420   17.6850   59.4460 O.2   199  CYS199     -0.2698
     32  CB        27.6390   18.3860   59.6970 C.3   199  CYS199      0.0997
     33  SG        29.3090   18.3910   59.0130 S.3   199  CYS199     -0.0797
     34  N         24.7140   19.9200   59.9720 N.am  200  NH2200     -0.0863
@<TRIPOS>BOND
     1    11     9    1
     2     8     9    2
     3     8     7    1
     4     9    10    1
     5     6     7    1
     6     6     5    1
     7     1     2    1
     8     2     5    1
     9     2     3    1
    10    12     3   am
    11    12    13    1
    12    16    17    1
    13    16    13    1
    14     3     4    2
    15    18    17   ar
    16    18    20   ar
    17    17    19   ar
    18    13    14    1
    19    20    22   ar
    20    19    21   ar
    21    24    14   am
    22    24    25    1
    23    14    15    2
    24    22    21   ar
    25    22    23    1
    26    27    26    2
    27    25    26    1
    28    26    28   am
    29    28    29    1
    30    29    30    1
    31    29    32    1
    32    33    32    1
    33    30    31    2
    34    30    34   am
