@<TRIPOS>MOLECULE
3qw7_III_B_1.pdb
 40 40 0 0 0
SMALL
GASTEIGER

@<TRIPOS>ATOM
      1  N         27.0900   27.7610   53.0240 N.3   196  ARG196     -0.1231
      2  CA        27.2360   26.2780   53.0750 C.3   196  ARG196      0.1694
      3  C         26.5420   25.7710   54.3220 C.2   196  ARG196      0.2592
      4  O         26.3240   26.5300   55.2690 O.2   196  ARG196     -0.2718
      5  CB        28.7040   25.8620   53.1980 C.3   196  ARG196      0.0321
      6  CG        29.6660   26.3660   52.1550 C.3   196  ARG196      0.0489
      7  CD        30.9650   25.5690   52.2780 C.3   196  ARG196      0.2205
      8  NE        32.0310   26.0670   51.4170 N.pl3 196  ARG196     -0.0865
      9  CZ        32.7520   27.1530   51.6680 C.cat 196  ARG196      0.5346
     10  NH1       32.5270   27.8670   52.7640 N.pl3 196  ARG196      0.1354
     11  NH2       33.7050   27.5250   50.8240 N.pl3 196  ARG196      0.1354
     12  N         26.1890   24.4910   54.3250 N.am  197  ARG197     -0.1966
     13  CA        25.5920   23.9100   55.5160 C.3   197  ARG197      0.1729
     14  C         26.6830   22.9830   56.0530 C.2   197  ARG197      0.2616
     15  O         27.6390   22.6750   55.3420 O.2   197  ARG197     -0.2715
     16  CB        24.2840   23.1640   55.1890 C.3   197  ARG197      0.0348
     17  CG        24.3950   21.9530   54.2970 C.3   197  ARG197      0.0492
     18  CD        23.0250   21.5940   53.6910 C.3   197  ARG197      0.2205
     19  NE        21.9400   21.4630   54.6720 N.pl3 197  ARG197     -0.0865
     20  CZ        20.9670   22.3560   54.8550 C.cat 197  ARG197      0.5346
     21  NH1       20.9240   23.4680   54.1300 N.pl3 197  ARG197      0.1354
     22  NH2       20.0200   22.1310   55.7560 N.pl3 197  ARG197      0.1354
     23  N         26.5670   22.5620   57.3040 N.am  198  PHE198     -0.1960
     24  CA        27.5840   21.7120   57.9030 C.3   198  PHE198      0.1771
     25  C         27.1110   20.2710   58.0250 C.2   198  PHE198      0.2620
     26  O         27.5070   19.4090   57.2360 O.2   198  PHE198     -0.2715
     27  CB        27.9630   22.2910   59.2710 C.3   198  PHE198      0.0574
     28  CG        29.1650   21.6550   59.8990 C.ar  198  PHE198     -0.0200
     29  CD1       30.3870   21.6200   59.2330 C.ar  198  PHE198     -0.0042
     30  CD2       29.0780   21.1040   61.1700 C.ar  198  PHE198     -0.0042
     31  CE1       31.5100   21.0510   59.8340 C.ar  198  PHE198     -0.0003
     32  CE2       30.1920   20.5340   61.7820 C.ar  198  PHE198     -0.0003
     33  CZ        31.4100   20.5040   61.1100 C.ar  198  PHE198     -0.0000
     34  N         26.2640   20.0070   59.0140 N.am  199  CYS199     -0.1953
     35  CA        25.7450   18.6580   59.2090 C.3   199  CYS199      0.1860
     36  C         24.3760   18.5330   58.5520 C.2   199  CYS199      0.2815
     37  O         23.4990   17.8480   59.1250 O.2   199  CYS199     -0.2698
     38  CB        25.6240   18.3250   60.7000 C.3   199  CYS199      0.0997
     39  SG        27.1990   18.3600   61.5950 S.3   199  CYS199     -0.0797
     40  N         24.2830   19.0830   57.2860 N.am  200  NH2200     -0.0863
@<TRIPOS>BOND
     1    11     9    1
     2     8     9    2
     3     8     7    1
     4     9    10    1
     5     6     7    1
     6     6     5    1
     7     1     2    1
     8     2     5    1
     9     2     3    1
    10    18    17    1
    11    18    19    1
    12    21    20    1
    13    17    16    1
    14     3    12   am
    15     3     4    2
    16    12    13    1
    17    19    20    2
    18    20    22    1
    19    16    13    1
    20    15    14    2
    21    13    14    1
    22    14    23   am
    23    26    25    2
    24    40    36   am
    25    23    24    1
    26    24    25    1
    27    24    27    1
    28    25    34   am
    29    36    37    2
    30    36    35    1
    31    34    35    1
    32    35    38    1
    33    29    31   ar
    34    29    28   ar
    35    27    28    1
    36    31    33   ar
    37    28    30   ar
    38    38    39    1
    39    33    32   ar
    40    30    32   ar
