@<TRIPOS>MOLECULE
3qw8_III_B_1.pdb
 28 27 0 0 0
SMALL
GASTEIGER

@<TRIPOS>ATOM
      1  N         27.5540   27.6480   53.0070 N.3   196  CYS196     -0.1221
      2  CA        27.5650   26.1600   53.1160 C.3   196  CYS196      0.1808
      3  C         26.5280   25.7090   54.1300 C.2   196  CYS196      0.2601
      4  O         26.3660   26.3350   55.1770 O.2   196  CYS196     -0.2717
      5  CB        28.9410   25.6650   53.5570 C.3   196  CYS196      0.0970
      6  SG        30.2080   25.7940   52.2910 S.3   196  CYS196     -0.0800
      7  N         25.8440   24.6130   53.8130 N.am  197  ARG197     -0.1965
      8  CA        24.7990   24.0540   54.6690 C.3   197  ARG197      0.1729
      9  C         25.3140   23.4530   55.9740 C.2   197  ARG197      0.2617
     10  O         24.6450   23.5280   57.0070 O.2   197  ARG197     -0.2715
     11  CB        24.0240   22.9850   53.8950 C.3   197  ARG197      0.0348
     12  CG        22.8980   23.5200   53.0280 C.3   197  ARG197      0.0492
     13  CD        21.6540   23.7800   53.8680 C.3   197  ARG197      0.2205
     14  NE        21.3340   22.6250   54.7040 N.pl3 197  ARG197     -0.0865
     15  CZ        20.2310   22.5010   55.4400 C.cat 197  ARG197      0.5346
     16  NH1       19.3140   23.4570   55.4600 N.pl3 197  ARG197      0.1354
     17  NH2       20.0470   21.4130   56.1730 N.pl3 197  ARG197      0.1354
     18  N         26.4990   22.8550   55.9280 N.am  198  GLY198     -0.1940
     19  CA        27.0570   22.2410   57.1210 C.3   198  GLY198      0.2014
     20  C         26.5250   20.8360   57.3400 C.2   198  GLY198      0.2639
     21  O         25.8950   20.2650   56.4500 O.2   198  GLY198     -0.2714
     22  N         26.7780   20.2840   58.5260 N.am  199  CYS199     -0.1953
     23  CA        26.3330   18.9340   58.8840 C.3   199  CYS199      0.1860
     24  C         24.8310   18.8810   59.1470 C.2   199  CYS199      0.2815
     25  O         24.2370   17.7940   58.9640 O.2   199  CYS199     -0.2698
     26  CB        27.0760   18.4310   60.1320 C.3   199  CYS199      0.0997
     27  SG        28.8510   18.1220   59.9180 S.3   199  CYS199     -0.0797
     28  N         24.1790   19.9700   59.6060 N.am  200  NH2200     -0.0863
@<TRIPOS>BOND
     1     6     5    1
     2     1     2    1
     3    12    13    1
     4    12    11    1
     5     2     5    1
     6     2     3    1
     7     7     3   am
     8     7     8    1
     9    13    14    1
    10    11     8    1
    11     3     4    2
    12     8     9    1
    13    14    15    2
    14    15    16    1
    15    15    17    1
    16    18     9   am
    17    18    19    1
    18     9    10    2
    19    21    20    2
    20    19    20    1
    21    20    22   am
    22    22    23    1
    23    23    24    1
    24    23    26    1
    25    25    24    2
    26    24    28   am
    27    27    26    1
