@<TRIPOS>MOLECULE
3qw9_MAN_A_1.pdb
 11 11 0 0 0
SMALL
GASTEIGER

@<TRIPOS>ATOM
      1  C1        20.5070   20.0310   -2.2860 C.3   206  MAN206      0.1777
      2  C2        21.7210   20.6130   -1.5860 C.3   206  MAN206      0.2141
      3  C3        21.3550   21.1960   -0.1940 C.3   206  MAN206      0.2173
      4  C4        20.2740   22.3100   -0.2900 C.3   206  MAN206      0.2142
      5  C5        19.1740   21.7630   -1.2990 C.3   206  MAN206      0.1810
      6  C6        18.0410   22.6610   -1.8290 C.3   206  MAN206      0.2141
      7  O2        22.1190   21.6330   -2.4620 O.3   206  MAN206     -0.2176
      8  O3        22.5060   21.6120    0.5400 O.3   206  MAN206     -0.2175
      9  O4        19.9570   22.8980    1.0410 O.3   206  MAN206     -0.2176
     10  O5        19.7190   21.1920   -2.5050 O.3   206  MAN206     -0.3481
     11  O6        18.1540   24.0330   -1.5140 O.3   206  MAN206     -0.2176
@<TRIPOS>BOND
     1    10     1    1
     2    10     5    1
     3     7     2    1
     4     1     2    1
     5     6    11    1
     6     6     5    1
     7     2     3    1
     8     5     4    1
     9     4     3    1
    10     4     9    1
    11     3     8    1
