@<TRIPOS>MOLECULE
3qw9_FUC_A_1.pdb
 10 10 0 0 0
SMALL
GASTEIGER

@<TRIPOS>ATOM
      1  C1       -16.9270   38.3700   26.8840 C.3   202  FUC202      0.1776
      2  C2       -16.6400   38.5460   28.3940 C.3   202  FUC202      0.2141
      3  C3       -15.1930   38.8420   28.7300 C.3   202  FUC202      0.2172
      4  C4       -14.6160   39.8720   27.7760 C.3   202  FUC202      0.2116
      5  C5       -14.8810   39.5390   26.3040 C.3   202  FUC202      0.1483
      6  C6       -14.4390   40.7460   25.4680 C.3   202  FUC202      0.0349
      7  O2       -17.0040   37.4000   29.1580 O.3   202  FUC202     -0.2176
      8  O3       -15.1830   39.3630   30.0330 O.3   202  FUC202     -0.2175
      9  O4       -15.1800   41.1120   28.0820 O.3   202  FUC202     -0.2177
     10  O5       -16.2630   39.3030   26.0640 O.3   202  FUC202     -0.3508
@<TRIPOS>BOND
     1     6     5    1
     2    10     5    1
     3    10     1    1
     4     5     4    1
     5     1     2    1
     6     4     9    1
     7     4     3    1
     8     2     3    1
     9     2     7    1
    10     3     8    1
