@<TRIPOS>MOLECULE
3qwb_NDP_A_1.pdb
 48 52 0 0 0
SMALL
GASTEIGER

@<TRIPOS>ATOM
      1  PA        25.7470   -4.0020   64.7730 P.3   335  NDP335      0.2189
      2  O1A       26.2780   -2.8360   64.0380 O.3   335  NDP335     -0.4371
      3  O2A       24.9640   -4.9490   63.9510 O.2   335  NDP335     -0.5170
      4  O5B       26.9490   -4.7850   65.5040 O.3   335  NDP335     -0.3112
      5  C5B       28.0130   -4.0770   66.1100 C.3   335  NDP335      0.1813
      6  C4B       29.1450   -3.8350   65.1200 C.3   335  NDP335      0.1820
      7  O4B       30.0600   -2.9140   65.6920 O.3   335  NDP335     -0.3136
      8  C3B       29.9850   -5.0650   64.7990 C.3   335  NDP335      0.2157
      9  O3B       29.4420   -5.8550   63.7520 O.3   335  NDP335     -0.2175
     10  C2B       31.3150   -4.4410   64.4090 C.3   335  NDP335      0.2314
     11  O2B       31.4240   -4.2790   63.0080 O.3   335  NDP335     -0.2630
     12  C1B       31.3280   -3.0730   65.0930 C.3   335  NDP335      0.3158
     13  N9A       32.4120   -3.0200   66.0920 N.pl3 335  NDP335     -0.1439
     14  C8A       33.4770   -2.1510   66.0850 C.3   335  NDP335      0.3377
     15  N7A       34.2760   -2.4320   67.1390 N.2   335  NDP335     -0.2095
     16  C5A       33.7360   -3.4600   67.8240 C.2   335  NDP335      0.2526
     17  C6A       34.1390   -4.1430   68.9680 C.2   335  NDP335      0.4393
     18  N6A       35.3390   -3.9150   69.5030 N.pl3 335  NDP335      0.2180
     19  N1A       33.3650   -5.1850   69.4360 N.2   335  NDP335      0.0021
     20  C2A       32.2120   -5.5490   68.7710 C.3   335  NDP335      0.5254
     21  N3A       31.8130   -4.8700   67.6380 N.2   335  NDP335     -0.0055
     22  C4A       32.5660   -3.8440   67.1700 C.2   335  NDP335      0.3518
     23  O3        24.8750   -3.5440   66.0590 O.3   335  NDP335     -0.2703
     24  PN        23.5540   -2.6210   66.0320 P.3   335  NDP335      0.2189
     25  O1N       23.1510   -2.3600   64.6270 O.2   335  NDP335     -0.5170
     26  O2N       22.5950   -3.2100   66.9890 O.3   335  NDP335     -0.4371
     27  O5D       24.0830   -1.2650   66.7020 O.3   335  NDP335     -0.3112
     28  C5D       25.1330   -0.5500   66.0880 C.3   335  NDP335      0.1813
     29  C4D       25.7390    0.4270   67.0840 C.3   335  NDP335      0.1799
     30  O4D       24.8390    1.5010   67.2960 O.3   335  NDP335     -0.3327
     31  C3D       26.0240   -0.2000   68.4440 C.3   335  NDP335      0.2158
     32  O3D       27.2080    0.3800   68.9550 O.3   335  NDP335     -0.2175
     33  C2D       24.8230    0.2330   69.2600 C.3   335  NDP335      0.2309
     34  O2D       25.0610    0.2630   70.6540 O.3   335  NDP335     -0.2158
     35  C1D       24.5060    1.6020   68.6630 C.3   335  NDP335      0.2263
     36  N1N       23.0920    2.0000   68.7740 N.pl3 335  NDP335     -0.2787
     37  C2N       22.8300    3.1820   69.3970 C.3   335  NDP335      0.1244
     38  C3N       21.5500    3.7110   69.4520 C.2   335  NDP335      0.0544
     39  C7N       21.3130    5.0060   70.1540 C.2   335  NDP335      0.2818
     40  O7N       20.0730    5.3710   70.3970 O.2   335  NDP335     -0.2670
     41  N7N       22.3980    5.8170   70.5230 N.am  335  NDP335     -0.0839
     42  C4N       20.3820    3.0120   68.8130 C.2   335  NDP335      0.0033
     43  C5N       20.7920    1.7360   68.1350 C.2   335  NDP335      0.0157
     44  C6N       22.1120    1.2920   68.1350 C.2   335  NDP335      0.0633
     45  P2B       32.8860   -4.2980   62.3250 P.3   335  NDP335      0.5328
     46  O1X       33.5460   -5.5870   62.7610 O.3   335  NDP335     -0.1145
     47  O2X       33.6600   -3.1230   62.8440 O.3   335  NDP335     -0.1145
     48  O3X       32.6890   -4.2620   60.8360 O.2   335  NDP335     -0.2224
@<TRIPOS>BOND
     1    48    45    2
     2    45    46    1
     3    45    47    1
     4    45    11    1
     5    11    10    1
     6     9     8    1
     7     3     1    2
     8     2     1    1
     9    10     8    1
    10    10    12    1
    11    25    24    2
    12     1     4    1
    13     1    23    1
    14     8     6    1
    15    12     7    1
    16    12    13    1
    17     6     7    1
    18     6     5    1
    19     4     5    1
    20    24    23    1
    21    24    27    1
    22    24    26    1
    23    14    13    1
    24    14    15    1
    25    28    27    1
    26    28    29    1
    27    13    22    1
    28    29    30    1
    29    29    31    1
    30    15    16    2
    31    22    21    2
    32    22    16    1
    33    30    35    1
    34    21    20    1
    35    16    17    1
    36    44    43    2
    37    44    36    1
    38    43    42    1
    39    31    32    1
    40    31    33    1
    41    35    36    1
    42    35    33    1
    43    20    19    1
    44    36    37    1
    45    42    38    2
    46    17    19    2
    47    17    18    1
    48    33    34    1
    49    37    38    1
    50    38    39    1
    51    39    40    2
    52    39    41   am
