@<TRIPOS>MOLECULE
3qwc_98P_H_1.pdb
 28 30 0 0 0
SMALL
GASTEIGER

@<TRIPOS>ATOM
      1  N22       16.3970  -15.3470   23.1690 N.3   2001  98P2001    -0.1228
      2  C3        17.6100  -14.5520   23.2980 C.3   2001  98P2001     0.1721
      3  C4        17.3580  -13.1950   22.6970 C.2   2001  98P2001     0.2437
      4  O26       16.3610  -12.5520   23.0190 O.2   2001  98P2001    -0.2733
      5  C2        18.0050  -14.4560   24.7780 C.3   2001  98P2001     0.0547
      6  C1        19.4320  -13.9630   24.9000 C.ar  2001  98P2001    -0.0202
      7  C5        20.4820  -14.7060   24.3680 C.ar  2001  98P2001    -0.0042
      8  C9        19.6990  -12.7720   25.5610 C.ar  2001  98P2001    -0.0042
      9  C6        21.7910  -14.2420   24.4870 C.ar  2001  98P2001    -0.0003
     10  C8        21.0030  -12.3100   25.6770 C.ar  2001  98P2001    -0.0003
     11  C7        22.0540  -13.0480   25.1400 C.ar  2001  98P2001    -0.0000
     12  N23       18.2460  -12.7420   21.8050 N.am  2001  98P2001    -0.2718
     13  C10       18.0340  -11.4370   21.1770 C.3   2001  98P2001     0.1535
     14  C11       16.7110  -11.4310   20.4770 C.2   2001  98P2001     0.2598
     15  O27       16.3900  -12.3850   19.7730 O.2   2001  98P2001    -0.2715
     16  C14       19.1650  -11.2950   20.1670 C.3   2001  98P2001     0.0310
     17  C15       20.2070  -12.3360   20.5570 C.3   2001  98P2001     0.0237
     18  C16       19.4590  -13.4130   21.3270 C.3   2001  98P2001     0.0939
     19  C12       14.5970  -10.2330   20.0690 C.3   2001  98P2001     0.1398
     20  C13       13.6110  -11.0090   20.9210 C.2   2001  98P2001     0.0076
     21  C17       13.4330  -12.3730   20.7490 C.3   2001  98P2001     0.1160
     22  C18       12.3950  -14.4910   21.3050 C.3   2001  98P2001     0.1125
     23  C19       11.8350  -12.4310   22.4530 C.2   2001  98P2001     0.0625
     24  C20       11.9720  -11.0690   22.6730 C.2   2001  98P2001     0.0266
     25  C21       12.8680  -10.3690   21.8820 C.2   2001  98P2001     0.0543
     26  N24       15.9190  -10.3750   20.6700 N.am  2001  98P2001    -0.1994
     27  N25       12.5620  -13.0480   21.5090 N.pl3 2001  98P2001    -0.3010
     28 CL28       13.0960   -8.6210   22.1220 Cl    2001  98P2001    -0.0827
@<TRIPOS>BOND
     1    15    14    2
     2    19    26    1
     3    19    20    1
     4    16    17    1
     5    16    13    1
     6    14    26   am
     7    14    13    1
     8    17    18    1
     9    21    20    1
    10    21    27    1
    11    20    25    2
    12    13    12    1
    13    22    27    1
    14    18    12    1
    15    27    23    1
    16    12     3   am
    17    25    28    1
    18    25    24    1
    19    23    24    2
    20     3     4    2
    21     3     2    1
    22     1     2    1
    23     2     5    1
    24     7     9   ar
    25     7     6   ar
    26     9    11   ar
    27     5     6    1
    28     6     8   ar
    29    11    10   ar
    30     8    10   ar
