@<TRIPOS>MOLECULE
3qwf_NAP_A_1.pdb
 48 52 0 0 0
SMALL
GASTEIGER

@<TRIPOS>ATOM
      1  PA       -29.8960   20.7280   -8.5050 P.3   303  NAP303      0.2189
      2  O1A      -30.7790   20.7440   -9.6950 O.2   303  NAP303     -0.5170
      3  O2A      -30.4110   20.2580   -7.2130 O.3   303  NAP303     -0.4371
      4  O5B      -29.2540   22.1930   -8.3510 O.3   303  NAP303     -0.3112
      5  C5B      -28.7500   22.8470   -9.5250 C.3   303  NAP303      0.1813
      6  C4B      -27.8280   24.0310   -9.1260 C.3   303  NAP303      0.1820
      7  O4B      -27.3340   24.6140  -10.3690 O.3   303  NAP303     -0.3136
      8  C3B      -28.6580   25.0960   -8.4120 C.3   303  NAP303      0.2157
      9  O3B      -27.8860   25.6740   -7.3360 O.3   303  NAP303     -0.2175
     10  C2B      -28.9290   26.1060   -9.5120 C.3   303  NAP303      0.2314
     11  O2B      -29.0120   27.4170   -8.9740 O.3   303  NAP303     -0.2630
     12  C1B      -27.6440   26.0110  -10.3370 C.3   303  NAP303      0.3158
     13  N9A      -27.9570   26.5620  -11.6700 N.pl3 303  NAP303     -0.1439
     14  C8A      -28.8960   26.1390  -12.5190 C.3   303  NAP303      0.3377
     15  N7A      -28.8650   26.9140  -13.6030 N.2   303  NAP303     -0.2095
     16  C5A      -27.9130   27.8410  -13.4490 C.2   303  NAP303      0.2526
     17  C6A      -27.4190   28.9020  -14.2230 C.2   303  NAP303      0.4393
     18  N6A      -27.9240   29.2090  -15.4230 N.pl3 303  NAP303      0.2180
     19  N1A      -26.4150   29.6470  -13.7320 N.2   303  NAP303      0.0021
     20  C2A      -25.8920   29.3870  -12.5380 C.3   303  NAP303      0.5254
     21  N3A      -26.3320   28.3920  -11.7810 N.2   303  NAP303     -0.0055
     22  C4A      -27.3380   27.6100  -12.2090 C.2   303  NAP303      0.3518
     23  O3       -28.5590   19.8970   -8.9730 O.3   303  NAP303     -0.2703
     24  PN       -27.4780   19.1270   -8.0400 P.3   303  NAP303      0.2189
     25  O1N      -27.0230   19.9450   -6.8890 O.3   303  NAP303     -0.4371
     26  O2N      -27.9710   17.7720   -7.7880 O.2   303  NAP303     -0.5170
     27  O5D      -26.3170   19.0240   -9.1200 O.3   303  NAP303     -0.3112
     28  C5D      -25.1240   19.7860   -9.0530 C.3   303  NAP303      0.1813
     29  C4D      -24.1290   19.2810  -10.1230 C.3   303  NAP303      0.1799
     30  O4D      -23.8800   17.8600   -9.9300 O.3   303  NAP303     -0.3327
     31  C3D      -24.6520   19.4500  -11.5710 C.3   303  NAP303      0.2158
     32  O3D      -23.5380   19.8150  -12.3950 O.3   303  NAP303     -0.2175
     33  C2D      -25.1350   18.0580  -11.9310 C.3   303  NAP303      0.2309
     34  O2D      -25.1140   17.8270  -13.3530 O.3   303  NAP303     -0.2158
     35  C1D      -24.1030   17.1900  -11.2000 C.3   303  NAP303      0.2263
     36  N1N      -24.6170   15.8290  -10.8850 N.pl3 303  NAP303     -0.2787
     37  C2N      -25.7070   15.6250  -10.0060 C.3   303  NAP303      0.1244
     38  C3N      -26.1380   14.3230   -9.7330 C.2   303  NAP303      0.0544
     39  C7N      -27.3000   14.0310   -8.7910 C.2   303  NAP303      0.2818
     40  O7N      -27.7990   12.7830   -8.6520 O.2   303  NAP303     -0.2670
     41  N7N      -27.7910   15.0370   -8.0720 N.am  303  NAP303     -0.0839
     42  C4N      -25.5030   13.2390  -10.3330 C.2   303  NAP303      0.0033
     43  C5N      -24.4230   13.4360  -11.1900 C.2   303  NAP303      0.0157
     44  C6N      -23.9770   14.7260  -11.4620 C.2   303  NAP303      0.0633
     45  P2B      -30.3290   28.3630   -9.0540 P.3   303  NAP303      0.5328
     46  O1X      -30.0480   29.6950   -8.4780 O.3   303  NAP303     -0.1145
     47  O2X      -31.4820   27.5680   -8.2480 O.3   303  NAP303     -0.1145
     48  O3X      -30.8240   28.4400  -10.5630 O.2   303  NAP303     -0.2224
@<TRIPOS>BOND
     1    18    17    1
     2    17    19    2
     3    17    16    1
     4    19    20    1
     5    15    16    2
     6    15    14    1
     7    16    22    1
     8    34    33    1
     9    20    21    1
    10    14    13    1
    11    32    31    1
    12    22    21    2
    13    22    13    1
    14    33    31    1
    15    33    35    1
    16    13    12    1
    17    31    29    1
    18    44    43    2
    19    44    36    1
    20    35    36    1
    21    35    30    1
    22    43    42    1
    23    36    37    1
    24    48    45    2
    25     7    12    1
    26     7     6    1
    27    12    10    1
    28    42    38    2
    29    29    30    1
    30    29    28    1
    31    37    38    1
    32    38    39    1
    33     2     1    2
    34     5     6    1
    35     5     4    1
    36    10    11    1
    37    10     8    1
    38     6     8    1
    39    27    28    1
    40    27    24    1
    41    45    11    1
    42    45    46    1
    43    45    47    1
    44    23     1    1
    45    23    24    1
    46    39    40    2
    47    39    41   am
    48     1     4    1
    49     1     3    1
    50     8     9    1
    51    24    26    2
    52    24    25    1
