@<TRIPOS>MOLECULE
3qwh_NAP_A_1.pdb
 48 52 0 0 0
SMALL
GASTEIGER

@<TRIPOS>ATOM
      1  PA       -11.5040  -25.2800   16.0940 P.3   271  NAP271      0.2189
      2  O1A      -11.9290  -25.6930   14.7440 O.2   271  NAP271     -0.5170
      3  O2A      -10.6070  -26.1660   16.8810 O.3   271  NAP271     -0.4371
      4  O5B      -12.8350  -24.9620   16.9330 O.3   271  NAP271     -0.3112
      5  C5B      -13.9540  -24.3750   16.2770 C.3   271  NAP271      0.1813
      6  C4B      -15.0690  -24.1060   17.2620 C.3   271  NAP271      0.1820
      7  O4B      -15.9720  -23.3300   16.4410 O.3   271  NAP271     -0.3136
      8  C3B      -15.8300  -25.3830   17.6760 C.3   271  NAP271      0.2157
      9  O3B      -16.1700  -25.3290   19.0630 O.3   271  NAP271     -0.2175
     10  C2B      -17.1070  -25.3150   16.8390 C.3   271  NAP271      0.2314
     11  O2B      -18.2100  -25.9650   17.4950 O.3   271  NAP271     -0.2630
     12  C1B      -17.3150  -23.7920   16.7170 C.3   271  NAP271      0.3158
     13  N9A      -18.2860  -23.6020   15.6080 N.pl3 271  NAP271     -0.1439
     14  C8A      -18.0920  -23.8790   14.3140 C.3   271  NAP271      0.3377
     15  N7A      -19.2070  -23.6280   13.6340 N.2   271  NAP271     -0.2095
     16  C5A      -20.1240  -23.1820   14.5010 C.2   271  NAP271      0.2526
     17  C6A      -21.4490  -22.7530   14.3910 C.2   271  NAP271      0.4393
     18  N6A      -22.0610  -22.7360   13.2120 N.pl3 271  NAP271      0.2180
     19  N1A      -22.0980  -22.3500   15.4960 N.2   271  NAP271      0.0021
     20  C2A      -21.5040  -22.3630   16.6830 C.3   271  NAP271      0.5254
     21  N3A      -20.2500  -22.7620   16.8320 N.2   271  NAP271     -0.0055
     22  C4A      -19.5370  -23.1700   15.7630 C.2   271  NAP271      0.3518
     23  O3       -10.8170  -23.8410   15.9780 O.3   271  NAP271     -0.2703
     24  PN       -10.0650  -23.0740   17.2200 P.3   271  NAP271      0.2189
     25  O1N      -10.3840  -23.6870   18.5420 O.3   271  NAP271     -0.4371
     26  O2N       -8.6460  -22.9220   16.8190 O.2   271  NAP271     -0.5170
     27  O5D      -10.8140  -21.6520   17.0450 O.3   271  NAP271     -0.3112
     28  C5D      -11.1310  -20.7220   18.0490 C.3   271  NAP271      0.1813
     29  C4D      -11.1830  -19.2860   17.4290 C.3   271  NAP271      0.1799
     30  O4D       -9.8220  -18.7330   17.3570 O.3   271  NAP271     -0.3327
     31  C3D      -11.7690  -19.1480   16.0050 C.3   271  NAP271      0.2158
     32  O3D      -12.6210  -17.9970   15.9540 O.3   271  NAP271     -0.2175
     33  C2D      -10.5510  -18.9140   15.1290 C.3   271  NAP271      0.2309
     34  O2D      -10.8900  -18.0730   14.0310 O.3   271  NAP271     -0.2158
     35  C1D       -9.6280  -18.1520   16.0600 C.3   271  NAP271      0.2263
     36  N1N       -8.2040  -18.3700   15.7140 N.pl3 271  NAP271     -0.2787
     37  C2N       -7.5820  -19.6330   15.8370 C.3   271  NAP271      0.1244
     38  C3N       -6.2330  -19.7580   15.5030 C.2   271  NAP271      0.0544
     39  C7N       -5.4720  -21.0850   15.6140 C.2   271  NAP271      0.2818
     40  O7N       -4.2090  -21.1870   15.1490 O.2   271  NAP271     -0.2670
     41  N7N       -6.0610  -22.1050   16.2250 N.am  271  NAP271     -0.0839
     42  C4N       -5.5200  -18.6510   15.0540 C.2   271  NAP271      0.0033
     43  C5N       -6.1280  -17.4070   14.9320 C.2   271  NAP271      0.0157
     44  C6N       -7.4660  -17.2640   15.2650 C.2   271  NAP271      0.0633
     45  P2B      -18.8640  -27.3190   16.8870 P.3   271  NAP271      0.5328
     46  O1X      -19.7750  -27.9990   17.8380 O.3   271  NAP271     -0.1145
     47  O2X      -17.6510  -28.2510   16.3960 O.3   271  NAP271     -0.1145
     48  O3X      -19.6120  -26.9210   15.5320 O.2   271  NAP271     -0.2224
@<TRIPOS>BOND
     1    18    17    1
     2    15    14    1
     3    15    16    2
     4    34    33    1
     5    14    13    1
     6    17    16    1
     7    17    19    2
     8    16    22    1
     9     2     1    2
    10    43    42    1
    11    43    44    2
    12    42    38    2
    13    33    31    1
    14    33    35    1
    15    40    39    2
    16    44    36    1
    17    19    20    1
    18    38    39    1
    19    38    37    1
    20    48    45    2
    21    13    22    1
    22    13    12    1
    23    39    41   am
    24    36    37    1
    25    36    35    1
    26    22    21    2
    27    32    31    1
    28    23     1    1
    29    23    24    1
    30    31    29    1
    31    35    30    1
    32     1     3    1
    33     1     4    1
    34     5     4    1
    35     5     6    1
    36    47    45    1
    37     7    12    1
    38     7     6    1
    39    20    21    1
    40    12    10    1
    41    26    24    2
    42    10    11    1
    43    10     8    1
    44    45    11    1
    45    45    46    1
    46    27    24    1
    47    27    28    1
    48    24    25    1
    49     6     8    1
    50    30    29    1
    51    29    28    1
    52     8     9    1
