@<TRIPOS>MOLECULE
3qwh_KMP_A_1.pdb
 21 23 0 0 0
SMALL
GASTEIGER

@<TRIPOS>ATOM
      1  C1        -3.0630  -19.8390   12.3220 C.ar  272  KMP272      0.0843
      2  C2        -2.3280  -20.9620   11.9570 C.ar  272  KMP272      0.2050
      3  C3        -0.9330  -20.8750   11.7990 C.ar  272  KMP272      0.1158
      4  C4        -0.2820  -19.6450   12.0000 C.ar  272  KMP272      0.1549
      5  C5        -1.0390  -18.5230   12.3670 C.ar  272  KMP272      0.0798
      6  C6        -2.4280  -18.6230   12.5280 C.ar  272  KMP272      0.2020
      7  C9        -0.1690  -21.9900   11.4250 C.ar  272  KMP272      0.2433
      8  C10        1.2140  -21.8510   11.2290 C.ar  272  KMP272      0.2685
      9  C11        1.8390  -20.6180   11.4450 C.ar  272  KMP272      0.1871
     10  C14        3.2170  -20.4560   11.2090 C.ar  272  KMP272      0.0381
     11  C15        4.0100  -21.5050   10.7250 C.ar  272  KMP272      0.0064
     12  C16        5.3740  -21.3270   10.4810 C.ar  272  KMP272      0.0421
     13  C17        5.9730  -20.0870   10.7000 C.ar  272  KMP272      0.1957
     14  C18        5.1970  -19.0280   11.1680 C.ar  272  KMP272      0.0421
     15  C19        3.8310  -19.2140   11.4190 C.ar  272  KMP272      0.0064
     16  O12        1.0910  -19.5230   11.8450 O.2   272  KMP272     -0.4498
     17  O13       -0.7150  -23.0830   11.2320 O.2   272  KMP272     -0.2828
     18  O24        7.3030  -19.9170   10.4600 O.3   272  KMP272     -0.2866
     19  O27        1.9470  -22.9310   10.8290 O.3   272  KMP272     -0.2798
     20  O29       -3.1900  -17.5480   12.8800 O.3   272  KMP272     -0.2864
     21  O30       -3.0010  -22.1310   11.7650 O.3   272  KMP272     -0.2862
@<TRIPOS>BOND
     1    18    13    1
     2    12    13   ar
     3    12    11   ar
     4    13    14   ar
     5    11    10   ar
     6    19     8    1
     7    14    15   ar
     8    10    15   ar
     9    10     9    1
    10     8     7   ar
    11     8     9   ar
    12    17     7    2
    13     7     3   ar
    14     9    16   ar
    15    21     2    1
    16     3     2   ar
    17     3     4   ar
    18    16     4   ar
    19     2     1   ar
    20     4     5   ar
    21     1     6   ar
    22     5     6   ar
    23     6    20    1
