@<TRIPOS>MOLECULE
3qwi_CUE_A_1.pdb
 20 23 0 0 0
SMALL
GASTEIGER

@<TRIPOS>ATOM
      1  OAA        0.4940  -17.8190   12.6710 O.2   272  CUE272     -0.2444
      2  OAB       -5.8080  -20.8010   12.4550 O.3   272  CUE272     -0.2865
      3  OAC        5.3730  -22.1140   10.6740 O.3   272  CUE272     -0.2865
      4  CAD       -3.8630  -22.1450   11.9860 C.ar  272  CUE272      0.0423
      5  CAE        4.1800  -20.1590   11.3530 C.ar  272  CUE272      0.0422
      6  CAF       -2.4770  -22.2300   11.8340 C.ar  272  CUE272      0.0094
      7  CAG        2.9630  -19.5620   11.6900 C.ar  272  CUE272      0.0066
      8  CAH       -3.6590  -19.7800   12.4580 C.ar  272  CUE272      0.0797
      9  CAI        3.0250  -22.2590   11.0030 C.ar  272  CUE272      0.0795
     10  OAJ       -1.5440  -18.7110   12.4580 O.2   272  CUE272     -0.4208
     11  OAK        0.5380  -22.1600   11.4210 O.2   272  CUE272     -0.4531
     12  CAL       -4.4540  -20.9150   12.2990 C.ar  272  CUE272      0.1988
     13  CAM        4.2020  -21.5110   11.0100 C.ar  272  CUE272      0.1988
     14  CAN       -0.1790  -18.8070   12.3730 C.ar  272  CUE272      0.3488
     15  CAO       -2.2770  -19.8590   12.2990 C.ar  272  CUE272      0.1548
     16  CAP        1.8130  -21.6640   11.3470 C.ar  272  CUE272      0.1487
     17  CAQ       -1.6820  -21.0920   12.0060 C.ar  272  CUE272      0.0696
     18  CAR        1.7800  -20.3120   11.6870 C.ar  272  CUE272      0.0440
     19  CAS       -0.3030  -21.1530   11.8160 C.ar  272  CUE272      0.1544
     20  CAT        0.4530  -19.9930   11.9750 C.ar  272  CUE272      0.1135
@<TRIPOS>BOND
     1     3    13    1
     2     9    13   ar
     3     9    16   ar
     4    13     5   ar
     5    16    11   ar
     6    16    18   ar
     7     5     7   ar
     8    11    19   ar
     9    18     7   ar
    10    18    20   ar
    11    19    20   ar
    12    19    17   ar
    13     6     4   ar
    14     6    17   ar
    15    20    14   ar
    16     4    12   ar
    17    17    15   ar
    18    12     2    1
    19    12     8   ar
    20    15    10   ar
    21    15     8   ar
    22    14    10   ar
    23    14     1    2
