@<TRIPOS>MOLECULE
3qwi_NAP_A_1.pdb
 48 52 0 0 0
SMALL
GASTEIGER

@<TRIPOS>ATOM
      1  PA       -11.7080  -25.3290   16.0780 P.3   271  NAP271      0.2189
      2  O1A      -11.9260  -25.7500   14.6810 O.2   271  NAP271     -0.5170
      3  O2A      -10.8480  -26.1570   16.9540 O.3   271  NAP271     -0.4371
      4  O5B      -13.1100  -25.1220   16.7950 O.3   271  NAP271     -0.3112
      5  C5B      -14.1340  -24.3160   16.1990 C.3   271  NAP271      0.1813
      6  C4B      -15.2640  -24.0510   17.2030 C.3   271  NAP271      0.1820
      7  O4B      -16.2820  -23.2310   16.5420 O.3   271  NAP271     -0.3136
      8  C3B      -15.9540  -25.3620   17.6300 C.3   271  NAP271      0.2157
      9  O3B      -16.2740  -25.3040   19.0280 O.3   271  NAP271     -0.2175
     10  C2B      -17.2300  -25.3690   16.7920 C.3   271  NAP271      0.2314
     11  O2B      -18.2870  -26.0620   17.4480 O.3   271  NAP271     -0.2630
     12  C1B      -17.5710  -23.8830   16.7500 C.3   271  NAP271      0.3158
     13  N9A      -18.5460  -23.6790   15.6510 N.pl3 271  NAP271     -0.1439
     14  C8A      -18.3580  -23.9370   14.3450 C.3   271  NAP271      0.3377
     15  N7A      -19.4770  -23.6530   13.6740 N.2   271  NAP271     -0.2095
     16  C5A      -20.3750  -23.2000   14.5520 C.2   271  NAP271      0.2526
     17  C6A      -21.6850  -22.7490   14.4520 C.2   271  NAP271      0.4393
     18  N6A      -22.2980  -22.7090   13.2700 N.pl3 271  NAP271      0.2180
     19  N1A      -22.3300  -22.3590   15.5740 N.2   271  NAP271      0.0021
     20  C2A      -21.7360  -22.4070   16.7630 C.3   271  NAP271      0.5254
     21  N3A      -20.4880  -22.8390   16.8870 N.2   271  NAP271     -0.0055
     22  C4A      -19.7860  -23.2290   15.8110 C.2   271  NAP271      0.3518
     23  O3       -11.1280  -23.8150   16.0120 O.3   271  NAP271     -0.2703
     24  PN       -10.3990  -23.0770   17.2600 P.3   271  NAP271      0.2189
     25  O1N      -11.0640  -23.4500   18.5470 O.3   271  NAP271     -0.4371
     26  O2N       -8.9450  -23.2570   17.0960 O.2   271  NAP271     -0.5170
     27  O5D      -10.7870  -21.5690   16.9360 O.3   271  NAP271     -0.3112
     28  C5D      -11.6750  -20.8260   17.7600 C.3   271  NAP271      0.1813
     29  C4D      -11.6040  -19.3530   17.3450 C.3   271  NAP271      0.1799
     30  O4D      -10.2150  -18.9380   17.3670 O.3   271  NAP271     -0.3327
     31  C3D      -12.0830  -19.1560   15.9100 C.3   271  NAP271      0.2158
     32  O3D      -12.8010  -17.9380   15.8570 O.3   271  NAP271     -0.2175
     33  C2D      -10.7800  -19.0340   15.1280 C.3   271  NAP271      0.2309
     34  O2D      -10.9470  -18.2640   13.9390 O.3   271  NAP271     -0.2158
     35  C1D       -9.9210  -18.2810   16.1300 C.3   271  NAP271      0.2263
     36  N1N       -8.4830  -18.4760   15.8360 N.pl3 271  NAP271     -0.2787
     37  C2N       -7.8690  -19.7530   15.9330 C.3   271  NAP271      0.1244
     38  C3N       -6.5100  -19.8790   15.6400 C.2   271  NAP271      0.0544
     39  C7N       -5.7680  -21.2210   15.7350 C.2   271  NAP271      0.2818
     40  O7N       -4.4300  -21.2710   15.4930 O.2   271  NAP271     -0.2670
     41  N7N       -6.4570  -22.2980   16.1030 N.am  271  NAP271     -0.0839
     42  C4N       -5.7690  -18.7580   15.2610 C.2   271  NAP271      0.0033
     43  C5N       -6.3710  -17.5110   15.1610 C.2   271  NAP271      0.0157
     44  C6N       -7.7250  -17.3630   15.4470 C.2   271  NAP271      0.0633
     45  P2B      -18.9880  -27.3820   16.8350 P.3   271  NAP271      0.5328
     46  O1X      -20.0490  -27.8700   17.7410 O.3   271  NAP271     -0.1145
     47  O2X      -17.8380  -28.4550   16.6290 O.3   271  NAP271     -0.1145
     48  O3X      -19.5280  -27.0350   15.3660 O.2   271  NAP271     -0.2224
@<TRIPOS>BOND
     1    18    17    1
     2    15    14    1
     3    15    16    2
     4    34    33    1
     5    14    13    1
     6    17    16    1
     7    17    19    2
     8    16    22    1
     9     2     1    2
    10    33    31    1
    11    33    35    1
    12    43    42    1
    13    43    44    2
    14    42    38    2
    15    48    45    2
    16    44    36    1
    17    40    39    2
    18    19    20    1
    19    38    39    1
    20    38    37    1
    21    13    22    1
    22    13    12    1
    23    39    41   am
    24    22    21    2
    25    36    37    1
    26    36    35    1
    27    32    31    1
    28    31    29    1
    29    23     1    1
    30    23    24    1
    31     1     4    1
    32     1     3    1
    33    35    30    1
    34     5     4    1
    35     5     6    1
    36     7    12    1
    37     7     6    1
    38    47    45    1
    39    12    10    1
    40    20    21    1
    41    10    11    1
    42    10     8    1
    43    45    11    1
    44    45    46    1
    45    27    24    1
    46    27    28    1
    47    26    24    2
    48     6     8    1
    49    24    25    1
    50    29    30    1
    51    29    28    1
    52     8     9    1
