@<TRIPOS>MOLECULE
3qwj_X6A_A_1.pdb
 22 23 0 0 0
SMALL
GASTEIGER

@<TRIPOS>ATOM
      1  N01      -37.4410  -81.8460  -47.7070 N.pl3 483  X6A483     -0.2329
      2  N02      -40.0510  -81.3750  -50.8530 N.am  483  X6A483     -0.0837
      3  N03      -35.8920  -82.9930  -43.3940 N.2   483  X6A483     -0.1783
      4  N04      -35.7640  -84.7910  -45.0100 N.2   483  X6A483     -0.2007
      5  N05      -42.5940  -80.1710  -46.7250 N.pl3 483  X6A483      0.0585
      6  N06      -35.6100  -85.1330  -42.7900 N.pl3 483  X6A483     -0.0461
      7  C07      -40.9880  -81.0090  -48.2290 C.ar  483  X6A483      0.0309
      8  C08      -39.6520  -81.4530  -48.5130 C.ar  483  X6A483      0.0732
      9  C09      -38.6680  -81.4510  -47.4700 C.ar  483  X6A483      0.0711
     10  C10      -39.0550  -81.0200  -46.1710 C.ar  483  X6A483      0.0293
     11  C11      -40.3630  -80.5920  -45.8880 C.ar  483  X6A483      0.0813
     12  C12      -41.3680  -80.5700  -46.9260 C.ar  483  X6A483      0.1536
     13  C13      -39.3560  -81.8750  -49.7860 C.2   483  X6A483      0.2855
     14  C14      -36.2640  -81.4770  -46.8680 C.3   483  X6A483      0.1378
     15  C15      -36.0760  -82.4890  -45.7700 C.2   483  X6A483      0.0222
     16  C16      -36.0480  -82.1170  -44.4230 C.2   483  X6A483      0.1060
     17  C17      -35.7560  -84.3020  -43.7370 C.1   483  X6A483      0.1286
     18  C18      -35.9270  -83.8610  -46.0070 C.3   483  X6A483      0.1630
     19  O19      -38.4910  -82.7100  -49.9740 O.2   483  X6A483     -0.2666
     20  O20      -43.0070  -79.7370  -45.5610 O.2   483  X6A483     -0.1261
     21  O21      -43.4650  -80.1860  -47.7000 O.2   483  X6A483     -0.1261
     22 CL22      -40.6770  -80.1290  -44.2820 Cl    483  X6A483     -0.0805
@<TRIPOS>BOND
     1     2    13   am
     2    19    13    2
     3    13     8    1
     4     8     7   ar
     5     8     9   ar
     6     7    12   ar
     7     1     9    1
     8     1    14    1
     9    21     5    2
    10     9    10   ar
    11    12     5    1
    12    12    11   ar
    13    14    15    1
    14     5    20    2
    15    10    11   ar
    16    18    15    1
    17    18     4    1
    18    11    22    1
    19    15    16    2
    20     4    17    2
    21    16     3    1
    22    17     3    2
    23    17     6    1
