@<TRIPOS>MOLECULE
3qwk_X62_A_1.pdb
 22 23 0 0 0
SMALL
GASTEIGER

@<TRIPOS>ATOM
      1  N01      -64.4040   25.4100  -84.1470 N.pl3 493  X62493     -0.2329
      2  N02      -67.0160   25.9550  -87.2430 N.am  493  X62493     -0.0837
      3  N03      -62.7740   22.2730  -81.8890 N.2   493  X62493     -0.1836
      4  N04      -62.0470   23.8760  -80.2460 N.2   493  X62493     -0.2060
      5  N05      -69.4950   27.1060  -83.0310 N.pl3 493  X62493      0.0585
      6  C06      -67.9330   26.2930  -84.5870 C.ar  493  X62493      0.0309
      7  C07      -66.6070   25.8380  -84.9060 C.ar  493  X62493      0.0732
      8  C08      -65.6080   25.8060  -83.8780 C.ar  493  X62493      0.0711
      9  C09      -65.9610   26.2060  -82.5500 C.ar  493  X62493      0.0293
     10  C10      -67.2640   26.6400  -82.2340 C.ar  493  X62493      0.0813
     11  C11      -68.2820   26.7020  -83.2630 C.ar  493  X62493      0.1536
     12  C12      -66.3260   25.4340  -86.1910 C.2   493  X62493      0.2855
     13  C13      -63.2180   25.7850  -83.3350 C.3   493  X62493      0.1378
     14  C14      -62.8810   24.6610  -82.3920 C.2   493  X62493      0.0221
     15  C15      -63.0700   23.3100  -82.7240 C.2   493  X62493      0.1055
     16  C16      -62.2710   22.6090  -80.6810 C.1   493  X62493      0.0949
     17  C17      -62.3610   24.8810  -81.1210 C.3   493  X62493      0.1626
     18  O18      -65.4890   24.5630  -86.3970 O.2   493  X62493     -0.2666
     19  O19      -70.4830   26.6980  -83.7800 O.2   493  X62493     -0.1261
     20  O20      -69.7710   27.9670  -82.0710 O.2   493  X62493     -0.1261
     21 CL21      -67.5660   27.0700  -80.6040 Cl    493  X62493     -0.0805
     22 CL22      -61.8830   21.3200  -79.6130 Cl    493  X62493     -0.0008
@<TRIPOS>BOND
     1     2    12   am
     2    18    12    2
     3    12     7    1
     4     7     6   ar
     5     7     8   ar
     6     6    11   ar
     7     1     8    1
     8     1    13    1
     9     8     9   ar
    10    19     5    2
    11    13    14    1
    12    11     5    1
    13    11    10   ar
    14     5    20    2
    15    15    14    2
    16    15     3    1
    17     9    10   ar
    18    14    17    1
    19    10    21    1
    20     3    16    2
    21    17     4    1
    22    16     4    2
    23    16    22    1
