@<TRIPOS>MOLECULE
3qwp_SAM_A_1.pdb
 27 29 0 0 0
SMALL
GASTEIGER

@<TRIPOS>ATOM
      1  N         11.0700  -14.7360  -23.1300 N.3   510  SAM510     -0.1208
      2  CA        10.8420  -14.5920  -21.6360 C.3   510  SAM510      0.1952
      3  C          9.9020  -15.6500  -21.1140 C.2   510  SAM510      0.3819
      4  O          9.5070  -16.5210  -21.9090 O.co2 510  SAM510     -0.2441
      5  OXT        9.5750  -15.6950  -19.9230 O.co2 510  SAM510     -0.2441
      6  CB        10.4700  -13.1790  -21.1910 C.3   510  SAM510      0.0414
      7  CG        11.7410  -12.2840  -21.0580 C.3   510  SAM510      0.0503
      8  SD        12.7580  -12.8640  -19.6420 S.3   510  SAM510     -0.1761
      9  CE        12.9190  -11.2960  -18.7180 C.3   510  SAM510      0.0590
     10  C5'       14.4300  -12.9070  -20.3650 C.3   510  SAM510      0.0806
     11  C4'       14.6580  -14.1880  -21.1460 C.3   510  SAM510      0.1622
     12  O4'       13.9590  -14.0970  -22.3830 O.3   510  SAM510     -0.3153
     13  C3'       16.1220  -14.3430  -21.5770 C.3   510  SAM510      0.2168
     14  O3'       16.9010  -15.0020  -20.5880 O.3   510  SAM510     -0.2175
     15  C2'       15.9820  -15.1790  -22.8410 C.3   510  SAM510      0.2569
     16  O2'       15.5670  -16.5340  -22.5360 O.3   510  SAM510     -0.2130
     17  C1'       14.7430  -14.5630  -23.4870 C.3   510  SAM510      0.3185
     18  N9        15.0840  -13.3620  -24.3330 N.pl3 510  SAM510     -0.1439
     19  C8        14.8350  -12.0260  -24.0460 C.3   510  SAM510      0.3377
     20  N7        15.1480  -11.2920  -25.1140 N.2   510  SAM510     -0.2095
     21  C5        15.5300  -12.1090  -26.1330 C.2   510  SAM510      0.2526
     22  C6        16.0080  -11.8700  -27.4000 C.2   510  SAM510      0.4393
     23  N6        16.0930  -10.6520  -27.9550 N.pl3 510  SAM510      0.2180
     24  N1        16.4020  -12.9540  -28.1410 N.2   510  SAM510      0.0021
     25  C2        16.3310  -14.2120  -27.6460 C.3   510  SAM510      0.5254
     26  N3        15.8880  -14.4660  -26.3840 N.2   510  SAM510     -0.0055
     27  C4        15.5020  -13.4070  -25.6510 C.2   510  SAM510      0.3518
@<TRIPOS>BOND
     1    24    25    1
     2    24    22    2
     3    23    22    1
     4    25    26    1
     5    22    21    1
     6    26    27    2
     7    21    27    1
     8    21    20    2
     9    27    18    1
    10    20    19    1
    11    18    19    1
    12    18    17    1
    13    17    15    1
    14    17    12    1
    15     1     2    1
    16    15    16    1
    17    15    13    1
    18    12    11    1
    19     4     3   ar
    20     2     6    1
    21     2     3    1
    22    13    11    1
    23    13    14    1
    24     6     7    1
    25    11    10    1
    26     3     5   ar
    27     7     8    1
    28    10     8    1
    29     8     9    1
