@<TRIPOS>MOLECULE
3qwu_ADN_A_1.pdb
 19 21 0 0 0
SMALL
GASTEIGER

@<TRIPOS>ATOM
      1  O5'       39.4490   41.1540   14.3680 O.3   501  ADN501     -0.2176
      2  C5'       39.9790   40.8960   13.0670 C.3   501  ADN501      0.2143
      3  C4'       41.1530   39.9310   13.1770 C.3   501  ADN501      0.1851
      4  O4'       41.6030   39.4820   11.8620 O.3   501  ADN501     -0.3134
      5  C3'       42.3530   40.6090   13.8240 C.3   501  ADN501      0.2186
      6  O3'       42.4050   40.5140   15.2450 O.3   501  ADN501     -0.2174
      7  C2'       43.5530   39.9510   13.1510 C.3   501  ADN501      0.2570
      8  O2'       44.1250   38.9620   13.9900 O.3   501  ADN501     -0.2130
      9  C1'       43.0350   39.3070   11.8670 C.3   501  ADN501      0.3186
     10  N9        43.5700   39.9100   10.6360 N.pl3 501  ADN501     -0.1439
     11  C8        43.9300   39.1930    9.5460 C.3   501  ADN501      0.3377
     12  N7        44.3840   39.9810    8.5420 N.2   501  ADN501     -0.2095
     13  C5        44.2730   41.2500    9.0130 C.2   501  ADN501      0.2526
     14  C6        44.5400   42.5750    8.4450 C.2   501  ADN501      0.4393
     15  N6        45.0320   42.6300    7.1750 N.pl3 501  ADN501      0.2180
     16  N1        44.3430   43.6750    9.2360 N.2   501  ADN501      0.0021
     17  C2        43.8420   43.5510   10.4990 C.3   501  ADN501      0.5254
     18  N3        43.5390   42.3500   11.0700 N.2   501  ADN501     -0.0055
     19  C4        43.7490   41.2030   10.3870 C.2   501  ADN501      0.3518
@<TRIPOS>BOND
     1    15    14    1
     2    14    13    1
     3    14    16    2
     4    12    13    2
     5    12    11    1
     6    13    19    1
     7    16    17    1
     8    11    10    1
     9    19    10    1
    10    19    18    2
    11    17    18    1
    12    10     9    1
    13     4     9    1
    14     4     3    1
    15     9     7    1
    16     2     3    1
    17     2     1    1
    18     7     5    1
    19     7     8    1
    20     3     5    1
    21     5     6    1
