@<TRIPOS>MOLECULE
3qwv_SAH_A_1.pdb
 26 28 0 0 0
SMALL
GASTEIGER

@<TRIPOS>ATOM
      1  N         -2.5000   28.9350   55.9870 N.3   434  SAH434     -0.1208
      2  CA        -1.6760   28.2740   57.1280 C.3   434  SAH434      0.1952
      3  CB        -1.3880   29.5450   58.1370 C.3   434  SAH434      0.0422
      4  CG         0.2210   29.7930   58.1320 C.3   434  SAH434      0.0597
      5  SD         1.3950   28.7020   58.3650 S.3   434  SAH434     -0.1375
      6  C         -2.6220   27.2130   57.8640 C.2   434  SAH434      0.3819
      7  O         -3.7440   26.9110   57.2000 O.co2 434  SAH434     -0.2441
      8  OXT       -2.2980   26.6930   58.9250 O.co2 434  SAH434     -0.2441
      9  C5'        2.2830   28.6540   56.9680 C.3   434  SAH434      0.0899
     10  C4'        1.6900   28.0030   55.6070 C.3   434  SAH434      0.1630
     11  O4'        0.4370   28.6700   55.0140 O.3   434  SAH434     -0.3153
     12  C3'        2.5900   27.7800   54.4260 C.3   434  SAH434      0.2168
     13  O3'        3.4060   26.7120   54.6330 O.3   434  SAH434     -0.2175
     14  C2'        1.7080   27.6580   53.2380 C.3   434  SAH434      0.2569
     15  O2'        0.9620   26.3700   53.2380 O.3   434  SAH434     -0.2130
     16  C1'        0.5430   28.6670   53.6090 C.3   434  SAH434      0.3185
     17  N9         0.6900   30.0770   53.1290 N.pl3 434  SAH434     -0.1439
     18  C8         1.1090   31.1680   53.7660 C.3   434  SAH434      0.3377
     19  N7         1.0570   32.2440   53.0120 N.2   434  SAH434     -0.2095
     20  C5         0.6570   31.8000   51.8330 C.2   434  SAH434      0.2526
     21  C6         0.4340   32.4750   50.5460 C.2   434  SAH434      0.4393
     22  N6         0.6530   33.8590   50.4050 N.pl3 434  SAH434      0.2180
     23  N1         0.0020   31.7130   49.4580 N.2   434  SAH434      0.0021
     24  C2        -0.2170   30.3570   49.6180 C.3   434  SAH434      0.5254
     25  N3        -0.0260   29.6020   50.8040 N.2   434  SAH434     -0.0055
     26  C4         0.4130   30.4480   51.8540 C.2   434  SAH434      0.3518
@<TRIPOS>BOND
     1    23    24    1
     2    23    21    2
     3    24    25    1
     4    22    21    1
     5    21    20    1
     6    25    26    2
     7    20    26    1
     8    20    19    2
     9    26    17    1
    10    19    18    1
    11    17    16    1
    12    17    18    1
    13    14    15    1
    14    14    16    1
    15    14    12    1
    16    16    11    1
    17    12    13    1
    18    12    10    1
    19    11    10    1
    20    10     9    1
    21     1     2    1
    22     9     5    1
    23     2     6    1
    24     2     3    1
    25     7     6   ar
    26     6     8   ar
    27     4     3    1
    28     4     5    1
