@<TRIPOS>MOLECULE
3qww_SFG_A_1.pdb
 27 29 0 0 0
SMALL
GASTEIGER

@<TRIPOS>ATOM
      1  N         -2.6670   29.1770   55.9340 N.3   434  SFG434     -0.1208
      2  CA        -1.9500   28.4830   57.0720 C.3   434  SFG434      0.1944
      3  C         -2.7840   27.4680   57.8400 C.2   434  SFG434      0.3819
      4  O         -3.9360   27.1790   57.3930 O.co2 434  SFG434     -0.2441
      5  OXT       -2.3730   26.9480   58.8960 O.co2 434  SFG434     -0.2441
      6  CB        -1.5220   29.6170   58.0880 C.3   434  SFG434      0.0321
      7  CG        -0.0570   30.1370   57.6980 C.3   434  SFG434      0.0212
      8  CD         1.0710   29.0650   58.0030 C.3   434  SFG434      0.0944
      9  NE         2.0040   29.5620   59.0470 N.3   434  SFG434     -0.1328
     10  C5'        2.0180   28.8640   56.7810 C.3   434  SFG434      0.0514
     11  C4'        1.3670   28.2480   55.4530 C.3   434  SFG434      0.1537
     12  O4'        0.2180   28.9330   54.8870 O.3   434  SFG434     -0.3161
     13  C3'        2.3020   28.0640   54.3150 C.3   434  SFG434      0.2159
     14  O3'        3.1610   26.9080   54.5160 O.3   434  SFG434     -0.2175
     15  C2'        1.3370   27.8630   53.1180 C.3   434  SFG434      0.2569
     16  O2'        0.7250   26.5090   53.1940 O.3   434  SFG434     -0.2130
     17  C1'        0.2310   28.8320   53.4680 C.3   434  SFG434      0.3185
     18  N9         0.4130   30.2150   52.9550 N.pl3 434  SFG434     -0.1439
     19  C8         0.9090   31.3470   53.6820 C.3   434  SFG434      0.3377
     20  N7         0.8630   32.4080   52.9240 N.2   434  SFG434     -0.2095
     21  C5         0.4110   31.9510   51.6810 C.2   434  SFG434      0.2526
     22  C6         0.1800   32.6140   50.4320 C.2   434  SFG434      0.4393
     23  N6         0.4190   33.9440   50.2830 N.pl3 434  SFG434      0.2180
     24  N1        -0.2710   31.8580   49.2650 N.2   434  SFG434      0.0021
     25  C2        -0.4970   30.5010   49.4820 C.3   434  SFG434      0.5254
     26  N3        -0.3610   29.7940   50.6850 N.2   434  SFG434     -0.0055
     27  C4         0.1200   30.6000   51.7210 C.2   434  SFG434      0.3518
@<TRIPOS>BOND
     1    24    25    1
     2    24    22    2
     3    25    26    1
     4    23    22    1
     5    22    21    1
     6    26    27    2
     7    21    27    1
     8    21    20    2
     9    27    18    1
    10    20    19    1
    11    18    17    1
    12    18    19    1
    13    15    16    1
    14    15    17    1
    15    15    13    1
    16    17    12    1
    17    13    14    1
    18    13    11    1
    19    12    11    1
    20    11    10    1
    21     1     2    1
    22    10     8    1
    23     2     3    1
    24     2     6    1
    25     4     3   ar
    26     7     8    1
    27     7     6    1
    28     3     5   ar
    29     8     9    1
