@<TRIPOS>MOLECULE
3qx2_X63_A_1.pdb
 25 26 0 0 0
SMALL
GASTEIGER

@<TRIPOS>ATOM
      1  N01       77.3910   29.9470   64.2970 N.pl3 300  X63300     -0.2328
      2  N02       80.5380   32.6440   64.2860 N.am  300  X63300     -0.0837
      3  N03       75.7650   25.6170   65.3740 N.2   300  X63300     -0.1783
      4  N04       76.2240   27.0380   67.2720 N.2   300  X63300     -0.2007
      5  N05       80.1010   26.6700   62.1580 N.pl3 300  X63300     -0.2331
      6  N06       75.9660   24.8090   67.4810 N.pl3 300  X63300     -0.0461
      7  N07       82.3120   28.2910   62.4750 N.pl3 300  X63300      0.0590
      8  C08       81.0120   29.9490   63.5420 C.ar  300  X63300      0.0313
      9  C09       79.7370   30.4040   64.0270 C.ar  300  X63300      0.0732
     10  C10       78.5760   29.5520   63.8610 C.ar  300  X63300      0.0715
     11  C11       78.7440   28.2780   63.2120 C.ar  300  X63300      0.0340
     12  C12       80.0020   27.8340   62.7360 C.ar  300  X63300      0.0891
     13  C13       81.1570   28.6690   62.8970 C.ar  300  X63300      0.1578
     14  C14       79.6600   31.6590   64.6360 C.2   300  X63300      0.2855
     15  C15       76.0970   29.2060   64.1160 C.3   300  X63300      0.1378
     16  C16       76.0420   28.0140   65.0480 C.2   300  X63300      0.0222
     17  C17       75.8010   26.7230   64.5780 C.2   300  X63300      0.1060
     18  C18       75.9850   25.8300   66.7060 C.1   300  X63300      0.1286
     19  C19       76.2490   28.1110   66.4290 C.3   300  X63300      0.1630
     20  C20       79.0820   26.1850   61.1910 C.3   300  X63300      0.1477
     21  C21       78.4890   24.8760   61.6930 C.3   300  X63300      0.2053
     22  O22       78.8180   31.9130   65.4810 O.2   300  X63300     -0.2666
     23  O23       79.5180   23.9300   61.8410 O.3   300  X63300     -0.2184
     24  O24       82.4410   27.2560   61.6720 O.2   300  X63300     -0.1261
     25  O25       83.4010   28.9350   62.8380 O.2   300  X63300     -0.1261
@<TRIPOS>BOND
     1    20    21    1
     2    20     5    1
     3    24     7    2
     4    21    23    1
     5     5    12    1
     6     7    25    2
     7     7    13    1
     8    12    13   ar
     9    12    11   ar
    10    13     8   ar
    11    11    10   ar
    12     8     9   ar
    13    10     9   ar
    14    10     1    1
    15     9    14    1
    16    15     1    1
    17    15    16    1
    18     2    14   am
    19    17    16    2
    20    17     3    1
    21    14    22    2
    22    16    19    1
    23     3    18    2
    24    19     4    1
    25    18     4    2
    26    18     6    1
