@<TRIPOS>MOLECULE
3qx3_EVP_A_1.pdb
 42 48 0 0 0
SMALL
GASTEIGER

@<TRIPOS>ATOM
      1  C1        32.4710   90.3360   48.6880 C.3     1  EVP1        0.4294
      2  O1        31.4710   91.1950   49.1470 O.3     1  EVP1       -0.4346
      3  C2        33.3890   91.6630   50.1510 C.ar    1  EVP1        0.1761
      4  O2        33.4980   90.4150   49.6220 O.3     1  EVP1       -0.4346
      5  C3        34.3840   92.4970   50.9420 C.ar    1  EVP1        0.0360
      6  O3        34.4660   98.2960   53.3470 O.3     1  EVP1       -0.4484
      7  C4        33.9770   93.8600   51.3690 C.ar    1  EVP1       -0.0164
      8  O4        36.2080   96.8610   54.1440 O.2     1  EVP1       -0.2501
      9  C5        35.0100   94.7710   52.1940 C.3     1  EVP1        0.0554
     10  O5        37.2780   95.6200   47.6260 O.3     1  EVP1       -0.4681
     11  C6        34.3930   95.9780   52.7880 C.3     1  EVP1        0.1134
     12  O6        39.7990   96.2160   48.9000 O.3     1  EVP1       -0.2801
     13  C7        35.1950   97.0470   53.5140 C.2     1  EVP1        0.3173
     14  O7        40.0370   96.1330   51.7660 O.3     1  EVP1       -0.4681
     15  C8        33.3490   98.0680   52.4280 C.3     1  EVP1        0.2117
     16  O8        31.4240   95.7940   52.7110 O.3     1  EVP1       -0.3264
     17  C9        33.4770   96.6700   51.8850 C.3     1  EVP1        0.0865
     18  O9        30.1780   97.4950   52.3080 O.3     1  EVP1       -0.3258
     19  C10       32.2790   95.7960   51.5470 C.3     1  EVP1        0.1439
     20  O10       27.9250  100.2190   52.1270 O.3     1  EVP1       -0.3278
     21  C11       32.6710   94.3810   51.0550 C.ar    1  EVP1        0.0043
     22  O11       26.7570   98.4450   53.2410 O.3     1  EVP1       -0.3277
     23  C12       31.7110   93.5520   50.3000 C.ar    1  EVP1        0.0379
     24  O12       27.3610   95.7930   54.5490 O.3     1  EVP1       -0.2175
     25  C13       32.1340   92.1510   49.8530 C.ar    1  EVP1        0.1762
     26  O13       29.1560   94.3330   53.2870 O.3     1  EVP1       -0.2149
     27  C14       36.2610   95.1500   51.3400 C.ar    1  EVP1       -0.0117
     28  C15       36.1610   95.2050   49.8370 C.ar    1  EVP1        0.0365
     29  C16       37.3740   95.5670   48.9980 C.ar    1  EVP1        0.1802
     30  C17       38.6890   95.8720   49.6670 C.ar    1  EVP1        0.2627
     31  C18       38.7990   95.8220   51.1690 C.ar    1  EVP1        0.1802
     32  C19       37.5870   95.4670   52.0010 C.ar    1  EVP1        0.0365
     33  C20       36.1210   95.1430   47.0200 C.3     1  EVP1        0.2526
     34  C21       40.1570   96.3400   53.1420 C.3     1  EVP1        0.2526
     35  C22       29.9540   96.1830   52.4220 C.3     1  EVP1        0.2697
     36  C23       28.9070   98.1320   52.2650 C.3     1  EVP1        0.1770
     37  C24       29.1250   99.4990   52.1800 C.3     1  EVP1        0.1768
     38  C25       26.9340   99.8340   53.1230 C.3     1  EVP1        0.2354
     39  C26       27.9470   97.8140   53.4340 C.3     1  EVP1        0.1802
     40  C27       28.0430   96.2800   53.4510 C.3     1  EVP1        0.2167
     41  C28       29.4140   95.7630   53.4390 C.3     1  EVP1        0.2405
     42  C29       25.6110  100.4900   52.8570 C.3     1  EVP1        0.0665
@<TRIPOS>BOND
     1    33    10    1
     2    10    29    1
     3     1     2    1
     4     1     4    1
     5    12    30    1
     6    29    30   ar
     7    29    28   ar
     8     2    25    1
     9     4     3    1
    10    30    31   ar
    11    28    27   ar
    12    25     3   ar
    13    25    23   ar
    14     3     5   ar
    15    23    21   ar
    16     5     7   ar
    17    21     7   ar
    18    21    19    1
    19    31    14    1
    20    31    32   ar
    21    27    32   ar
    22    27     9    1
    23     7     9    1
    24    19    17    1
    25    19    16    1
    26    14    34    1
    27    17    15    1
    28    17    11    1
    29    20    37    1
    30    20    38    1
    31    37    36    1
    32     9    11    1
    33    36    18    1
    34    36    39    1
    35    18    35    1
    36    35    16    1
    37    35    41    1
    38    15     6    1
    39    11    13    1
    40    42    38    1
    41    38    22    1
    42    22    39    1
    43    26    41    1
    44     6    13    1
    45    39    40    1
    46    41    40    1
    47    40    24    1
    48    13     8    2
