@<TRIPOS>MOLECULE
3qx4_X4B_A_1.pdb
 21 22 0 0 0
SMALL
GASTEIGER

@<TRIPOS>ATOM
      1  N01       39.8570   81.1540  -51.0450 N.am  454  X4B454     -0.0837
      2  N02       37.2670   81.7040  -47.9140 N.pl3 454  X4B454     -0.2326
      3  N03       35.3920   83.1720  -43.7610 N.ar  454  X4B454     -0.2426
      4  N04       42.3930   79.9590  -46.9320 N.pl3 454  X4B454      0.0585
      5  C05       40.7910   80.8040  -48.4290 C.ar  454  X4B454      0.0309
      6  C06       39.4640   81.2670  -48.7120 C.ar  454  X4B454      0.0732
      7  C07       38.4820   81.2890  -47.6670 C.ar  454  X4B454      0.0711
      8  C08       38.8650   80.8540  -46.3510 C.ar  454  X4B454      0.0293
      9  C09       40.1860   80.4030  -46.0720 C.ar  454  X4B454      0.0813
     10  C10       41.1750   80.3660  -47.1250 C.ar  454  X4B454      0.1536
     11  C11       39.1710   81.6850  -49.9880 C.2   454  X4B454      0.2855
     12  C12       36.0910   81.3700  -47.0610 C.3   454  X4B454      0.1401
     13  C13       35.8290   82.4810  -46.0710 C.ar  454  X4B454      0.0185
     14  C14       35.6350   82.1980  -44.7040 C.ar  454  X4B454      0.0963
     15  C15       35.3380   84.4830  -44.1850 C.ar  454  X4B454      0.0989
     16  C16       35.5210   84.8660  -45.5250 C.ar  454  X4B454      0.0204
     17  C17       35.7700   83.8420  -46.4760 C.ar  454  X4B454      0.0006
     18  O18       38.3250   82.5470  -50.1910 O.2   454  X4B454     -0.2666
     19  O19       43.3650   80.3930  -47.6970 O.2   454  X4B454     -0.1261
     20  O20       42.6940   79.0860  -46.0000 O.2   454  X4B454     -0.1261
     21 CL21       40.5460   79.9230  -44.4610 Cl    454  X4B454     -0.0805
@<TRIPOS>BOND
     1     1    11   am
     2    18    11    2
     3    11     6    1
     4     6     5   ar
     5     6     7   ar
     6     5    10   ar
     7     2     7    1
     8     2    12    1
     9    19     4    2
    10     7     8   ar
    11    10     4    1
    12    10     9   ar
    13    12    13    1
    14     4    20    2
    15    17    13   ar
    16    17    16   ar
    17     8     9   ar
    18     9    21    1
    19    13    14   ar
    20    16    15   ar
    21    14     3   ar
    22    15     3   ar
