@<TRIPOS>MOLECULE
3qx5_02P_H_1.pdb
 28 30 0 0 0
SMALL
GASTEIGER

@<TRIPOS>ATOM
      1  N10       16.4240  -15.5120   23.3060 N.3     5  02P5       -0.1228
      2  C8        17.6850  -14.7880   23.3080 C.3     5  02P5        0.1721
      3  C9        17.4080  -13.4370   22.7140 C.2     5  02P5        0.2437
      4  O12       16.4780  -12.7610   23.1340 O.2     5  02P5       -0.2733
      5  C7        18.1720  -14.6910   24.7490 C.3     5  02P5        0.0547
      6  C4        19.5740  -14.1400   24.8310 C.ar    5  02P5       -0.0202
      7  C3        19.7810  -12.9810   25.5680 C.ar    5  02P5       -0.0042
      8  C5        20.6460  -14.7660   24.1940 C.ar    5  02P5       -0.0042
      9  C26       21.0550  -12.4410   25.6690 C.ar    5  02P5       -0.0003
     10  C6        21.9240  -14.2220   24.2990 C.ar    5  02P5       -0.0003
     11  C1        22.1300  -13.0620   25.0390 C.ar    5  02P5       -0.0000
     12  N11       18.1760  -13.0170   21.7070 N.am    5  02P5       -0.2718
     13  C13       17.8850  -11.7110   21.1120 C.3     5  02P5        0.1535
     14  C17       16.4510  -11.6410   20.6420 C.2     5  02P5        0.2595
     15  O28       15.9570  -12.5680   20.0060 O.2     5  02P5       -0.2716
     16  C15       18.8570  -11.6130   19.9430 C.3     5  02P5        0.0310
     17  C16       19.9600  -12.6050   20.2520 C.3     5  02P5        0.0237
     18  C14       19.3160  -13.6980   21.0900 C.3     5  02P5        0.0939
     19 CL2        12.2700   -7.5340   24.5420 Cl      5  02P5       -0.0825
     20  N18       15.7480  -10.5500   20.9450 N.am    5  02P5       -0.2019
     21  C19       14.3550  -10.3360   20.5670 C.3     5  02P5        0.1393
     22  C20       13.4280  -10.2790   21.7690 C.3     5  02P5        0.1178
     23  N21       12.7200  -11.3620   22.1460 N.pl3   5  02P5       -0.3010
     24  C22       13.3000   -9.0870   22.4730 C.2     5  02P5        0.0065
     25  C23       12.4470   -9.0340   23.5760 C.2     5  02P5        0.0563
     26  C24       11.7230  -10.1610   23.9420 C.2     5  02P5        0.0269
     27  C25       11.8890  -11.3200   23.2010 C.2     5  02P5        0.0625
     28  C27       12.8480  -12.6260   21.4090 C.3     5  02P5        0.1125
@<TRIPOS>BOND
     1    16    17    1
     2    16    13    1
     3    15    14    2
     4    17    18    1
     5    21    20    1
     6    21    22    1
     7    14    20   am
     8    14    13    1
     9    18    12    1
    10    13    12    1
    11    28    23    1
    12    12     3   am
    13    22    23    1
    14    22    24    1
    15    23    27    1
    16    24    25    2
    17     3     4    2
    18     3     2    1
    19    27    26    2
    20     1     2    1
    21     2     5    1
    22    25    26    1
    23    25    19    1
    24     8    10   ar
    25     8     6   ar
    26    10    11   ar
    27     5     6    1
    28     6     7   ar
    29    11     9   ar
    30     7     9   ar
