@<TRIPOS>MOLECULE
3qx9_ATP_A_1.pdb
 31 33 0 0 0
SMALL
GASTEIGER

@<TRIPOS>ATOM
      1  PG        20.7120   10.3420  -24.2540 P.3     1  ATP1        0.5373
      2  O1G       19.2990   10.1600  -24.7530 O.3     1  ATP1       -0.1143
      3  O2G       21.1250   11.7820  -24.0720 O.3     1  ATP1       -0.1143
      4  O3G       21.7350    9.4750  -24.9490 O.2     1  ATP1       -0.2221
      5  PB        20.7040    8.1880  -22.4320 P.3     1  ATP1        0.2277
      6  O1B       19.4550    7.5560  -22.9930 O.2     1  ATP1       -0.5168
      7  O2B       22.0530    7.6380  -22.8230 O.3     1  ATP1       -0.4368
      8  O3B       20.6850    9.7710  -22.7490 O.3     1  ATP1       -0.2258
      9  PA        19.3740    7.5250  -20.0490 P.3     1  ATP1        0.2189
     10  O1A       19.5840    6.0430  -19.8670 O.3     1  ATP1       -0.4371
     11  O2A       18.1150    8.0400  -20.7070 O.2     1  ATP1       -0.5170
     12  O3A       20.6270    8.1740  -20.8270 O.3     1  ATP1       -0.2700
     13  O5'       19.5150    8.2470  -18.6170 O.3     1  ATP1       -0.3112
     14  C5'       18.5500    9.2090  -18.1930 C.3     1  ATP1        0.1813
     15  C4'       18.7420    9.5290  -16.7150 C.3     1  ATP1        0.1821
     16  O4'       20.1150    9.4280  -16.3340 O.3     1  ATP1       -0.3135
     17  C3'       18.2890   10.9440  -16.3780 C.3     1  ATP1        0.2184
     18  O3'       17.1090   10.8940  -15.5670 O.3     1  ATP1       -0.2174
     19  C2'       19.4570   11.5750  -15.6330 C.3     1  ATP1        0.2570
     20  O2'       19.0540   12.2020  -14.4120 O.3     1  ATP1       -0.2130
     21  C1'       20.4150   10.4210  -15.3550 C.3     1  ATP1        0.3186
     22  N9        21.8290   10.8530  -15.4430 N.pl3   1  ATP1       -0.1439
     23  C8        22.4270   11.3970  -16.5210 C.3     1  ATP1        0.3377
     24  N7        23.7300   11.6810  -16.2680 N.2     1  ATP1       -0.2095
     25  C5        23.9880   11.3180  -14.9970 C.2     1  ATP1        0.2526
     26  C6        25.1630   11.3430  -14.0940 C.2     1  ATP1        0.4393
     27  N6        26.3620   11.8290  -14.5050 N.pl3   1  ATP1        0.2180
     28  N1        25.0030   10.8650  -12.8450 N.2     1  ATP1        0.0021
     29  C2        23.8200   10.3820  -12.4200 C.3     1  ATP1        0.5254
     30  N3        22.7130   10.3310  -13.1800 N.2     1  ATP1       -0.0055
     31  C4        22.7320   10.7770  -14.4580 C.2     1  ATP1        0.3518
@<TRIPOS>BOND
     1     4     1    2
     2     2     1    1
     3     1     3    1
     4     1     8    1
     5     6     5    2
     6     7     5    1
     7     8     5    1
     8     5    12    1
     9    12     9    1
    10    11     9    2
    11     9    10    1
    12     9    13    1
    13    13    14    1
    14    14    15    1
    15    15    17    1
    16    15    16    1
    17    23    24    1
    18    23    22    1
    19    17    19    1
    20    17    18    1
    21    16    21    1
    22    24    25    2
    23    19    21    1
    24    19    20    1
    25    22    21    1
    26    22    31    1
    27    25    31    1
    28    25    26    1
    29    27    26    1
    30    31    30    2
    31    26    28    2
    32    30    29    1
    33    28    29    1
