@<TRIPOS>MOLECULE
3qxc_ATP_A_1.pdb
 31 33 0 0 0
SMALL
GASTEIGER

@<TRIPOS>ATOM
      1  PG         7.8390  -26.9300  -20.9440 P.3   221  ATP221      0.5373
      2  O1G        8.1880  -26.1910  -19.6830 O.3   221  ATP221     -0.1143
      3  O2G        7.0080  -28.1530  -20.7200 O.3   221  ATP221     -0.1143
      4  O3G        7.3440  -26.0060  -21.9910 O.2   221  ATP221     -0.2221
      5  PB        10.6460  -26.9610  -21.5630 P.3   221  ATP221      0.2277
      6  O1B       10.7980  -25.9320  -22.5850 O.2   221  ATP221     -0.5168
      7  O2B       11.0260  -26.6020  -20.1520 O.3   221  ATP221     -0.4368
      8  O3B        9.1610  -27.5540  -21.6020 O.3   221  ATP221     -0.2258
      9  PA        12.3590  -29.2820  -21.1780 P.3   221  ATP221      0.2189
     10  O1A       11.4780  -29.8880  -20.1620 O.3   221  ATP221     -0.4371
     11  O2A       13.6390  -28.6670  -20.7530 O.2   221  ATP221     -0.5170
     12  O3A       11.5580  -28.2070  -22.0050 O.3   221  ATP221     -0.2700
     13  O5'       12.7430  -30.3250  -22.3100 O.3   221  ATP221     -0.3112
     14  C5'       11.7330  -31.1480  -22.9620 C.3   221  ATP221      0.1813
     15  C4'       12.2380  -32.5630  -23.0680 C.3   221  ATP221      0.1821
     16  O4'       13.3790  -32.5790  -23.9590 O.3   221  ATP221     -0.3135
     17  C3'       12.6790  -33.0960  -21.7430 C.3   221  ATP221      0.2184
     18  O3'       12.3410  -34.5410  -21.7080 O.3   221  ATP221     -0.2174
     19  C2'       14.1330  -32.9360  -21.7600 C.3   221  ATP221      0.2570
     20  O2'       14.8220  -33.8810  -20.9130 O.3   221  ATP221     -0.2130
     21  C1'       14.4690  -33.0670  -23.2590 C.3   221  ATP221      0.3186
     22  N9        15.6260  -32.1780  -23.5670 N.pl3 221  ATP221     -0.1439
     23  C8        15.6130  -30.8330  -23.6250 C.3   221  ATP221      0.3377
     24  N7        16.8070  -30.4060  -23.9090 N.2   221  ATP221     -0.2095
     25  C5        17.6220  -31.4510  -24.1560 C.2   221  ATP221      0.2526
     26  C6        18.9990  -31.5660  -24.5440 C.2   221  ATP221      0.4393
     27  N6        19.8130  -30.5520  -24.7500 N.pl3 221  ATP221      0.2180
     28  N1        19.4240  -32.8760  -24.6100 N.2   221  ATP221      0.0021
     29  C2        18.5880  -33.8760  -24.3790 C.3   221  ATP221      0.5254
     30  N3        17.3370  -33.8070  -24.0330 N.2   221  ATP221     -0.0055
     31  C4        16.8100  -32.5710  -23.9020 C.2   221  ATP221      0.3518
@<TRIPOS>BOND
     1    27    26    1
     2    28    26    2
     3    28    29    1
     4    26    25    1
     5    29    30    1
     6    25    24    2
     7    25    31    1
     8    30    31    2
     9    16    21    1
    10    16    15    1
    11    24    23    1
    12    31    22    1
    13    23    22    1
    14    22    21    1
    15    21    19    1
    16    15    14    1
    17    15    17    1
    18    14    13    1
    19     6     5    2
    20    13     9    1
    21    12     5    1
    22    12     9    1
    23     4     1    2
    24    19    17    1
    25    19    20    1
    26    17    18    1
    27     8     5    1
    28     8     1    1
    29     5     7    1
    30     9    11    2
    31     9    10    1
    32     1     3    1
    33     1     2    1
