@<TRIPOS>MOLECULE
3qxh_8AC_A_1.pdb
 11 10 0 0 0
SMALL
GASTEIGER

@<TRIPOS>ATOM
      1  NAA        3.4600  -28.2030  -20.5250 N.3   221  8AC221     -0.1314
      2  OAB        0.7280  -20.8860  -26.9490 O.co2 221  8AC221     -0.2457
      3  OAC       -0.9620  -22.1480  -27.4750 O.co2 221  8AC221     -0.2457
      4  CAD        2.2390  -27.3550  -20.4560 C.3   221  8AC221      0.1093
      5  CAE        2.5240  -26.1320  -21.2730 C.3   221  8AC221      0.0205
      6  CAF        1.3300  -25.3150  -21.6650 C.3   221  8AC221      0.0015
      7  CAG        1.6610  -24.5770  -22.9720 C.3   221  8AC221      0.0001
      8  CAH        0.5710  -23.5150  -23.3180 C.3   221  8AC221      0.0006
      9  CAI        0.7740  -23.0510  -24.7700 C.3   221  8AC221      0.0118
     10  CAJ       -0.3120  -22.0720  -25.1740 C.3   221  8AC221      0.1141
     11  CAK       -0.1450  -21.6470  -26.6470 C.2   221  8AC221      0.3649
@<TRIPOS>BOND
     1     3    11   ar
     2     2    11   ar
     3    11    10    1
     4    10     9    1
     5     9     8    1
     6     8     7    1
     7     7     6    1
     8     6     5    1
     9     5     4    1
    10     1     4    1
