@<TRIPOS>MOLECULE
3qxh_ADP_A_1.pdb
 27 29 0 0 0
SMALL
GASTEIGER

@<TRIPOS>ATOM
      1  PB        10.0950  -26.6360  -21.7690 P.3   222  ADP222      0.5373
      2  O1B       10.4970  -26.2550  -20.3400 O.3   222  ADP222     -0.1143
      3  O2B        8.7250  -27.2420  -21.9080 O.3   222  ADP222     -0.1143
      4  O3B       10.3810  -25.5540  -22.7800 O.2   222  ADP222     -0.2221
      5  PA        11.8460  -28.9250  -21.3280 P.3   222  ADP222      0.2231
      6  O1A       13.1810  -28.4680  -20.8340 O.2   222  ADP222     -0.5169
      7  O2A       10.9070  -29.4630  -20.3350 O.3   222  ADP222     -0.4370
      8  O3A       11.1390  -27.7890  -22.1820 O.3   222  ADP222     -0.2261
      9  O5'       12.1960  -30.0090  -22.4490 O.3   222  ADP222     -0.3111
     10  C5'       11.1420  -30.7190  -23.1750 C.3   222  ADP222      0.1813
     11  C4'       11.5950  -32.1660  -23.3850 C.3   222  ADP222      0.1821
     12  O4'       12.7790  -32.2120  -24.1910 O.3   222  ADP222     -0.3135
     13  C3'       11.9220  -32.8550  -22.1130 C.3   222  ADP222      0.2184
     14  O3'       11.5160  -34.2740  -22.2030 O.3   222  ADP222     -0.2174
     15  C2'       13.4050  -32.7030  -21.9950 C.3   222  ADP222      0.2570
     16  O2'       14.0630  -33.6950  -21.1560 O.3   222  ADP222     -0.2130
     17  C1'       13.8150  -32.7900  -23.4660 C.3   222  ADP222      0.3186
     18  N9        15.0370  -32.0060  -23.7310 N.pl3 222  ADP222     -0.1439
     19  C8        15.1000  -30.6250  -23.7530 C.3   222  ADP222      0.3377
     20  N7        16.3300  -30.2150  -24.0280 N.2   222  ADP222     -0.2095
     21  C5        17.0910  -31.3290  -24.2410 C.2   222  ADP222      0.2526
     22  C6        18.4530  -31.4970  -24.6080 C.2   222  ADP222      0.4393
     23  N6        19.2890  -30.5180  -24.7930 N.pl3 222  ADP222      0.2180
     24  N1        18.8380  -32.8190  -24.7310 N.2   222  ADP222      0.0021
     25  C2        17.9870  -33.8090  -24.5550 C.3   222  ADP222      0.5254
     26  N3        16.6940  -33.7100  -24.1900 N.2   222  ADP222     -0.0055
     27  C4        16.2370  -32.4400  -24.0660 C.2   222  ADP222      0.3518
@<TRIPOS>BOND
     1    23    22    1
     2    24    22    2
     3    24    25    1
     4    22    21    1
     5    25    26    1
     6    21    27    1
     7    21    20    2
     8    12    17    1
     9    12    11    1
    10    26    27    2
    11    27    18    1
    12    20    19    1
    13    19    18    1
    14    18    17    1
    15    17    15    1
    16    11    10    1
    17    11    13    1
    18    10     9    1
    19     4     1    2
    20     9     5    1
    21    14    13    1
    22     8     1    1
    23     8     5    1
    24    13    15    1
    25    15    16    1
    26     3     1    1
    27     1     2    1
    28     5     6    2
    29     5     7    1
