@<TRIPOS>MOLECULE
3qxj_GTP_A_1.pdb
 22 22 0 0 0
SMALL
GASTEIGER

@<TRIPOS>ATOM
      1  PG         7.9450  -26.6880  -20.9080 P.3   221  GTP221      0.5373
      2  O1G        7.4580  -25.7510  -21.9450 O.2   221  GTP221     -0.2221
      3  O2G        7.1240  -27.8940  -20.6700 O.3   221  GTP221     -0.1143
      4  O3G        8.2460  -25.9110  -19.6390 O.3   221  GTP221     -0.1143
      5  O3B        9.2370  -27.3180  -21.5290 O.3   221  GTP221     -0.2258
      6  PB        10.6580  -26.6850  -21.5680 P.3   221  GTP221      0.2277
      7  O1B       11.0140  -26.2450  -20.1810 O.3   221  GTP221     -0.4368
      8  O2B       10.8020  -25.6580  -22.6020 O.2   221  GTP221     -0.5168
      9  O3A       11.5680  -27.8780  -21.9540 O.3   221  GTP221     -0.2700
     10  PA        12.4190  -28.9420  -21.1300 P.3   221  GTP221      0.2189
     11  O1A       13.6830  -28.3710  -20.6810 O.2   221  GTP221     -0.5170
     12  O2A       11.5940  -29.6120  -20.1150 O.3   221  GTP221     -0.4371
     13  O5'       12.8020  -30.0660  -22.2220 O.3   221  GTP221     -0.3112
     14  C5'       11.7920  -30.7660  -22.9100 C.3   221  GTP221      0.1813
     15  C4'       12.2580  -32.2050  -23.1310 C.3   221  GTP221      0.1797
     16  O4'       13.4250  -32.1460  -23.9490 O.3   221  GTP221     -0.3336
     17  C3'       12.6330  -32.8410  -21.7740 C.3   221  GTP221      0.2156
     18  O3'       12.1400  -34.1720  -21.6390 O.3   221  GTP221     -0.2176
     19  C2'       14.1430  -32.8050  -21.7750 C.3   221  GTP221      0.2298
     20  O2'       14.7470  -33.8310  -20.9900 O.3   221  GTP221     -0.2160
     21  C1'       14.4640  -32.8420  -23.2700 C.3   221  GTP221      0.2397
     22  N9        15.7910  -32.2440  -23.5720 N.3   221  GTP221     -0.0972
@<TRIPOS>BOND
     1    16    21    1
     2    16    15    1
     3    22    21    1
     4    21    19    1
     5    15    14    1
     6    15    17    1
     7    14    13    1
     8     8     6    2
     9    13    10    1
    10     9     6    1
    11     9    10    1
    12     2     1    2
    13    19    17    1
    14    19    20    1
    15    17    18    1
    16     6     5    1
    17     6     7    1
    18     5     1    1
    19    10    11    2
    20    10    12    1
    21     1     3    1
    22     1     4    1
