@<TRIPOS>MOLECULE
3qxm_NDZ_A_1.pdb
 20 21 0 0 0
SMALL
GASTEIGER

@<TRIPOS>ATOM
      1  O          4.0590  -12.0810   24.1730 O.co2 301  NDZ301     -0.2440
      2  C          3.8900  -11.4610   25.2550 C.2   301  NDZ301      0.3820
      3  OXT        4.5110  -11.7730   26.2800 O.co2 301  NDZ301     -0.2440
      4  CA         2.8650  -10.3450   25.3810 C.3   301  NDZ301      0.1972
      5  N          1.9520  -10.2980   24.2240 N.3   301  NDZ301     -0.1207
      6  CB         2.0630  -10.5450   26.6820 C.3   301  NDZ301      0.0690
      7  CAJ        1.2870   -9.2440   27.0790 C.3   301  NDZ301      0.1898
      8  CAD        2.2150   -8.1010   27.2120 C.2   301  NDZ301      0.3886
      9  OAA        1.9770   -6.9820   26.6630 O.co2 301  NDZ301     -0.2431
     10  OAE        3.2500   -8.2950   27.8880 O.co2 301  NDZ301     -0.2431
     11  CAR        0.5810   -9.4310   28.4270 C.3   301  NDZ301      0.0705
     12  OAI        0.2610   -8.9520   26.0980 O.3   301  NDZ301     -0.3449
     13  CAH       -1.0220   -9.0320   26.6360 C.3   301  NDZ301      0.1755
     14  CAQ       -0.8330   -8.8750   28.1530 C.3   301  NDZ301      0.1478
     15  OAP       -0.7530   -7.4480   28.4480 O.3   301  NDZ301     -0.3508
     16  CAO       -1.6920   -6.5620   27.8860 C.3   301  NDZ301      0.1776
     17  CAF       -1.7130   -6.5460   26.3430 C.3   301  NDZ301      0.2140
     18  OAB       -0.3840   -6.1290   25.9420 O.3   301  NDZ301     -0.2176
     19  CAG       -1.9900   -8.0250   25.9610 C.3   301  NDZ301      0.2139
     20  OAC       -1.8670   -8.1200   24.5330 O.3   301  NDZ301     -0.2176
@<TRIPOS>BOND
     1     1     2   ar
     2     5     4    1
     3    20    19    1
     4     2     4    1
     5     2     3   ar
     6     4     6    1
     7    18    17    1
     8    19    17    1
     9    19    13    1
    10    12    13    1
    11    12     7    1
    12    17    16    1
    13    13    14    1
    14     9     8   ar
    15     6     7    1
    16     7     8    1
    17     7    11    1
    18     8    10   ar
    19    16    15    1
    20    14    11    1
    21    14    15    1
