@<TRIPOS>MOLECULE
3qxo_X65_A_1.pdb
 24 25 0 0 0
SMALL
GASTEIGER

@<TRIPOS>ATOM
      1  C1       -38.7540  -45.0470  -10.5640 C.ar  668  X65668      0.0179
      2  C2       -40.0530  -44.5950  -10.2440 C.ar  668  X65668      0.0254
      3  C3       -41.1440  -44.7590  -11.1660 C.ar  668  X65668      0.1431
      4  C4       -40.8770  -45.3920  -12.4170 C.ar  668  X65668      0.0300
      5  C5       -39.5720  -45.8660  -12.7930 C.ar  668  X65668      0.0731
      6  C6       -38.4650  -45.7080  -11.8370 C.ar  668  X65668      0.0702
      7  N7       -37.2300  -46.0690  -12.1980 N.pl3 668  X65668     -0.2327
      8  N8       -42.3760  -44.3420  -10.8790 N.pl3 668  X65668      0.0577
      9  O9       -43.3850  -44.5050  -11.7450 O.2   668  X65668     -0.1261
     10  O10      -42.6350  -43.7980   -9.8170 O.2   668  X65668     -0.1261
     11  C11      -39.4030  -46.3680  -14.0720 C.2   668  X65668      0.2855
     12  N12      -40.1720  -45.9790  -15.1230 N.am  668  X65668     -0.0837
     13  O13      -38.4390  -47.2660  -14.3260 O.2   668  X65668     -0.2666
     14  C14      -35.9950  -45.8590  -11.4580 C.3   668  X65668      0.1385
     15  C15      -35.2720  -48.7320   -8.2810 C.ar  668  X65668      0.1250
     16  C16      -35.0070  -47.3510   -8.0850 C.ar  668  X65668      0.0197
     17  C17      -35.2460  -46.4300   -9.1250 C.ar  668  X65668     -0.0012
     18  C18      -35.7540  -46.8760  -10.3740 C.ar  668  X65668     -0.0006
     19  C19      -36.0250  -48.2780  -10.5780 C.ar  668  X65668     -0.0012
     20  C20      -35.7840  -49.2020   -9.5260 C.ar  668  X65668      0.0197
     21  S21      -34.9650  -49.8500   -6.9810 S.O2  668  X65668      0.0935
     22  O22      -33.9300  -51.0350   -7.4150 O.2   668  X65668     -0.1503
     23  O23      -34.4180  -49.1700   -5.7680 O.2   668  X65668     -0.1503
     24  N24      -36.1790  -50.5960   -6.5250 N.3   668  X65668      0.0392
@<TRIPOS>BOND
     1    12    11   am
     2    13    11    2
     3    11     5    1
     4     5     4   ar
     5     5     6   ar
     6     4     3   ar
     7     7     6    1
     8     7    14    1
     9     6     1   ar
    10     9     8    2
    11    14    18    1
    12     3     8    1
    13     3     2   ar
    14     8    10    2
    15    19    18   ar
    16    19    20   ar
    17     1     2   ar
    18    18    17   ar
    19    20    15   ar
    20    17    16   ar
    21    15    16   ar
    22    15    21    1
    23    22    21    2
    24    21    24    1
    25    21    23    2
