@<TRIPOS>MOLECULE
3qxp_X64_A_1.pdb
 28 30 0 0 0
SMALL
GASTEIGER

@<TRIPOS>ATOM
      1  N01      -65.6110   82.3360   86.6820 N.2   300  X64300     -0.3642
      2  N02      -64.3620   82.9200   84.8760 N.pl3 300  X64300     -0.1781
      3  N03      -67.0930   81.4520   88.2430 N.pl3 300  X64300     -0.0965
      4  N04      -61.5230   81.0200   79.0780 N.3   300  X64300      0.0392
      5  N05      -70.8140   79.7350   84.8620 N.pl3 300  X64300      0.0578
      6  C06      -67.1770   80.7140   86.0170 C.3   300  X64300      0.1865
      7  C07      -66.6550   81.4990   87.0370 C.2   300  X64300      0.2162
      8  C08      -65.3280   82.2110   85.4020 C.2   300  X64300      0.2328
      9  C09      -63.5890   82.6490   83.8470 C.ar  300  X64300      0.0737
     10  C10      -68.2060   79.7820   86.1420 C.2   300  X64300      0.1929
     11  C11      -68.5410   78.9520   85.0580 C.ar  300  X64300      0.0585
     12  C12      -69.8670   78.9620   84.4450 C.ar  300  X64300      0.1456
     13  C13      -70.1340   78.0870   83.3390 C.ar  300  X64300      0.0242
     14  C14      -69.1310   77.2180   82.8400 C.ar  300  X64300      0.0017
     15  C15      -67.8350   77.2040   83.4390 C.ar  300  X64300      0.0002
     16  C16      -67.5430   78.0570   84.5330 C.ar  300  X64300      0.0045
     17  C17      -63.7050   81.4550   83.0520 C.ar  300  X64300      0.0180
     18  C18      -62.8280   81.2250   81.9640 C.ar  300  X64300      0.0213
     19  C19      -61.8290   82.1720   81.6510 C.ar  300  X64300      0.1251
     20  C20      -61.7030   83.3650   82.4240 C.ar  300  X64300      0.0213
     21  C21      -62.5780   83.5980   83.5110 C.ar  300  X64300      0.0180
     22  O22      -68.7700   79.6170   87.2320 O.2   300  X64300     -0.2899
     23  O23      -59.6680   81.0040   80.8160 O.2   300  X64300     -0.1503
     24  O24      -60.1690   83.1090   79.7940 O.2   300  X64300     -0.1503
     25  O25      -72.0370   79.2720   84.9330 O.2   300  X64300     -0.1261
     26  O26      -70.5850   80.9830   85.1900 O.2   300  X64300     -0.1261
     27  S27      -66.3220   81.0830   84.5530 S.3   300  X64300     -0.0494
     28  S28      -60.7120   81.8530   80.2990 S.O2  300  X64300      0.0935
@<TRIPOS>BOND
     1     4    28    1
     2    24    28    2
     3    28    23    2
     4    28    19    1
     5    19    18   ar
     6    19    20   ar
     7    18    17   ar
     8    20    21   ar
     9    14    13   ar
    10    14    15   ar
    11    17     9   ar
    12    13    12   ar
    13    15    16   ar
    14    21     9   ar
    15     9     2    1
    16    12     5    1
    17    12    11   ar
    18    16    11   ar
    19    27     8    1
    20    27     6    1
    21     5    25    2
    22     5    26    2
    23     2     8    1
    24    11    10    1
    25     8     1    2
    26     6    10    1
    27     6     7    1
    28    10    22    2
    29     1     7    2
    30     7     3    1
