@<TRIPOS>MOLECULE
3qxs_ANP_A_1.pdb
 31 33 0 0 0
SMALL
GASTEIGER

@<TRIPOS>ATOM
      1  PG         7.7950  -26.6420  -20.7980 P.3   222  ANP222      0.4884
      2  O1G        6.8150  -27.7560  -20.5430 O.3   222  ANP222     -0.1240
      3  O2G        8.2550  -25.9340  -19.5450 O.3   222  ANP222     -0.1240
      4  O3G        7.2870  -25.6350  -21.7090 O.2   222  ANP222     -0.2331
      5  PB        10.6600  -26.7490  -21.5170 P.3   222  ANP222      0.4669
      6  O1B       10.7880  -25.7180  -22.5320 O.2   222  ANP222     -0.2351
      7  O2B       11.0390  -26.3300  -20.1110 O.3   222  ANP222     -0.1253
      8  N3B        9.1170  -27.4190  -21.4730 N.3   222  ANP222     -0.0163
      9  PA        12.3990  -29.0530  -21.1420 P.3   222  ANP222      0.2220
     10  O1A       11.5580  -29.7230  -20.1310 O.3   222  ANP222     -0.4370
     11  O2A       13.6890  -28.4530  -20.7030 O.2   222  ANP222     -0.5170
     12  O3A       11.5540  -28.0190  -21.9310 O.3   222  ANP222     -0.2360
     13  O5'       12.7820  -30.0810  -22.2920 O.3   222  ANP222     -0.3111
     14  C5'       11.7770  -30.8960  -22.9390 C.3   222  ANP222      0.1813
     15  C4'       12.2830  -32.3140  -23.0890 C.3   222  ANP222      0.1821
     16  O4'       13.4310  -32.2950  -23.9630 O.3   222  ANP222     -0.3135
     17  C3'       12.7250  -32.9170  -21.8050 C.3   222  ANP222      0.2184
     18  O3'       12.4350  -34.3690  -21.7610 O.3   222  ANP222     -0.2174
     19  C2'       14.2020  -32.7560  -21.7470 C.3   222  ANP222      0.2570
     20  O2'       14.9170  -33.7180  -20.9530 O.3   222  ANP222     -0.2130
     21  C1'       14.4840  -32.8090  -23.2810 C.3   222  ANP222      0.3186
     22  N9        15.6840  -31.9600  -23.5720 N.pl3 222  ANP222     -0.1439
     23  C8        15.6830  -30.5950  -23.5940 C.3   222  ANP222      0.3377
     24  N7        16.9010  -30.1710  -23.9280 N.2   222  ANP222     -0.2095
     25  C5        17.6810  -31.2420  -24.1540 C.2   222  ANP222      0.2526
     26  C6        19.0510  -31.3620  -24.5320 C.2   222  ANP222      0.4393
     27  N6        19.8660  -30.3450  -24.7230 N.pl3 222  ANP222      0.2180
     28  N1        19.4890  -32.6330  -24.6540 N.2   222  ANP222      0.0021
     29  C2        18.6800  -33.6890  -24.4820 C.3   222  ANP222      0.5254
     30  N3        17.4160  -33.6170  -24.1070 N.2   222  ANP222     -0.0055
     31  C4        16.8850  -32.3800  -23.9220 C.2   222  ANP222      0.3518
@<TRIPOS>BOND
     1    27    26    1
     2    28    26    2
     3    28    29    1
     4    26    25    1
     5    29    30    1
     6    25    24    2
     7    25    31    1
     8    30    31    2
     9    16    21    1
    10    16    15    1
    11    24    23    1
    12    31    22    1
    13    23    22    1
    14    22    21    1
    15    21    19    1
    16    15    14    1
    17    15    17    1
    18    14    13    1
    19     6     5    2
    20    13     9    1
    21    12     5    1
    22    12     9    1
    23    17    18    1
    24    17    19    1
    25    19    20    1
    26     4     1    2
    27     5     8    1
    28     5     7    1
    29     8     1    1
    30     9    11    2
    31     9    10    1
    32     1     2    1
    33     1     3    1
