@<TRIPOS>MOLECULE
3qxt_MTX_A_1.pdb
 33 35 0 0 0
SMALL
GASTEIGER

@<TRIPOS>ATOM
      1  N1        31.2490  -41.0080   -5.6500 N.2   2000  MTX2000    -0.2684
      2  C2        29.9400  -41.0300   -6.0210 C.1   2000  MTX2000     0.2519
      3  NA2       29.0880  -41.0690   -5.0580 N.pl3 2000  MTX2000    -0.0226
      4  N3        29.5870  -41.0850   -7.3480 N.2   2000  MTX2000    -0.3033
      5  C4        30.5480  -41.0390   -8.2760 C.2   2000  MTX2000     0.2728
      6  NA4       30.1470  -41.0230   -9.6140 N.pl3 2000  MTX2000    -0.0887
      7  C4A       31.8930  -41.0710   -7.9590 C.2   2000  MTX2000     0.2518
      8  N5        32.8760  -41.1230   -8.9680 N.2   2000  MTX2000    -0.3917
      9  C6        34.1960  -41.2030   -8.5680 C.2   2000  MTX2000     0.1330
     10  C7        34.5030  -41.1460   -7.1800 C.3   2000  MTX2000     0.1930
     11  N8        33.5360  -41.0230   -6.1650 N.2   2000  MTX2000    -0.1998
     12  C8A       32.2290  -41.0310   -6.6080 C.1   2000  MTX2000     0.1314
     13  C9        35.1910  -41.3710   -9.6690 C.3   2000  MTX2000     0.1481
     14  N10       36.4790  -40.9060   -9.3520 N.pl3 2000  MTX2000    -0.2999
     15  CM        36.5650  -39.4700   -9.2840 C.3   2000  MTX2000     0.1125
     16  C11       39.9150  -43.2690   -8.9880 C.ar  2000  MTX2000     0.0551
     17  C12       38.6770  -43.8960   -9.1290 C.ar  2000  MTX2000     0.0058
     18  C13       37.4870  -43.0790   -9.2530 C.ar  2000  MTX2000     0.0147
     19  C14       37.6680  -41.7150   -9.2070 C.ar  2000  MTX2000     0.0482
     20  C15       38.8870  -41.0740   -9.1590 C.ar  2000  MTX2000     0.0147
     21  C16       40.0700  -41.8740   -9.0010 C.ar  2000  MTX2000     0.0058
     22  C         41.1870  -44.1140   -8.8370 C.2   2000  MTX2000     0.2652
     23  O         42.3360  -43.4150   -9.0860 O.2   2000  MTX2000    -0.2684
     24  N         41.1010  -45.3490   -8.4100 N.am  2000  MTX2000    -0.1918
     25  CA        42.2510  -46.2710   -8.3730 C.3   2000  MTX2000     0.1986
     26  CT        41.8480  -47.5650   -8.9870 C.2   2000  MTX2000     0.3842
     27  O1        42.7520  -48.3190   -9.3680 O.co2 2000  MTX2000    -0.2437
     28  O2        40.6430  -47.9000   -9.1860 O.co2 2000  MTX2000    -0.2437
     29  CB        42.7700  -46.6010   -6.9710 C.3   2000  MTX2000     0.0451
     30  CG        43.2080  -45.3770   -6.2520 C.3   2000  MTX2000     0.1164
     31  CD        41.9370  -44.8760   -5.5320 C.2   2000  MTX2000     0.3649
     32  OE1       41.1480  -45.6700   -4.8640 O.co2 2000  MTX2000    -0.2457
     33  OE2       41.7090  -43.6450   -5.6120 O.co2 2000  MTX2000    -0.2457
@<TRIPOS>BOND
     1    13    14    1
     2    13     9    1
     3     6     5    1
     4    27    26   ar
     5    14    15    1
     6    14    19    1
     7    18    19   ar
     8    18    17   ar
     9    19    20   ar
    10    28    26   ar
    11    20    21   ar
    12    17    16   ar
    13    23    22    2
    14    21    16   ar
    15    16    22    1
    16    26    25    1
    17     8     9    2
    18     8     7    2
    19    22    24   am
    20     9    10    1
    21    24    25    1
    22    25    29    1
    23     5     7    1
    24     5     4    2
    25     7    12    1
    26     4     2    2
    27    10    11    1
    28    29    30    1
    29    12    11    2
    30    12     1    2
    31    30    31    1
    32     2     1    2
    33     2     3    1
    34    33    31   ar
    35    31    32   ar
