@<TRIPOS>MOLECULE
3qxv_MTX_A_1.pdb
 33 35 0 0 0
SMALL
GASTEIGER

@<TRIPOS>ATOM
      1  N1       -15.6020   15.5650  -27.8170 N.2   2000  MTX2000    -0.2684
      2  C2       -15.5690   16.7660  -27.1480 C.1   2000  MTX2000     0.2519
      3  NA2      -14.4450   17.1250  -26.5150 N.pl3 2000  MTX2000    -0.0226
      4  N3       -16.6700   17.6050  -27.1880 N.2   2000  MTX2000    -0.3033
      5  C4       -17.8300   17.2030  -27.8580 C.2   2000  MTX2000     0.2728
      6  NA4      -18.8800   18.0280  -27.8940 N.pl3 2000  MTX2000    -0.0887
      7  C4A      -17.8650   15.9670  -28.5200 C.2   2000  MTX2000     0.2518
      8  N5       -18.9970   15.5370  -29.1990 N.2   2000  MTX2000    -0.3917
      9  C6       -19.0150   14.3040  -29.8070 C.2   2000  MTX2000     0.1330
     10  C7       -17.8700   13.5030  -29.7700 C.3   2000  MTX2000     0.1930
     11  N8       -16.7380   13.9310  -29.1010 N.2   2000  MTX2000    -0.1998
     12  C8A      -16.7440   15.1490  -28.4670 C.1   2000  MTX2000     0.1314
     13  C9       -20.2580   13.8380  -30.5450 C.3   2000  MTX2000     0.1481
     14  N10      -19.9840   12.6620  -31.3510 N.pl3 2000  MTX2000    -0.2999
     15  CM       -19.4140   12.8830  -32.6860 C.3   2000  MTX2000     0.1125
     16  C11      -22.6070    9.3810  -31.2990 C.ar  2000  MTX2000     0.0551
     17  C12      -21.7120    9.5530  -32.3510 C.ar  2000  MTX2000     0.0058
     18  C13      -20.8540   10.6420  -32.3520 C.ar  2000  MTX2000     0.0147
     19  C14      -20.8760   11.5550  -31.2860 C.ar  2000  MTX2000     0.0482
     20  C15      -21.7790   11.3650  -30.2290 C.ar  2000  MTX2000     0.0147
     21  C16      -22.4450   10.1400  -30.1380 C.ar  2000  MTX2000     0.0058
     22  C        -23.5350    8.1990  -31.3430 C.2   2000  MTX2000     0.2652
     23  O        -24.3890    7.9850  -32.4520 O.2   2000  MTX2000    -0.2684
     24  N        -23.5030    7.3440  -30.3470 N.am  2000  MTX2000    -0.1918
     25  CA       -22.8890    6.0590  -30.5930 C.3   2000  MTX2000     0.1986
     26  CT       -22.2780    5.5640  -29.3200 C.2   2000  MTX2000     0.3842
     27  O1       -21.5410    6.3200  -28.6410 O.co2 2000  MTX2000    -0.2437
     28  O2       -22.5350    4.4010  -28.9330 O.co2 2000  MTX2000    -0.2437
     29  CB       -21.9280    6.1180  -31.7980 C.3   2000  MTX2000     0.0451
     30  CG       -20.4240    6.0680  -31.5290 C.3   2000  MTX2000     0.1164
     31  CD       -19.9930    4.7450  -30.9260 C.2   2000  MTX2000     0.3649
     32  OE1      -19.3270    4.7340  -29.8630 O.co2 2000  MTX2000    -0.2457
     33  OE2      -20.3010    3.6470  -31.4540 O.co2 2000  MTX2000    -0.2457
@<TRIPOS>BOND
     1    15    14    1
     2    23    22    2
     3    18    17   ar
     4    18    19   ar
     5    17    16   ar
     6    29    30    1
     7    29    25    1
     8    30    31    1
     9    33    31   ar
    10    14    19    1
    11    14    13    1
    12    22    16    1
    13    22    24   am
    14    16    21   ar
    15    19    20   ar
    16    31    32   ar
    17    25    24    1
    18    25    26    1
    19    13     9    1
    20    20    21   ar
    21     9    10    1
    22     9     8    2
    23    10    11    1
    24    26    28   ar
    25    26    27   ar
    26     8     7    2
    27    11    12    2
    28     7    12    1
    29     7     5    1
    30    12     1    2
    31     6     5    1
    32     5     4    2
    33     1     2    2
    34     4     2    2
    35     2     3    1
