@<TRIPOS>MOLECULE
3qxx_GDP_A_1.pdb
 28 30 0 0 0
SMALL
GASTEIGER

@<TRIPOS>ATOM
      1  PB        10.2720  -26.5580  -21.7780 P.3   222  GDP222      0.5373
      2  O1B        8.8940  -27.1880  -21.8810 O.3   222  GDP222     -0.1143
      3  O2B       10.5490  -25.4520  -22.7760 O.2   222  GDP222     -0.2221
      4  O3B       10.6460  -26.1200  -20.3340 O.3   222  GDP222     -0.1143
      5  O3A       11.3480  -27.7320  -22.1950 O.3   222  GDP222     -0.2261
      6  PA        12.0080  -28.8350  -21.3270 P.3   222  GDP222      0.2231
      7  O1A       11.0800  -29.3650  -20.3200 O.3   222  GDP222     -0.4370
      8  O2A       13.3500  -28.3830  -20.8370 O.2   222  GDP222     -0.5169
      9  O5'       12.3200  -29.9530  -22.4530 O.3   222  GDP222     -0.3111
     10  C5'       11.2900  -30.5860  -23.1950 C.3   222  GDP222      0.1813
     11  C4'       11.6710  -32.0660  -23.4440 C.3   222  GDP222      0.1799
     12  O4'       12.8560  -32.0620  -24.2350 O.3   222  GDP222     -0.3326
     13  C3'       11.9980  -32.8040  -22.1660 C.3   222  GDP222      0.2158
     14  O3'       11.4690  -34.1310  -22.3150 O.3   222  GDP222     -0.2175
     15  C2'       13.5120  -32.8300  -22.1270 C.3   222  GDP222      0.2310
     16  O2'       14.0500  -33.9220  -21.3690 O.3   222  GDP222     -0.2158
     17  C1'       13.8200  -32.8410  -23.6090 C.3   222  GDP222      0.2293
     18  N9        15.1450  -32.2560  -23.8580 N.pl3 222  GDP222     -0.2354
     19  C8        15.5640  -30.9870  -23.5920 C.3   222  GDP222      0.2246
     20  N7        16.8440  -30.8570  -24.0010 N.2   222  GDP222     -0.2322
     21  C5        17.2040  -32.1010  -24.5250 C.2   222  GDP222      0.2182
     22  C6        18.3680  -32.7680  -25.1700 C.1   222  GDP222      0.2372
     23  O6        19.4320  -32.1140  -25.2970 O.2   222  GDP222     -0.2069
     24  N1        18.2670  -34.0460  -25.6490 N.2   222  GDP222     -0.2485
     25  C2        17.1460  -34.7880  -25.5660 C.1   222  GDP222      0.2531
     26  N2        17.1060  -36.0710  -26.0400 N.pl3 222  GDP222     -0.0226
     27  N3        16.0440  -34.2630  -24.9730 N.2   222  GDP222     -0.3074
     28  C4        16.0560  -32.9840  -24.4700 C.2   222  GDP222      0.2300
@<TRIPOS>BOND
     1    26    25    1
     2    24    25    2
     3    24    22    2
     4    25    27    2
     5    23    22    2
     6    22    21    1
     7    27    28    2
     8    21    28    1
     9    21    20    2
    10    28    18    1
    11    12    17    1
    12    12    11    1
    13    20    19    1
    14    18    17    1
    15    18    19    1
    16    17    15    1
    17    11    10    1
    18    11    13    1
    19    10     9    1
    20     3     1    2
    21     9     6    1
    22    14    13    1
    23     5     1    1
    24     5     6    1
    25    13    15    1
    26    15    16    1
    27     2     1    1
    28     1     4    1
    29     6     8    2
    30     6     7    1
