@<TRIPOS>MOLECULE
3qxx_8AC_A_1.pdb
 11 10 0 0 0
SMALL
GASTEIGER

@<TRIPOS>ATOM
      1  NAA        3.6640  -28.0420  -20.4900 N.3   221  8AC221     -0.1314
      2  OAB        0.8370  -20.8790  -26.9570 O.co2 221  8AC221     -0.2457
      3  OAC       -0.8710  -22.1600  -27.5190 O.co2 221  8AC221     -0.2457
      4  CAD        2.4990  -27.1670  -20.3150 C.3   221  8AC221      0.1093
      5  CAE        2.6670  -26.2470  -21.4650 C.3   221  8AC221      0.0205
      6  CAF        1.5370  -25.2700  -21.6710 C.3   221  8AC221      0.0015
      7  CAG        1.7710  -24.5590  -23.0320 C.3   221  8AC221      0.0001
      8  CAH        0.7240  -23.4900  -23.3370 C.3   221  8AC221      0.0006
      9  CAI        0.8750  -23.0270  -24.8300 C.3   221  8AC221      0.0118
     10  CAJ       -0.2280  -22.0560  -25.1850 C.3   221  8AC221      0.1141
     11  CAK       -0.0860  -21.6530  -26.7030 C.2   221  8AC221      0.3649
@<TRIPOS>BOND
     1     3    11   ar
     2     2    11   ar
     3    11    10    1
     4    10     9    1
     5     9     8    1
     6     8     7    1
     7     7     6    1
     8     6     5    1
     9     5     4    1
    10     1     4    1
