@<TRIPOS>MOLECULE
3qxy_SAM_A_1.pdb
 27 29 0 0 0
SMALL
GASTEIGER

@<TRIPOS>ATOM
      1  N         65.9440   19.6040    8.2480 N.3   6734  SAM6734    -0.1208
      2  CA        66.5850   20.6920    8.9770 C.3   6734  SAM6734     0.1952
      3  C         67.5470   21.4690    8.0820 C.2   6734  SAM6734     0.3819
      4  O         67.7200   21.1320    6.9130 O.co2 6734  SAM6734    -0.2441
      5  OXT       68.1440   22.4710    8.4890 O.co2 6734  SAM6734    -0.2441
      6  CB        67.2340   20.2010   10.2710 C.3   6734  SAM6734     0.0414
      7  CG        66.2450   20.1620   11.4490 C.3   6734  SAM6734     0.0503
      8  SD        65.8570   21.8170   12.1000 S.3   6734  SAM6734    -0.1761
      9  CE        66.2860   21.6150   13.8530 C.3   6734  SAM6734     0.0590
     10  C5'       64.0460   21.8760   12.2560 C.3   6734  SAM6734     0.0806
     11  C4'       63.3910   22.1120   10.9010 C.3   6734  SAM6734     0.1622
     12  O4'       63.4950   20.9280   10.1280 O.3   6734  SAM6734    -0.3153
     13  C3'       61.9170   22.4340   10.9910 C.3   6734  SAM6734     0.2168
     14  O3'       61.7280   23.8260   11.0320 O.3   6734  SAM6734    -0.2175
     15  C2'       61.3800   21.8770    9.7000 C.3   6734  SAM6734     0.2569
     16  O2'       61.6570   22.7620    8.6340 O.3   6734  SAM6734    -0.2130
     17  C1'       62.2710   20.6870    9.4600 C.3   6734  SAM6734     0.3185
     18  N9        61.6880   19.4260    9.9630 N.pl3 6734  SAM6734    -0.1439
     19  C8        62.0140   18.7730   11.1150 C.3   6734  SAM6734     0.3377
     20  N7        61.2890   17.6410   11.1890 N.2   6734  SAM6734    -0.2095
     21  C5        60.4730   17.5840   10.1090 C.2   6734  SAM6734     0.2526
     22  C6        59.5240   16.6680    9.6860 C.2   6734  SAM6734     0.4393
     23  N6        59.2390   15.5690   10.3880 N.pl3 6734  SAM6734     0.2180
     24  N1        58.8750   16.9030    8.4940 N.2   6734  SAM6734     0.0021
     25  C2        59.1430   18.0250    7.7390 C.3   6734  SAM6734     0.5254
     26  N3        60.0820   18.9310    8.1740 N.2   6734  SAM6734    -0.0055
     27  C4        60.7360   18.6980    9.3250 C.2   6734  SAM6734     0.3518
@<TRIPOS>BOND
     1     4     3   ar
     2    25    26    1
     3    25    24    1
     4     3     5   ar
     5     3     2    1
     6    26    27    2
     7     1     2    1
     8    24    22    2
     9    16    15    1
    10     2     6    1
    11    27    18    1
    12    27    21    1
    13    17    15    1
    14    17    18    1
    15    17    12    1
    16    22    21    1
    17    22    23    1
    18    15    13    1
    19    18    19    1
    20    21    20    2
    21    12    11    1
    22     6     7    1
    23    11    13    1
    24    11    10    1
    25    13    14    1
    26    19    20    1
    27     7     8    1
    28     8    10    1
    29     8     9    1
