@<TRIPOS>MOLECULE
3qy0_GDP_A_1.pdb
 17 17 0 0 0
SMALL
GASTEIGER

@<TRIPOS>ATOM
      1  PB        10.5090  -26.1750  -21.5660 P.3   221  GDP221      0.5373
      2  O1B        9.0850  -26.7710  -21.6310 O.3   221  GDP221     -0.1143
      3  O2B       10.7160  -25.1260  -22.5680 O.2   221  GDP221     -0.2221
      4  O3B       10.7240  -25.7240  -20.1100 O.3   221  GDP221     -0.1143
      5  O3A       11.4680  -27.3350  -21.9110 O.3   221  GDP221     -0.2261
      6  PA        12.1570  -28.4100  -21.0260 P.3   221  GDP221      0.2231
      7  O1A       11.2260  -28.9060  -19.9060 O.3   221  GDP221     -0.4370
      8  O2A       13.5800  -28.0970  -20.5250 O.2   221  GDP221     -0.5169
      9  O5'       12.3840  -29.5930  -22.1730 O.3   221  GDP221     -0.3111
     10  C5'       11.3320  -30.3820  -22.7590 C.3   221  GDP221      0.1812
     11  C4'       11.8590  -31.8100  -23.0120 C.3   221  GDP221      0.1780
     12  O4'       13.0510  -31.7110  -23.8590 O.3   221  GDP221     -0.3482
     13  C3'       12.2900  -32.4720  -21.6950 C.3   221  GDP221      0.2140
     14  O3'       11.9270  -33.8820  -21.5460 O.3   221  GDP221     -0.2176
     15  C2'       13.8200  -32.2590  -21.6950 C.3   221  GDP221      0.2140
     16  O2'       14.5380  -33.3000  -21.0000 O.3   221  GDP221     -0.2176
     17  C1'       14.2540  -32.0430  -23.1480 C.3   221  GDP221      0.1777
@<TRIPOS>BOND
     1    12    17    1
     2    12    11    1
     3    17    15    1
     4    11    10    1
     5    11    13    1
     6    10     9    1
     7     3     1    2
     8     9     6    1
     9     5     1    1
    10     5     6    1
    11    13    15    1
    12    13    14    1
    13    15    16    1
    14     2     1    1
    15     1     4    1
    16     6     8    2
    17     6     7    1
