@<TRIPOS>MOLECULE
3qyi_Q23_A_1.pdb
 17 18 0 0 0
SMALL
GASTEIGER

@<TRIPOS>ATOM
      1  C1         8.6610   -6.7730   29.2110 C.3   360  Q23360      0.1827
      2  O1         8.4930   -7.6620   26.5910 O.2   360  Q23360     -0.1729
      3  S1         8.7710   -6.4400   27.4180 S.O2  360  Q23360     -0.0074
      4  C2        10.5270   -5.9360   27.3300 C.3   360  Q23360      0.1536
      5  O2         7.9020   -5.2970   26.9890 O.2   360  Q23360     -0.1729
      6  S2        10.4840   -5.6850   31.6130 S.3   360  Q23360      0.0130
      7  C3        10.8680   -5.7590   28.8250 C.3   360  Q23360      0.0591
      8  O3        10.4330   -6.9730   30.9760 O.3   360  Q23360     -0.2392
      9  C4        10.1640   -6.9400   29.5400 C.3   360  Q23360      0.1688
     10  O4         9.1560   -4.9960   31.4310 O.3   360  Q23360     -0.0673
     11  C5        10.8010   -5.8370   33.3690 C.ar  360  Q23360      0.1096
     12  O5        11.5650   -4.8690   30.9800 O.3   360  Q23360     -0.0673
     13  C6         9.8600   -6.4300   34.2170 C.ar  360  Q23360      0.0188
     14  C7        10.1050   -6.5430   35.5900 C.ar  360  Q23360      0.0013
     15  C8        11.2930   -6.0640   36.1260 C.ar  360  Q23360      0.0001
     16  C9        12.2350   -5.4710   35.2900 C.ar  360  Q23360      0.0013
     17  C10       11.9910   -5.3550   33.9220 C.ar  360  Q23360      0.0188
@<TRIPOS>BOND
     1     2     3    2
     2     5     3    2
     3     4     3    1
     4     4     7    1
     5     3     1    1
     6     7     9    1
     7     1     9    1
     8     9     8    1
     9     8     6    1
    10    12     6    1
    11    10     6    1
    12     6    11    1
    13    11    17   ar
    14    11    13   ar
    15    17    16   ar
    16    13    14   ar
    17    16    15   ar
    18    14    15   ar
