@<TRIPOS>MOLECULE
3qyk_IE2_A_1.pdb
 24 27 0 0 0
SMALL
GASTEIGER

@<TRIPOS>ATOM
      1  CAA       -0.3330    2.2210    9.5130 C.3   263  IE2263      0.0664
      2  NAB       -5.3420   -0.3020   16.2060 N.3   263  IE2263      0.0392
      3  OAC       -5.4020    1.1820   18.2780 O.2   263  IE2263     -0.1503
      4  OAD       -7.3310    1.1510   16.7690 O.2   263  IE2263     -0.1503
      5  CAE       -2.1170    2.9080   11.2380 C.2   263  IE2263      0.0238
      6  CAF       -3.1040    3.6890   15.3120 C.ar  263  IE2263      0.0205
      7  CAG       -5.3520    4.6060   15.1810 C.ar  263  IE2263      0.0205
      8  CAH       -3.7420    2.5680   15.9060 C.ar  263  IE2263      0.0216
      9  CAI       -6.0240    3.5270   15.7820 C.ar  263  IE2263      0.0216
     10  CAJ       -2.5890    3.8020   12.2120 C.2   263  IE2263     -0.0107
     11  CAK       -2.4380    7.7700   14.6300 C.ar  263  IE2263      0.1183
     12  CAL       -0.6670    7.7530   12.6860 C.3   263  IE2263      0.0934
     13  NAM       -3.2650    6.8790   15.1870 N.ar  263  IE2263     -0.1641
     14  NAN       -0.1480    4.2300   10.9130 N.2   263  IE2263     -0.4037
     15  SAO        0.4490    6.4260   12.1090 S.3   263  IE2263     -0.0812
     16  CAP       -0.9010    3.1470   10.5980 C.2   263  IE2263      0.1094
     17  CAQ       -3.9470    4.7770   14.9400 C.ar  263  IE2263      0.0825
     18  CAR       -5.1510    2.4590   16.1160 C.ar  263  IE2263      0.1251
     19  CAS       -1.8040    7.2530   13.5930 C.ar  263  IE2263      0.0243
     20  CAT       -1.8550    4.9400   12.5900 C.3   263  IE2263      0.1202
     21  CAU       -0.6420    5.0580   11.8590 C.2   263  IE2263      0.1435
     22  CAV       -2.2840    5.9420   13.4960 C.ar  263  IE2263      0.0698
     23  NAW       -3.1570    5.8170   14.5060 N.ar  263  IE2263     -0.2332
     24  SAX       -5.8860    1.0510   16.9160 S.O2  263  IE2263      0.0935
@<TRIPOS>BOND
     1     1    16    1
     2    16    14    2
     3    16     5    1
     4    14    21    2
     5     5    10    2
     6    21    15    1
     7    21    20    1
     8    15    12    1
     9    10    20    1
    10    20    22    1
    11    12    19    1
    12    22    19   ar
    13    22    23   ar
    14    19    11   ar
    15    23    17    1
    16    23    13   ar
    17    11    13   ar
    18    17     7   ar
    19    17     6   ar
    20     7     9   ar
    21     6     8   ar
    22     9    18   ar
    23     8    18   ar
    24    18    24    1
    25     2    24    1
    26     4    24    2
    27    24     3    2
