@<TRIPOS>MOLECULE
3qyl_NDP_A_1.pdb
 48 52 0 0 0
SMALL
GASTEIGER

@<TRIPOS>ATOM
      1  PA         4.3900    7.9010  -15.4150 P.3   161  NDP161      0.2189
      2  O1A        3.7690    7.1140  -14.2880 O.3   161  NDP161     -0.4371
      3  O2A        5.6060    7.3750  -16.1230 O.2   161  NDP161     -0.5170
      4  O5B        4.7660    9.3540  -14.8670 O.3   161  NDP161     -0.3112
      5  C5B        5.3050   10.3380  -15.7470 C.3   161  NDP161      0.1813
      6  C4B        5.5920   11.5410  -14.8720 C.3   161  NDP161      0.1820
      7  O4B        6.7490   11.2600  -14.0690 O.3   161  NDP161     -0.3136
      8  C3B        5.9500   12.7780  -15.6910 C.3   161  NDP161      0.2157
      9  O3B        4.7870   13.5350  -16.0520 O.3   161  NDP161     -0.2175
     10  C2B        6.9110   13.5410  -14.7830 C.3   161  NDP161      0.2314
     11  O2B        6.1860   14.2910  -13.8080 O.3   161  NDP161     -0.2630
     12  C1B        7.6270   12.3980  -14.0520 C.3   161  NDP161      0.3158
     13  N9A        8.8890   12.0380  -14.7420 N.pl3 161  NDP161     -0.1439
     14  C8A        9.0920   10.9970  -15.5910 C.3   161  NDP161      0.3377
     15  N7A       10.3910   11.0010  -15.9870 N.2   161  NDP161     -0.2095
     16  C5A       11.0000   12.0520  -15.3730 C.2   161  NDP161      0.2526
     17  C6A       12.3080   12.5600  -15.3810 C.2   161  NDP161      0.4393
     18  N6A       13.3030   11.9470  -16.0820 N.pl3 161  NDP161      0.2180
     19  N1A       12.5880   13.6600  -14.6370 N.2   161  NDP161      0.0021
     20  C2A       11.6310   14.2570  -13.9040 C.3   161  NDP161      0.5254
     21  N3A       10.3540   13.8060  -13.8910 N.2   161  NDP161     -0.0055
     22  C4A       10.0380   12.6880  -14.5940 C.2   161  NDP161      0.3518
     23  O3         3.1700    8.2880  -16.4310 O.3   161  NDP161     -0.2703
     24  PN         2.5360    7.4330  -17.6330 P.3   161  NDP161      0.2189
     25  O1N        3.5510    7.1830  -18.7220 O.2   161  NDP161     -0.5170
     26  O2N        1.3060    8.2120  -18.0280 O.3   161  NDP161     -0.4371
     27  O5D        2.1480    6.0220  -16.9560 O.3   161  NDP161     -0.3112
     28  C5D        1.0760    5.9170  -16.0140 C.3   161  NDP161      0.1813
     29  C4D        0.1500    4.8170  -16.5090 C.3   161  NDP161      0.1799
     30  O4D        0.8550    3.5780  -16.3870 O.3   161  NDP161     -0.3327
     31  C3D       -1.1510    4.6870  -15.7000 C.3   161  NDP161      0.2158
     32  O3D       -2.1710    4.2880  -16.6280 O.3   161  NDP161     -0.2175
     33  C2D       -0.8850    3.4810  -14.8190 C.3   161  NDP161      0.2309
     34  O2D       -2.0850    2.7910  -14.4400 O.3   161  NDP161     -0.2158
     35  C1D        0.0560    2.6340  -15.6990 C.3   161  NDP161      0.2263
     36  N1N        0.9190    1.7130  -14.9700 N.pl3 161  NDP161     -0.2787
     37  C2N        0.8690    0.4140  -15.3350 C.3   161  NDP161      0.1244
     38  C3N        1.6410   -0.5420  -14.6880 C.2   161  NDP161      0.0544
     39  C7N        1.5320   -1.9860  -15.0910 C.2   161  NDP161      0.2818
     40  O7N        2.3680   -2.7750  -14.6470 O.2   161  NDP161     -0.2670
     41  N7N        0.5700   -2.3710  -15.8490 N.am  161  NDP161     -0.0839
     42  C4N        2.5040   -0.1350  -13.6500 C.2   161  NDP161      0.0033
     43  C5N        2.5550    1.2290  -13.3060 C.2   161  NDP161      0.0157
     44  C6N        1.7590    2.1420  -14.0010 C.2   161  NDP161      0.0633
     45  P2B        5.8760   15.8770  -13.9030 P.3   161  NDP161      0.5328
     46  O1X        7.1830   16.4900  -14.3390 O.3   161  NDP161     -0.1145
     47  O2X        5.4160   16.2720  -12.5430 O.3   161  NDP161     -0.1145
     48  O3X        4.7760   15.9360  -14.9510 O.2   161  NDP161     -0.2224
@<TRIPOS>BOND
     1    25    24    2
     2    26    24    1
     3    24    27    1
     4    24    23    1
     5    27    28    1
     6    32    31    1
     7    29    30    1
     8    29    28    1
     9    29    31    1
    10    23     1    1
    11    30    35    1
    12     3     1    2
    13    18    17    1
    14     9     8    1
    15    15    14    1
    16    15    16    2
    17    41    39   am
    18     5     6    1
    19     5     4    1
    20    31    33    1
    21    35    36    1
    22    35    33    1
    23     8     6    1
    24     8    10    1
    25    14    13    1
    26     1     4    1
    27     1     2    1
    28    17    16    1
    29    17    19    2
    30    16    22    1
    31    37    36    1
    32    37    38    1
    33    39    38    1
    34    39    40    2
    35    36    44    1
    36    48    45    2
    37     6     7    1
    38    33    34    1
    39    10    12    1
    40    10    11    1
    41    13    22    1
    42    13    12    1
    43    38    42    2
    44    19    20    1
    45    22    21    2
    46    46    45    1
    47     7    12    1
    48    44    43    2
    49    20    21    1
    50    45    11    1
    51    45    47    1
    52    42    43    1
