@<TRIPOS>MOLECULE
3qyl_7ME_A_1.pdb
 13 14 0 0 0
SMALL
GASTEIGER

@<TRIPOS>ATOM
      1  N1         2.0410   -5.1480  -10.9380 N.2   160  7ME160     -0.3342
      2  C2         3.1590   -5.4160  -11.6450 C.1   160  7ME160      0.2418
      3  N3         4.0720   -4.4390  -11.8520 N.2   160  7ME160     -0.3115
      4  C4         3.8720   -3.1750  -11.3750 C.2   160  7ME160      0.2160
      5  C5         2.5210   -1.5010  -10.0220 C.3   160  7ME160      0.0153
      6  C6         1.5550   -1.4920   -8.8420 C.3   160  7ME160      0.0013
      7  C7         0.3010   -2.3220   -9.0510 C.3   160  7ME160      0.0067
      8  C8         0.5780   -3.7510   -9.5260 C.3   160  7ME160      0.0559
      9  C13       -0.5780   -2.3010   -7.8010 C.3   160  7ME160      0.0004
     10  C4A        2.7520   -2.9000  -10.5740 C.3   160  7ME160      0.1199
     11  C8A        1.8300   -3.9190  -10.3720 C.2   160  7ME160      0.1081
     12  NA2        3.3410   -6.6780  -12.1380 N.pl3 160  7ME160     -0.0232
     13  NA4        4.8090   -2.2280  -11.6300 N.pl3 160  7ME160     -0.0965
@<TRIPOS>BOND
     1    12     2    1
     2     3     2    2
     3     3     4    2
     4     2     1    2
     5    13     4    1
     6     4    10    1
     7     1    11    2
     8    10    11    1
     9    10     5    1
    10    11     8    1
    11     5     6    1
    12     8     7    1
    13     7     6    1
    14     7     9    1
