@<TRIPOS>MOLECULE
3qyo_Q24_A_1.pdb
 12 13 0 0 0
SMALL
GASTEIGER

@<TRIPOS>ATOM
      1  N1         1.9310   -5.2360  -10.9840 N.2   161  Q24161     -0.3298
      2  C2         3.1210   -5.4320  -11.7190 C.1   161  Q24161      0.2424
      3  N3         4.0440   -4.3660  -11.8750 N.2   161  Q24161     -0.3072
      4  C4         3.7920   -3.1180  -11.3710 C.2   161  Q24161      0.2349
      5  C5         2.4690   -1.3620  -10.0130 C.2   161  Q24161      0.0059
      6  C6         1.3400   -1.3580   -8.9330 C.2   161  Q24161     -0.0039
      7  C7         0.2470   -2.4860   -8.6000 C.2   161  Q24161     -0.0186
      8  C8         0.2980   -3.7920   -9.5390 C.3   161  Q24161      0.0861
      9  C4A        2.6080   -2.7480  -10.5650 C.2   161  Q24161      0.0746
     10  C8A        1.6370   -3.9190  -10.3940 C.2   161  Q24161      0.1308
     11  NA2        3.3660   -6.5690  -12.1910 N.pl3 161  Q24161     -0.0232
     12  NA4        4.7190   -2.2610  -11.6460 N.pl3 161  Q24161     -0.0920
@<TRIPOS>BOND
     1    11     2    1
     2     3     2    2
     3     3     4    2
     4     2     1    2
     5    12     4    1
     6     4     9    1
     7     1    10    2
     8     9    10    1
     9     9     5    2
    10    10     8    1
    11     5     6    1
    12     8     7    1
    13     6     7    2
