@<TRIPOS>MOLECULE
3qyo_NDP_A_1.pdb
 48 52 0 0 0
SMALL
GASTEIGER

@<TRIPOS>ATOM
      1  PA         4.4020    8.0320  -15.3650 P.3   1160  NDP1160     0.2189
      2  O1A        3.7640    7.2980  -14.2110 O.3   1160  NDP1160    -0.4371
      3  O2A        5.5590    7.4170  -16.1120 O.2   1160  NDP1160    -0.5170
      4  O5B        4.8670    9.4620  -14.8120 O.3   1160  NDP1160    -0.3112
      5  C5B        5.4550   10.4140  -15.6880 C.3   1160  NDP1160     0.1813
      6  C4B        5.7420   11.6410  -14.8370 C.3   1160  NDP1160     0.1820
      7  O4B        6.8820   11.3830  -14.0020 O.3   1160  NDP1160    -0.3136
      8  C3B        6.1150   12.8470  -15.6910 C.3   1160  NDP1160     0.2157
      9  O3B        4.9810   13.6140  -16.1130 O.3   1160  NDP1160    -0.2175
     10  C2B        7.0680   13.6170  -14.7950 C.3   1160  NDP1160     0.2314
     11  O2B        6.3530   14.3430  -13.7840 O.3   1160  NDP1160    -0.2630
     12  C1B        7.7830   12.4900  -14.0790 C.3   1160  NDP1160     0.3158
     13  N9A        9.0150   12.1320  -14.8180 N.pl3 1160  NDP1160    -0.1439
     14  C8A        9.2090   11.0760  -15.6310 C.3   1160  NDP1160     0.3377
     15  N7A       10.5080   11.0620  -16.0200 N.2   1160  NDP1160    -0.2095
     16  C5A       11.1190   12.1200  -15.4230 C.2   1160  NDP1160     0.2526
     17  C6A       12.4330   12.5910  -15.3900 C.2   1160  NDP1160     0.4393
     18  N6A       13.3980   11.9750  -16.1100 N.pl3 1160  NDP1160     0.2180
     19  N1A       12.7270   13.6810  -14.6310 N.2   1160  NDP1160     0.0021
     20  C2A       11.7750   14.2920  -13.8970 C.3   1160  NDP1160     0.5254
     21  N3A       10.5140   13.8310  -13.8670 N.2   1160  NDP1160    -0.0055
     22  C4A       10.1760   12.7530  -14.6250 C.2   1160  NDP1160     0.3518
     23  O3         3.2360    8.4640  -16.4140 O.3   1160  NDP1160    -0.2703
     24  PN         2.6050    7.6070  -17.6370 P.3   1160  NDP1160     0.2189
     25  O1N        3.6540    7.2580  -18.6640 O.2   1160  NDP1160    -0.5170
     26  O2N        1.3820    8.3960  -18.0590 O.3   1160  NDP1160    -0.4371
     27  O5D        2.1790    6.2030  -16.9480 O.3   1160  NDP1160    -0.3112
     28  C5D        1.1090    6.0830  -16.0060 C.3   1160  NDP1160     0.1813
     29  C4D        0.1760    4.9650  -16.4520 C.3   1160  NDP1160     0.1799
     30  O4D        0.8430    3.6960  -16.4180 O.3   1160  NDP1160    -0.3327
     31  C3D       -1.0900    4.8430  -15.5980 C.3   1160  NDP1160     0.2158
     32  O3D       -2.1580    4.5180  -16.5040 O.3   1160  NDP1160    -0.2175
     33  C2D       -0.8260    3.6180  -14.7330 C.3   1160  NDP1160     0.2309
     34  O2D       -2.0320    2.9230  -14.4040 O.3   1160  NDP1160    -0.2158
     35  C1D        0.0360    2.7770  -15.6650 C.3   1160  NDP1160     0.2263
     36  N1N        0.8520    1.8330  -14.9150 N.pl3 1160  NDP1160    -0.2787
     37  C2N        0.7930    0.5470  -15.2970 C.3   1160  NDP1160     0.1244
     38  C3N        1.5460   -0.4240  -14.6420 C.2   1160  NDP1160     0.0544
     39  C7N        1.4770   -1.8490  -15.0850 C.2   1160  NDP1160     0.2818
     40  O7N        2.3750   -2.5700  -14.6720 O.2   1160  NDP1160    -0.2670
     41  N7N        0.5330   -2.2490  -15.8600 N.am  1160  NDP1160    -0.0839
     42  C4N        2.3840   -0.0320  -13.5860 C.2   1160  NDP1160     0.0033
     43  C5N        2.4350    1.3130  -13.2320 C.2   1160  NDP1160     0.0157
     44  C6N        1.6790    2.2430  -13.9360 C.2   1160  NDP1160     0.0633
     45  P2B        6.0660   15.9350  -13.8890 P.3   1160  NDP1160     0.5328
     46  O1X        7.3680   16.5550  -14.3280 O.3   1160  NDP1160    -0.1145
     47  O2X        5.6400   16.2480  -12.4650 O.3   1160  NDP1160    -0.1145
     48  O3X        4.9560   16.0190  -14.8870 O.2   1160  NDP1160    -0.2224
@<TRIPOS>BOND
     1    25    24    2
     2    26    24    1
     3    24    27    1
     4    24    23    1
     5    27    28    1
     6    32    31    1
     7    29    30    1
     8    29    28    1
     9    29    31    1
    10    30    35    1
    11    23     1    1
    12     9     8    1
    13     3     1    2
    14    18    17    1
    15    15    14    1
    16    15    16    2
    17    41    39   am
    18     8     6    1
    19     8    10    1
    20     5     6    1
    21     5     4    1
    22    35    36    1
    23    35    33    1
    24    14    13    1
    25    31    33    1
    26    16    17    1
    27    16    22    1
    28    17    19    2
    29     1     4    1
    30     1     2    1
    31    37    36    1
    32    37    38    1
    33    39    40    2
    34    39    38    1
    35    36    44    1
    36    48    45    2
    37     6     7    1
    38    13    22    1
    39    13    12    1
    40    10    12    1
    41    10    11    1
    42    33    34    1
    43    38    42    2
    44    19    20    1
    45    22    21    2
    46    46    45    1
    47    12     7    1
    48    44    43    2
    49    20    21    1
    50    45    11    1
    51    45    47    1
    52    42    43    1
