@<TRIPOS>MOLECULE
3qyw_6PB_A_1.pdb
 17 19 0 0 0
SMALL
GASTEIGER

@<TRIPOS>ATOM
      1  N1       -17.4300   14.3800   42.3330 N.2   359  6PB359     -0.3230
      2  C2       -18.5670   13.6490   42.3930 C.1   359  6PB359      0.2505
      3  N2       -19.7550   14.2480   42.9010 N.pl3 359  6PB359     -0.0226
      4  N3       -18.5790   12.3740   41.9840 N.2   359  6PB359     -0.2694
      5  C4       -17.4250   11.8040   41.4930 C.1   359  6PB359      0.1188
      6  C5       -16.2510   12.5250   41.4230 C.2   359  6PB359      0.1829
      7  C6       -16.2670   13.8840   41.8640 C.2   359  6PB359      0.1728
      8  N7       -15.2960   11.6810   40.9060 N.2   359  6PB359     -0.2300
      9  C8       -15.8570   10.4780   40.6560 C.3   359  6PB359      0.2627
     10  N9       -17.1600   10.5400   41.0130 N.2   359  6PB359     -0.1807
     11  C61      -15.0640   14.7680   41.8580 C.ar  359  6PB359      0.0333
     12  C62      -15.2330   16.1410   41.7460 C.ar  359  6PB359      0.0093
     13  C63      -14.1240   16.9780   41.7540 C.ar  359  6PB359      0.0346
     14 BR63      -14.3880   18.8910   41.5870 Br    359  6PB359     -0.0490
     15  C64      -12.8390   16.4540   41.8870 C.ar  359  6PB359      0.0067
     16  C65      -12.6680   15.0820   42.0050 C.ar  359  6PB359      0.0006
     17  C66      -13.7780   14.2380   41.9990 C.ar  359  6PB359      0.0027
@<TRIPOS>BOND
     1     9     8    1
     2     9    10    1
     3     8     6    2
     4    10     5    2
     5     6     5    1
     6     6     7    1
     7     5     4    2
     8    14    13    1
     9    12    13   ar
    10    12    11   ar
    11    13    15   ar
    12    11     7    1
    13    11    17   ar
    14     7     1    2
    15    15    16   ar
    16     4     2    2
    17    17    16   ar
    18     1     2    2
    19     2     3    1
