@<TRIPOS>MOLECULE
3qyy_C2E_A_1.pdb
 46 52 0 0 0
SMALL
GASTEIGER

@<TRIPOS>ATOM
      1  P1        66.7230   25.1930   44.4860 P.3   487  C2E487      0.2141
      2  O2P       66.2450   24.9050   45.8830 O.3   487  C2E487     -0.4373
      3  O1P       65.6480   25.3720   43.4520 O.2   487  C2E487     -0.5172
      4  O5'       67.5990   26.5080   44.4360 O.3   487  C2E487     -0.3114
      5  C5'       68.1470   26.9600   43.1810 C.3   487  C2E487      0.1812
      6  C4'       68.9550   28.2170   43.4860 C.3   487  C2E487      0.1771
      7  O4'       68.2450   29.2580   44.1340 O.3   487  C2E487     -0.3327
      8  C3'       70.1490   27.9170   44.3890 C.3   487  C2E487      0.1857
      9  O3'       71.2480   27.4100   43.6300 O.3   487  C2E487     -0.3112
     10  C2'       70.3720   29.2500   45.0300 C.3   487  C2E487      0.2282
     11  O2'       71.2830   29.9990   44.2080 O.3   487  C2E487     -0.2159
     12  C1'       69.0220   29.9440   45.1130 C.3   487  C2E487      0.2292
     13  N9        68.4190   29.7450   46.4570 N.pl3 487  C2E487     -0.2354
     14  C8        67.3260   29.0080   46.7500 C.3   487  C2E487      0.2246
     15  N7        67.0370   29.0510   48.0670 N.2   487  C2E487     -0.2322
     16  C5        67.9450   29.8310   48.6430 C.2   487  C2E487      0.2182
     17  C6        68.2160   30.3130   50.0220 C.1   487  C2E487      0.2372
     18  O6        67.4710   29.9700   50.9730 O.2   487  C2E487     -0.2069
     19  N1        69.2770   31.1350   50.2260 N.2   487  C2E487     -0.2485
     20  C2        70.0970   31.5280   49.2140 C.1   487  C2E487      0.2531
     21  N2        71.1320   32.3460   49.4850 N.pl3 487  C2E487     -0.0226
     22  N3        69.9040   31.1150   47.9110 N.2   487  C2E487     -0.3074
     23  C4        68.8640   30.2850   47.5820 C.2   487  C2E487      0.2300
     24  P11       72.1450   26.3440   44.4360 P.3   487  C2E487      0.2141
     25  O21       72.6260   26.9380   45.7190 O.3   487  C2E487     -0.4373
     26  O11       73.2460   26.0000   43.4950 O.2   487  C2E487     -0.5172
     27  O5A       71.2940   25.0510   44.7360 O.3   487  C2E487     -0.3114
     28  C5A       70.7590   24.3230   43.6300 C.3   487  C2E487      0.1812
     29  C4A       69.9580   23.1570   44.1230 C.3   487  C2E487      0.1771
     30  O4A       70.6760   22.2850   45.0380 O.3   487  C2E487     -0.3327
     31  C3A       68.6810   23.5510   44.8640 C.3   487  C2E487      0.1857
     32  O3A       67.6180   23.9370   43.9700 O.3   487  C2E487     -0.3112
     33  C2A       68.4010   22.2960   45.6320 C.3   487  C2E487      0.2282
     34  O2A       67.6190   21.4150   44.8080 O.3   487  C2E487     -0.2159
     35  C1A       69.7570   21.6980   45.9680 C.3   487  C2E487      0.2292
     36  N91       70.1000   21.9680   47.3830 N.pl3 487  C2E487     -0.2354
     37  C81       70.7470   23.0380   47.9080 C.3   487  C2E487      0.2246
     38  N71       70.8700   22.9190   49.2520 N.2   487  C2E487     -0.2322
     39  C51       70.2950   21.7560   49.6040 C.2   487  C2E487      0.2182
     40  C61       70.0610   20.9930   50.8620 C.1   487  C2E487      0.2372
     41  O61       70.4460   21.4190   51.9650 O.2   487  C2E487     -0.2069
     42  N11       69.4090   19.8000   50.7850 N.2   487  C2E487     -0.2485
     43  C21       68.9650   19.2810   49.5980 C.1   487  C2E487      0.2531
     44  N21       68.3210   18.0870   49.5930 N.pl3 487  C2E487     -0.0226
     45  N31       69.1510   19.9340   48.4130 N.2   487  C2E487     -0.3074
     46  C41       69.7960   21.1480   48.3650 C.2   487  C2E487      0.2300
@<TRIPOS>BOND
     1     5     6    1
     2     5     4    1
     3     3     1    2
     4     6     7    1
     5     6     8    1
     6    26    24    2
     7     9     8    1
     8     9    24    1
     9    28    29    1
    10    28    27    1
    11    32     1    1
    12    32    31    1
    13    29    31    1
    14    29    30    1
    15     7    12    1
    16    11    10    1
    17     8    10    1
    18    24    27    1
    19    24    25    1
    20     4     1    1
    21     1     2    1
    22    34    33    1
    23    31    33    1
    24    10    12    1
    25    30    35    1
    26    12    13    1
    27    33    35    1
    28    35    36    1
    29    13    14    1
    30    13    23    1
    31    14    15    1
    32    36    37    1
    33    36    46    1
    34    23    22    2
    35    23    16    1
    36    37    38    1
    37    22    20    2
    38    15    16    2
    39    46    45    2
    40    46    39    1
    41    45    43    2
    42    16    17    1
    43    20    21    1
    44    20    19    2
    45    38    39    2
    46    44    43    1
    47    43    42    2
    48    39    40    1
    49    17    19    2
    50    17    18    2
    51    42    40    2
    52    40    41    2
