@<TRIPOS>MOLECULE
3qyz_Z8B_A_1.pdb
 22 24 0 0 0
SMALL
GASTEIGER

@<TRIPOS>ATOM
      1  N1       -18.0540   11.6510   41.0160 N.2   359  Z8B359      0.0030
      2  C2       -18.3950   12.8570   41.5400 C.3   359  Z8B359      0.5255
      3  N3       -17.5140   13.7930   41.7260 N.2   359  Z8B359     -0.0039
      4  C4       -16.1150   13.5770   41.3830 C.2   359  Z8B359      0.3694
      5  C5       -15.7610   12.3850   40.8450 C.2   359  Z8B359      0.3071
      6  C6       -16.7410   11.3790   40.6550 C.2   359  Z8B359      0.4517
      7  N6       -16.3720   10.1380   40.0980 N.pl3 359  Z8B359      0.2193
      8  N7       -14.4120   12.4210   40.6060 N.2   359  Z8B359     -0.3444
      9  C8       -13.9740   13.6190   40.9880 C.2   359  Z8B359      0.3130
     10 BR8       -12.1160   14.1760   40.8570 Br    359  Z8B359      0.0337
     11  N9       -14.9660   14.3460   41.4600 N.pl3 359  Z8B359     -0.1123
     12  C1'      -14.9000   15.7250   41.9880 C.3   359  Z8B359      0.3238
     13  C2'      -14.0820   15.9270   43.1590 C.3   359  Z8B359      0.2573
     14  O2'      -14.7400   15.4450   44.3990 O.3   359  Z8B359     -0.2130
     15  C3'      -13.9070   17.3320   43.1940 C.3   359  Z8B359      0.2174
     16  O3'      -14.9500   17.9140   43.7950 O.3   359  Z8B359     -0.2175
     17  C4'      -13.9170   17.7030   41.7780 C.3   359  Z8B359      0.1713
     18  C5'      -12.4990   18.0680   41.3400 C.3   359  Z8B359      0.1432
     19  O5'      -14.3590   16.6070   41.0580 O.3   359  Z8B359     -0.3143
     20  N51      -12.3370   18.4630   39.8510 N.3   359  Z8B359     -0.1099
     21  N52      -11.2620   17.8930   39.3440 N.3   359  Z8B359     -0.0190
     22  N53      -10.6610   18.7680   38.4850 N.3   359  Z8B359     -0.0014
@<TRIPOS>BOND
     1    22    21    1
     2    21    20    1
     3    20    18    1
     4     7     6    1
     5     8     5    2
     6     8     9    2
     7     6     5    1
     8     6     1    2
     9     5     4    1
    10    10     9    1
    11     9    11    1
    12     1     2    1
    13    19    17    1
    14    19    12    1
    15    18    17    1
    16     4    11    1
    17     4     3    2
    18    11    12    1
    19     2     3    1
    20    17    15    1
    21    12    13    1
    22    13    15    1
    23    13    14    1
    24    15    16    1
