@<TRIPOS>MOLECULE
3qz1_HEM_A_1.pdb
 43 50 0 0 0
SMALL
GASTEIGER

@<TRIPOS>ATOM
      1  CHA        0.7390  -40.4890   55.5820 C.2   500  HEM500      0.0000
      2  CHB        3.8440  -44.0820   54.7520 C.2   500  HEM500      0.0000
      3  CHC        5.5530  -41.7260   50.8880 C.2   500  HEM500      0.0000
      4  CHD        2.4340  -38.1510   51.7240 C.2   500  HEM500      0.0000
      5  C1A        1.4070  -41.6660   55.7150 C.2   500  HEM500      0.0000
      6  C2A        1.2010  -42.6560   56.7630 C.2   500  HEM500      0.0000
      7  C3A        2.0670  -43.6630   56.5280 C.2   500  HEM500      0.0000
      8  C4A        2.8340  -43.3290   55.3400 C.2   500  HEM500      0.0000
      9  CMA        2.2730  -44.9470   57.3380 C.3   500  HEM500      0.0000
     10  CAA        0.1720  -42.5130   57.9060 C.3   500  HEM500      0.0000
     11  CBA       -1.0700  -43.3650   57.6970 C.3   500  HEM500      0.0000
     12  CGA       -2.0770  -43.2990   58.8550 C.2   500  HEM500      0.0000
     13  O1A       -1.6150  -43.6230   60.0080 O.co2 500  HEM500      0.0000
     14  O2A       -3.2430  -42.9530   58.6230 O.co2 500  HEM500      0.0000
     15  C1B        4.5850  -43.7610   53.6330 C.ar  500  HEM500      0.0000
     16  C2B        5.6430  -44.5840   53.0670 C.ar  500  HEM500      0.0000
     17  C3B        6.1220  -43.9250   51.9910 C.ar  500  HEM500      0.0000
     18  C4B        5.3820  -42.6990   51.8670 C.ar  500  HEM500      0.0000
     19  CMB        6.0900  -45.9410   53.6320 C.3   500  HEM500      0.0000
     20  CAB        7.2450  -44.3390   51.0430 C.3   500  HEM500      0.0000
     21  CBB        6.8530  -45.4360   50.0510 C.3   500  HEM500      0.0000
     22  C1C        4.8340  -40.5380   50.7770 C.2   500  HEM500      0.0000
     23  C2C        5.0540  -39.5240   49.7190 C.2   500  HEM500      0.0000
     24  C3C        4.1930  -38.5300   49.9480 C.2   500  HEM500      0.0000
     25  C4C        3.4230  -38.8910   51.1380 C.2   500  HEM500      0.0000
     26  CMC        6.1030  -39.6580   48.6020 C.3   500  HEM500      0.0000
     27  CAC        3.9840  -37.2230   49.1750 C.3   500  HEM500      0.0000
     28  CBC        3.0720  -37.3670   47.9460 C.3   500  HEM500      0.0000
     29  C1D        1.6980  -38.4600   52.8480 C.ar  500  HEM500      0.0000
     30  C2D        0.6600  -37.6280   53.4300 C.ar  500  HEM500      0.0000
     31  C3D        0.1810  -38.2770   54.5150 C.ar  500  HEM500      0.0000
     32  C4D        0.9220  -39.5290   54.6100 C.ar  500  HEM500      0.0000
     33  CMD        0.2190  -36.2530   52.8740 C.3   500  HEM500      0.0000
     34  CAD       -0.9370  -37.7870   55.4640 C.3   500  HEM500      0.0000
     35  CBD       -2.3180  -38.3930   55.0730 C.3   500  HEM500      0.0000
     36  CGD       -3.3980  -37.9300   55.9890 C.2   500  HEM500      0.0000
     37  O1D       -3.9510  -36.8490   55.7810 O.co2 500  HEM500      0.0000
     38  O2D       -3.6570  -38.7010   56.9230 O.co2 500  HEM500      0.0000
     39  NA         2.3950  -42.0980   54.8760 N.2   500  HEM500      0.0000
     40  NB         4.4380  -42.6060   52.8830 N.ar  500  HEM500      0.0000
     41  NC         3.8170  -40.1250   51.6360 N.2   500  HEM500      0.0000
     42  ND         1.8470  -39.6380   53.5940 N.ar  500  HEM500      0.0000
     43 FE          3.0880  -41.1170   53.2580 Fe    500  HEM500      0.0000
@<TRIPOS>BOND
     1    28    27    1
     2    26    23    1
     3    27    24    1
     4    23    24    2
     5    23    22    1
     6    24    25    1
     7    21    20    1
     8    22     3    2
     9    22    41    1
    10     3    18    1
    11    20    17    1
    12    25    41    2
    13    25     4    1
    14    41    43    1
    15     4    29    2
    16    18    17   ar
    17    18    40   ar
    18    17    16   ar
    19    29    30   ar
    20    29    42   ar
    21    33    30    1
    22    40    43    1
    23    40    15   ar
    24    16    19    1
    25    16    15   ar
    26    43    42    1
    27    43    39    1
    28    30    31   ar
    29    42    32   ar
    30    15     2    1
    31    31    32   ar
    32    31    34    1
    33    32     1    2
    34     2     8    2
    35    39     8    1
    36    39     5    2
    37    35    34    1
    38    35    36    1
    39     8     7    1
    40     1     5    1
    41     5     6    1
    42    37    36   ar
    43    36    38   ar
    44     7     6    2
    45     7     9    1
    46     6    10    1
    47    11    10    1
    48    11    12    1
    49    14    12   ar
    50    12    13   ar
