@<TRIPOS>MOLECULE
3qz1_3QZ_A_1.pdb
 24 27 0 0 0
SMALL
GASTEIGER

@<TRIPOS>ATOM
      1  CAA        6.6190  -38.9790   55.7530 C.3   501  3QZ501      0.0749
      2  CAB        5.8520  -32.8050   60.5050 C.3   501  3QZ501      0.0041
      3  CAC        4.8580  -36.9400   58.5970 C.3   501  3QZ501      0.0029
      4  OAD        4.5010  -39.3870   56.8070 O.2   501  3QZ501     -0.2935
      5  OAE        6.2730  -28.1410   59.4410 O.2   501  3QZ501     -0.2914
      6  OAF        5.4820  -36.5610   54.9060 O.3   501  3QZ501     -0.2182
      7  CAG        4.9000  -29.9110   59.0600 C.2   501  3QZ501      0.0289
      8  CAH        3.2920  -31.7720   58.6290 C.3   501  3QZ501      0.0221
      9  CAI        7.3430  -30.2830   59.5760 C.3   501  3QZ501      0.0694
     10  CAJ        3.3330  -32.8830   57.5810 C.3   501  3QZ501      0.0044
     11  CAK        6.7410  -34.5690   58.3380 C.3   501  3QZ501      0.0004
     12  CAL        2.9320  -35.8400   56.8820 C.3   501  3QZ501      0.0031
     13  CAM        7.1850  -31.5690   58.7630 C.3   501  3QZ501      0.0118
     14  CAN        6.6440  -35.6960   57.3040 C.3   501  3QZ501      0.0028
     15  CAO        3.3280  -36.9820   55.9460 C.3   501  3QZ501      0.0376
     16  CAP        5.2420  -38.5620   56.2680 C.2   501  3QZ501      0.1783
     17  CAQ        6.1440  -29.3590   59.3600 C.2   501  3QZ501      0.1725
     18  CAR        4.7100  -31.2800   58.9340 C.2   501  3QZ501     -0.0420
     19  CAS        4.3000  -33.9850   58.0240 C.3   501  3QZ501      0.0007
     20  CAT        5.7320  -33.4420   58.0740 C.3   501  3QZ501      0.0035
     21  CAU        4.2590  -35.0950   56.9780 C.3   501  3QZ501      0.0028
     22  CAV        5.8660  -32.2820   59.0680 C.3   501  3QZ501      0.0157
     23  CAW        5.2170  -36.2440   57.2830 C.3   501  3QZ501      0.0323
     24  CAX        4.8490  -37.0960   56.0690 C.3   501  3QZ501      0.1769
@<TRIPOS>BOND
     1     6    24    1
     2     1    16    1
     3    15    24    1
     4    15    12    1
     5    24    16    1
     6    24    23    1
     7    16     4    2
     8    12    21    1
     9    21    23    1
    10    21    19    1
    11    23    14    1
    12    23     3    1
    13    14    11    1
    14    10    19    1
    15    10     8    1
    16    19    20    1
    17    20    11    1
    18    20    22    1
    19     8    18    1
    20    13    22    1
    21    13     9    1
    22    18     7    2
    23    18    22    1
    24     7    17    1
    25    22     2    1
    26    17     5    2
    27    17     9    1
