@<TRIPOS>MOLECULE
3qz7_DCP_A_1.pdb
 40 41 0 0 0
SMALL
GASTEIGER

@<TRIPOS>ATOM
      1  N1        18.8850   11.8480   10.5570 N.am  361  DCP361     -0.1978
      2  C2        17.5170   12.0620   10.9630 C.1   361  DCP361      0.2745
      3  N3        16.7970   13.2500   10.5930 N.2   361  DCP361     -0.3067
      4  C4        17.4380   14.2430    9.8070 C.2   361  DCP361      0.1840
      5  C5        18.8310   14.0470    9.3890 C.2   361  DCP361      0.0061
      6  C6        19.5530   12.8340    9.7750 C.2   361  DCP361      0.0157
      7  O2        16.9400   11.2350   11.6230 O.2   361  DCP361     -0.1926
      8  N4        16.6970   15.4260    9.4510 N.pl3 361  DCP361     -0.3326
      9  C1'       19.5830   10.6260   10.9420 C.3   361  DCP361      0.1424
     10  C2'       19.5100    9.5720    9.9010 C.3   361  DCP361      0.0199
     11  C3'       20.8110    9.6590    9.1960 C.3   361  DCP361      0.0875
     12  C4'       21.7400   10.0130   10.2530 C.3   361  DCP361      0.1105
     13  O4'       20.9410   10.8500   11.1690 O.3   361  DCP361     -0.3495
     14  O3'       21.1660    8.4420    8.5970 O.3   361  DCP361     -0.3890
     15  C5'       23.0180   10.6560    9.7190 C.3   361  DCP361      0.0835
     16  O5'       22.9810   11.9140    9.0830 O.3   361  DCP361     -0.3246
     17  PA        23.7120   12.2360    7.7080 P.3   361  DCP361      0.2182
     18  O1A       23.1280   13.6340    8.0210 O.2   361  DCP361     -0.5170
     19  O2A       25.0230   11.7480    8.3330 O.3   361  DCP361     -0.4371
     20  O3A       22.8060   11.1850    6.9010 O.3   361  DCP361     -0.2700
     21  PB        23.2230    9.9110    6.0460 P.3   361  DCP361      0.2277
     22  O1B       24.2110    9.4250    7.0960 O.3   361  DCP361     -0.4368
     23  O2B       21.7220    9.5150    6.2070 O.2   361  DCP361     -0.5168
     24  O3B       23.6420   10.9190    4.9290 O.3   361  DCP361     -0.2258
     25  PG        25.0920   10.8630    4.3000 P.3   361  DCP361      0.5373
     26  O1G       26.0670   11.1800    5.4230 O.3   361  DCP361     -0.1143
     27  O2G       25.0340   11.9960    3.3190 O.2   361  DCP361     -0.2221
     28  O3G       25.4920    9.5430    3.6740 O.3   361  DCP361     -0.1143
     29  H5        19.2720   14.7210    8.8580 H     361  DCP361      0.0676
     30  H6        20.4630   12.7000    9.4970 H     361  DCP361      0.0794
     31 HN41       17.2740   16.1340    9.3970 H     361  DCP361      0.1447
     32 HN42       16.0800   15.6000   10.1050 H     361  DCP361      0.1447
     33  H1'       19.1830   10.2740   11.7510 H     361  DCP361      0.0820
     34 H2'1       19.4040    8.6920   10.3130 H     361  DCP361      0.0333
     35 H2'2       18.7700    9.7530    9.2800 H     361  DCP361      0.0333
     36  H3'       20.7800   10.3640    8.5270 H     361  DCP361      0.0621
     37  H4'       21.9870    9.1920   10.7240 H     361  DCP361      0.0646
     38 HO3'       22.0060    8.4880    8.3040 H     361  DCP361      0.2099
     39 H5'1       23.4100   10.0240    9.0790 H     361  DCP361      0.0591
     40 H5'2       23.6390   10.7320   10.4700 H     361  DCP361      0.0591
@<TRIPOS>BOND
     1    27    25    2
     2    28    25    1
     3    25    24    1
     4    25    26    1
     5    24    21    1
     6    21    23    2
     7    21    20    1
     8    21    22    1
     9    20    17    1
    10    17    18    2
    11    17    19    1
    12    17    16    1
    13    38    14    1
    14    36    11    1
    15    14    11    1
    16    29     5    1
    17    39    15    1
    18    16    15    1
    19    11    10    1
    20    11    12    1
    21    35    10    1
    22     5     6    2
    23     5     4    1
    24    31     8    1
    25     8     4    1
    26     8    32    1
    27    30     6    1
    28    15    12    1
    29    15    40    1
    30     6     1    1
    31     4     3    2
    32    10    34    1
    33    10     9    1
    34    12    37    1
    35    12    13    1
    36     1     9    1
    37     1     2   am
    38     3     2    2
    39     9    13    1
    40     9    33    1
    41     2     7    2
