@<TRIPOS>MOLECULE
3qz8_DCP_A_1.pdb
 40 41 0 0 0
SMALL
GASTEIGER

@<TRIPOS>ATOM
      1  N1        19.1260   11.6100   10.8150 N.am  364  DCP364     -0.1978
      2  C2        17.7610   11.8670   11.2020 C.1   364  DCP364      0.2745
      3  N3        17.0990   13.0690   10.7990 N.2   364  DCP364     -0.3067
      4  C4        17.7930   14.0370   10.0120 C.2   364  DCP364      0.1840
      5  C5        19.1760   13.8060    9.5990 C.2   364  DCP364      0.0061
      6  C6        19.8320   12.5480   10.0060 C.2   364  DCP364      0.0157
      7  O2        17.1440   11.0770   11.8880 O.2   364  DCP364     -0.1926
      8  N4        17.0940   15.2270    9.6410 N.pl3 364  DCP364     -0.3326
      9  C1'       19.7600   10.3540   11.2210 C.3   364  DCP364      0.1424
     10  C2'       19.6770    9.3440   10.1400 C.3   364  DCP364      0.0199
     11  C3'       20.9830    9.4280    9.4520 C.3   364  DCP364      0.0875
     12  C4'       21.9200    9.7560   10.5120 C.3   364  DCP364      0.1105
     13  O4'       21.1120   10.4880   11.4970 O.3   364  DCP364     -0.3495
     14  O3'       21.2830    8.2110    8.8370 O.3   364  DCP364     -0.3890
     15  C5'       23.1560   10.5080   10.0130 C.3   364  DCP364      0.0835
     16  O5'       23.0530   11.7660    9.3690 O.3   364  DCP364     -0.3246
     17  PA        23.8230   12.1870    8.0280 P.3   364  DCP364      0.2182
     18  O1A       23.2520   13.5730    8.4030 O.2   364  DCP364     -0.5170
     19  O2A       25.1590   11.7310    8.5870 O.3   364  DCP364     -0.4371
     20  O3A       22.9940   11.1560    7.1090 O.3   364  DCP364     -0.2700
     21  PB        23.4530    9.8140    6.3620 P.3   364  DCP364      0.2277
     22  O1B       24.5230    9.3890    7.3610 O.3   364  DCP364     -0.4368
     23  O2B       21.9640    9.3780    6.5010 O.2   364  DCP364     -0.5168
     24  O3B       23.8390   10.5530    5.0530 O.3   364  DCP364     -0.2258
     25  PG        25.3050   10.8010    4.5420 P.3   364  DCP364      0.5373
     26  O1G       26.1740   11.1080    5.7240 O.3   364  DCP364     -0.1143
     27  O2G       25.1180   12.0460    3.7030 O.2   364  DCP364     -0.2221
     28  O3G       25.8960    9.6470    3.7690 O.3   364  DCP364     -0.1143
     29  H5        19.6420   14.4510    9.0530 H     364  DCP364      0.0676
     30  H6        20.7410   12.3720    9.7470 H     364  DCP364      0.0794
     31 HN41       17.6900   15.9190    9.5850 H     364  DCP364      0.1447
     32 HN42       16.4750   15.4250   10.2870 H     364  DCP364      0.1447
     33  H1'       19.3070   10.0010   12.0010 H     364  DCP364      0.0820
     34 H2'1       19.5470    8.4520   10.5160 H     364  DCP364      0.0333
     35 H2'2       18.9480    9.5660    9.5190 H     364  DCP364      0.0333
     36  H3'       20.9640   10.1390    8.7910 H     364  DCP364      0.0621
     37  H4'       22.2170    8.9180   10.9200 H     364  DCP364      0.0646
     38 HO3'       22.0520    8.2840    8.3930 H     364  DCP364      0.2099
     39 H5'1       23.6170    9.9090    9.3880 H     364  DCP364      0.0591
     40 H5'2       23.7460   10.6300   10.7840 H     364  DCP364      0.0591
@<TRIPOS>BOND
     1    27    25    2
     2    28    25    1
     3    25    24    1
     4    25    26    1
     5    24    21    1
     6    21    23    2
     7    21    20    1
     8    21    22    1
     9    20    17    1
    10    17    18    2
    11    17    19    1
    12    17    16    1
    13    38    14    1
    14    36    11    1
    15    14    11    1
    16    29     5    1
    17    16    15    1
    18    39    15    1
    19    11    10    1
    20    11    12    1
    21    35    10    1
    22    31     8    1
    23     5     6    2
    24     5     4    1
    25     8     4    1
    26     8    32    1
    27    30     6    1
    28     6     1    1
    29     4     3    2
    30    15    12    1
    31    15    40    1
    32    10    34    1
    33    10     9    1
    34    12    37    1
    35    12    13    1
    36     3     2    2
    37     1     2   am
    38     1     9    1
    39     2     7    2
    40     9    13    1
    41     9    33    1
