@<TRIPOS>MOLECULE
3qzf_X66_A_1.pdb
 16 17 0 0 0
SMALL
GASTEIGER

@<TRIPOS>ATOM
      1  N1        89.0650  117.3130  -44.7310 N.2   299  X66299     -0.2413
      2  C2        90.1100  116.4370  -44.5320 C.1   299  X66299      0.2622
      3  N3        90.1870  115.7430  -43.4500 N.pl3 299  X66299     -0.0220
      4  N4        91.0760  116.3000  -45.4980 N.2   299  X66299     -0.2575
      5  C5        91.0190  117.0280  -46.6680 C.1   299  X66299      0.1663
      6  C6        91.9870  116.8810  -47.6450 C.2   299  X66299      0.1286
      7  C7        91.9570  117.6300  -48.9160 C.2   299  X66299      0.2033
      8  O8        90.9380  118.5420  -49.1870 O.2   299  X66299     -0.2861
      9  C9        92.9880  117.4120  -49.8900 C.2   299  X66299      0.0248
     10  C10       94.0460  116.4940  -49.6520 C.3   299  X66299      0.0984
     11  C11       94.1120  115.7600  -48.4340 C.2   299  X66299      0.1784
     12  O12       95.0700  114.9700  -48.2740 O.2   299  X66299     -0.2910
     13  C13       93.0830  115.9540  -47.4380 C.2   299  X66299      0.0531
     14  N14       89.9660  117.8940  -46.8370 N.2   299  X66299     -0.2575
     15  C15       88.9990  118.0470  -45.8980 C.1   299  X66299      0.2622
     16  N16       88.0310  118.8690  -46.1120 N.pl3 299  X66299     -0.0220
@<TRIPOS>BOND
     1     9    10    1
     2     9     7    2
     3    10    11    1
     4     8     7    1
     5     7     6    1
     6    11    12    2
     7    11    13    1
     8     6    13    2
     9     6     5    1
    10    14     5    2
    11    14    15    2
    12     5     4    2
    13    16    15    1
    14    15     1    2
    15     4     2    2
    16     1     2    2
    17     2     3    1
