@<TRIPOS>MOLECULE
3qzg_X67_A_1.pdb
 16 17 0 0 0
SMALL
GASTEIGER

@<TRIPOS>ATOM
      1  C1        63.1750  117.6450  -84.0730 C.1   471  X67471      0.2619
      2  N2        62.1790  118.5330  -84.2670 N.pl3 471  X67471     -0.0220
      3  N3        64.0640  117.4100  -85.0650 N.2   471  X67471     -0.2614
      4  C4        65.0950  116.5120  -84.9190 C.1   471  X67471      0.1503
      5  C5        65.9750  116.2840  -85.9580 C.3   471  X67471      0.1962
      6  C6        67.0490  115.3250  -85.7990 C.2   471  X67471      0.0279
      7  C7        67.9600  115.0520  -86.8500 C.2   471  X67471      0.1375
      8  F8        68.9510  114.1430  -86.6700 F     471  X67471     -0.2045
      9  C9        67.8370  115.7160  -88.0930 C.2   471  X67471      0.0323
     10  C10       66.8050  116.6650  -88.2970 C.2   471  X67471      0.0412
     11  C11       65.8590  116.9760  -87.2540 C.2   471  X67471      0.1930
     12  O12       64.9340  117.8300  -87.4480 O.2   471  X67471     -0.2898
     13  N13       65.2060  115.8440  -83.7140 N.2   471  X67471     -0.2614
     14  C14       64.3050  116.0760  -82.7000 C.1   471  X67471      0.2619
     15  N15       64.4130  115.4500  -81.5750 N.pl3 471  X67471     -0.0220
     16  N16       63.2920  116.9780  -82.8890 N.2   471  X67471     -0.2413
@<TRIPOS>BOND
     1    10     9    2
     2    10    11    1
     3     9     7    1
     4    12    11    2
     5    11     5    1
     6     7     8    1
     7     7     6    2
     8     5     6    1
     9     5     4    1
    10     3     4    2
    11     3     1    2
    12     4    13    2
    13     2     1    1
    14     1    16    2
    15    13    14    2
    16    16    14    2
    17    14    15    1
