@<TRIPOS>MOLECULE
3qzh_X69_A_1.pdb
 22 23 0 0 0
SMALL
GASTEIGER

@<TRIPOS>ATOM
      1  N01      -37.4470  -46.2120   24.1030 N.pl3 839  X69839     -0.2325
      2  N02      -40.0580  -45.8230   20.9460 N.am  839  X69839     -0.0837
      3  N03      -35.7800  -49.3380   26.5980 N.ar  839  X69839     -0.2426
      4  N04      -42.5640  -44.3960   24.9710 N.pl3 839  X69839      0.0607
      5  C05      -40.9710  -45.3320   23.5220 C.ar  839  X69839      0.0331
      6  C06      -39.6460  -45.8090   23.2740 C.ar  839  X69839      0.0733
      7  C07      -38.6640  -45.7750   24.3260 C.ar  839  X69839      0.0733
      8  C08      -39.0560  -45.2550   25.6120 C.ar  839  X69839      0.0548
      9  C09      -40.3830  -44.7820   25.8530 C.ar  839  X69839      0.1623
     10  C10      -41.3570  -44.8180   24.7950 C.ar  839  X69839      0.1768
     11  C11      -39.3540  -46.2850   22.0240 C.2   839  X69839      0.2855
     12  C12      -36.2670  -45.9020   24.9570 C.3   839  X69839      0.1401
     13  C13      -36.0590  -46.9750   26.0070 C.ar  839  X69839      0.0185
     14  C14      -35.9640  -48.3390   25.6650 C.ar  839  X69839      0.0963
     15  C15      -35.6860  -48.9740   27.9230 C.ar  839  X69839      0.0989
     16  C16      -35.7690  -47.6440   28.3630 C.ar  839  X69839      0.0204
     17  C17      -35.9580  -46.6370   27.3820 C.ar  839  X69839      0.0006
     18  C18      -40.9510  -45.1420   28.1860 C.3   839  X69839      0.2525
     19  O19      -38.4780  -47.1030   21.8540 O.2   839  X69839     -0.2666
     20  O20      -42.8440  -43.5450   25.9250 O.2   839  X69839     -0.1260
     21  O21      -43.5470  -44.7960   24.1780 O.2   839  X69839     -0.1260
     22  O22      -40.7150  -44.2930   27.0880 O.3   839  X69839     -0.4697
@<TRIPOS>BOND
     1     2    11   am
     2    19    11    2
     3    11     6    1
     4     6     5   ar
     5     6     7   ar
     6     5    10   ar
     7     1     7    1
     8     1    12    1
     9    21     4    2
    10     7     8   ar
    11    10     4    1
    12    10     9   ar
    13    12    13    1
    14     4    20    2
    15     8     9   ar
    16    14    13   ar
    17    14     3   ar
    18     9    22    1
    19    13    17   ar
    20     3    15   ar
    21    22    18    1
    22    17    16   ar
    23    15    16   ar
