@<TRIPOS>MOLECULE
3qzi_X72_A_1.pdb
 21 22 0 0 0
SMALL
GASTEIGER

@<TRIPOS>ATOM
      1  N01      -64.5620  -10.3250   24.1190 N.pl3 512  X72512     -0.2325
      2  N02      -67.1400   -9.8030   20.9890 N.am  512  X72512     -0.0837
      3  N03      -62.2420  -11.6590   28.1310 N.ar  512  X72512     -0.2227
      4  N04      -62.9850  -13.3460   26.5750 N.ar  512  X72512     -0.2227
      5  N05      -69.6910   -8.5930   25.1230 N.pl3 512  X72512      0.0585
      6  C06      -68.0970   -9.4370   23.6120 C.ar  512  X72512      0.0309
      7  C07      -66.7670   -9.9010   23.3240 C.ar  512  X72512      0.0732
      8  C08      -65.7820   -9.9190   24.3660 C.ar  512  X72512      0.0711
      9  C09      -66.1580   -9.4950   25.6780 C.ar  512  X72512      0.0293
     10  C10      -67.4700   -9.0510   25.9620 C.ar  512  X72512      0.0813
     11  C11      -68.4710   -9.0030   24.9180 C.ar  512  X72512      0.1536
     12  C12      -66.4780  -10.3260   22.0480 C.2   512  X72512      0.2855
     13  C13      -63.3840   -9.9190   24.9250 C.3   512  X72512      0.1416
     14  C14      -63.0610  -10.9940   25.9320 C.ar  512  X72512      0.0377
     15  C15      -62.5400  -10.7060   27.1940 C.ar  512  X72512      0.0996
     16  C16      -62.4810  -12.9480   27.7730 C.ar  512  X72512      0.1989
     17  C17      -63.2620  -12.3570   25.6800 C.ar  512  X72512      0.0996
     18  O18      -65.6680  -11.2230   21.8610 O.2   512  X72512     -0.2666
     19  O19      -69.9970   -7.8350   26.1450 O.2   512  X72512     -0.1261
     20  O20      -70.6600   -8.8900   24.2780 O.2   512  X72512     -0.1261
     21 CL21      -67.8010   -8.5940   27.5810 Cl    512  X72512     -0.0805
@<TRIPOS>BOND
     1     2    12   am
     2    18    12    2
     3    12     7    1
     4     7     6   ar
     5     7     8   ar
     6     6    11   ar
     7     1     8    1
     8     1    13    1
     9    20     5    2
    10     8     9   ar
    11    11     5    1
    12    11    10   ar
    13    13    14    1
    14     5    19    2
    15     9    10   ar
    16    17    14   ar
    17    17     4   ar
    18    14    15   ar
    19    10    21    1
    20     4    16   ar
    21    15     3   ar
    22    16     3   ar
