@<TRIPOS>MOLECULE
3qzl_HEM_A_1.pdb
 43 50 0 0 0
SMALL
GASTEIGER

@<TRIPOS>ATOM
      1  CHA        4.3050    3.0860   -3.7250 C.2   200  HEM200      0.0000
      2  CHB        5.4640    5.8310    0.1110 C.2   200  HEM200      0.0000
      3  CHC        3.5790    2.5240    3.0790 C.2   200  HEM200      0.0000
      4  CHD        2.4350   -0.3150   -0.6900 C.2   200  HEM200      0.0000
      5  C1A        4.8280    4.1110   -2.9670 C.2   200  HEM200      0.0000
      6  C2A        5.6120    5.2290   -3.4350 C.2   200  HEM200      0.0000
      7  C3A        5.9020    5.9640   -2.3690 C.2   200  HEM200      0.0000
      8  C4A        5.3540    5.3530   -1.1860 C.2   200  HEM200      0.0000
      9  CMA        6.7250    7.2550   -2.2940 C.3   200  HEM200      0.0000
     10  CAA        6.0110    5.5130   -4.8920 C.3   200  HEM200      0.0000
     11  CBA        4.8780    6.1680   -5.6900 C.3   200  HEM200      0.0000
     12  CGA        4.3340    7.3610   -4.9120 C.2   200  HEM200      0.0000
     13  O1A        3.1500    7.3050   -4.4890 O.co2 200  HEM200      0.0000
     14  O2A        5.0820    8.3620   -4.6880 O.co2 200  HEM200      0.0000
     15  C1B        5.0710    5.2100    1.2830 C.ar  200  HEM200      0.0000
     16  C2B        5.2830    5.6590    2.6490 C.ar  200  HEM200      0.0000
     17  C3B        4.7610    4.7070    3.4410 C.ar  200  HEM200      0.0000
     18  C4B        4.2000    3.6600    2.6250 C.ar  200  HEM200      0.0000
     19  CMB        5.9780    6.9670    3.0920 C.3   200  HEM200      0.0000
     20  CAB        4.7220    4.6690    4.9810 C.2   200  HEM200      0.0000
     21  CBB        5.5050    5.4330    5.7450 C.2   200  HEM200      0.0000
     22  C1C        3.0390    1.5260    2.3090 C.2   200  HEM200      0.0000
     23  C2C        2.1990    0.4710    2.8450 C.2   200  HEM200      0.0000
     24  C3C        1.8750   -0.3140    1.8200 C.2   200  HEM200      0.0000
     25  C4C        2.4960    0.1930    0.6010 C.2   200  HEM200      0.0000
     26  CMC        1.7570    0.3130    4.3230 C.3   200  HEM200      0.0000
     27  CAC        0.9880   -1.5620    1.9270 C.2   200  HEM200      0.0000
     28  CBC        1.0910   -2.4800    0.9640 C.2   200  HEM200      0.0000
     29  C1D        2.6810    0.4070   -1.8410 C.ar  200  HEM200      0.0000
     30  C2D        2.0710    0.1750   -3.1320 C.ar  200  HEM200      0.0000
     31  C3D        2.6670    1.2190   -4.0750 C.ar  200  HEM200      0.0000
     32  C4D        3.5610    2.0170   -3.2530 C.ar  200  HEM200      0.0000
     33  CMD        1.0510   -0.9230   -3.5140 C.3   200  HEM200      0.0000
     34  CAD        2.3510    1.4160   -5.5750 C.3   200  HEM200      0.0000
     35  CBD        0.8460    1.5760   -5.7820 C.3   200  HEM200      0.0000
     36  CGD        0.4910    2.8930   -6.4320 C.2   200  HEM200      0.0000
     37  O1D        1.2870    3.4230   -7.2540 O.co2 200  HEM200      0.0000
     38  O2D       -0.6040    3.4290   -6.1240 O.co2 200  HEM200      0.0000
     39  NA         4.7340    4.1860   -1.5930 N.2   200  HEM200      0.0000
     40  NB         4.4200    3.9840    1.3170 N.ar  200  HEM200      0.0000
     41  NC         3.2610    1.2870    0.9550 N.2   200  HEM200      0.0000
     42  ND         3.5920    1.4720   -1.9560 N.ar  200  HEM200      0.0000
     43 FE          4.0960    2.6470   -0.3290 Fe    200  HEM200      0.0000
@<TRIPOS>BOND
     1    37    36   ar
     2    36    38   ar
     3    36    35    1
     4    35    34    1
     5    11    12    1
     6    11    10    1
     7    34    31    1
     8    12    14   ar
     9    12    13   ar
    10    10     6    1
    11    31    32   ar
    12    31    30   ar
    13     1    32    2
    14     1     5    1
    15    33    30    1
    16     6     5    1
    17     6     7    2
    18    32    42   ar
    19    30    29   ar
    20     5    39    2
    21     7     9    1
    22     7     8    1
    23    42    29   ar
    24    42    43    1
    25    29     4    2
    26    39     8    1
    27    39    43    1
    28     8     2    2
    29     4    25    1
    30    43    41    1
    31    43    40    1
    32     2    15    1
    33    25    41    2
    34    25    24    1
    35    41    22    1
    36    28    27    2
    37    15    40   ar
    38    15    16   ar
    39    40    18   ar
    40    24    27    1
    41    24    23    2
    42    22    23    1
    43    22     3    2
    44    18     3    1
    45    18    17   ar
    46    16    19    1
    47    16    17   ar
    48    23    26    1
    49    17    20    1
    50    20    21    2
