@<TRIPOS>MOLECULE
3qzm_HEM_A_1.pdb
 43 50 0 0 0
SMALL
GASTEIGER

@<TRIPOS>ATOM
      1  CHA        8.7710   12.7940   41.7940 C.2   200  HEM200      0.0000
      2  CHB        9.0480   11.7990   37.0680 C.2   200  HEM200      0.0000
      3  CHC       13.5380   13.5800   36.9510 C.2   200  HEM200      0.0000
      4  CHD       13.1040   15.0970   41.5260 C.2   200  HEM200      0.0000
      5  C1A        8.4320   12.3720   40.5370 C.ar  200  HEM200      0.0000
      6  C2A        7.1880   11.7790   40.1040 C.ar  200  HEM200      0.0000
      7  C3A        7.2800   11.5160   38.8080 C.ar  200  HEM200      0.0000
      8  C4A        8.5860   11.9350   38.3590 C.ar  200  HEM200      0.0000
      9  CMA        6.2130   10.8470   37.9290 C.3   200  HEM200      0.0000
     10  CAA        5.9580   11.5080   40.9730 C.3   200  HEM200      0.0000
     11  CBA        5.1710   12.8100   41.1300 C.3   200  HEM200      0.0000
     12  CGA        4.6390   13.3160   39.8050 C.2   200  HEM200      0.0000
     13  O1A        4.9630   14.4730   39.4340 O.co2 200  HEM200      0.0000
     14  O2A        3.8780   12.5980   39.0980 O.co2 200  HEM200      0.0000
     15  C1B       10.3020   12.1820   36.6180 C.2   200  HEM200      0.0000
     16  C2B       10.8640   11.8930   35.3150 C.2   200  HEM200      0.0000
     17  C3B       12.1090   12.3610   35.3030 C.2   200  HEM200      0.0000
     18  C4B       12.3640   12.9710   36.5810 C.2   200  HEM200      0.0000
     19  CMB       10.1130   11.1610   34.1930 C.3   200  HEM200      0.0000
     20  CAB       13.1430   12.3430   34.1650 C.2   200  HEM200      0.0000
     21  CBB       13.0890   11.5220   33.1260 C.2   200  HEM200      0.0000
     22  C1C       13.7790   14.1530   38.1590 C.ar  200  HEM200      0.0000
     23  C2C       15.0010   14.8450   38.4840 C.ar  200  HEM200      0.0000
     24  C3C       14.8980   15.2730   39.7340 C.ar  200  HEM200      0.0000
     25  C4C       13.6060   14.8680   40.2600 C.ar  200  HEM200      0.0000
     26  CMC       16.1890   15.0150   37.5270 C.3   200  HEM200      0.0000
     27  CAC       15.9590   16.0600   40.5100 C.3   200  HEM200      0.0000
     28  CBC       15.9190   15.9020   41.8270 C.3   200  HEM200      0.0000
     29  C1D       11.8550   14.7170   41.9640 C.2   200  HEM200      0.0000
     30  C2D       11.1670   15.2850   43.0990 C.2   200  HEM200      0.0000
     31  C3D        9.8290   14.5530   43.1750 C.2   200  HEM200      0.0000
     32  C4D        9.8350   13.6340   42.0680 C.2   200  HEM200      0.0000
     33  CMD       11.6950   16.3820   44.0460 C.3   200  HEM200      0.0000
     34  CAD        8.6640   14.7400   44.1700 C.3   200  HEM200      0.0000
     35  CBD        9.0910   14.3390   45.5660 C.3   200  HEM200      0.0000
     36  CGD        7.9750   14.7490   46.4880 C.2   200  HEM200      0.0000
     37  O1D        6.7930   14.5990   46.0780 O.co2 200  HEM200      0.0000
     38  O2D        8.2680   15.2150   47.6210 O.co2 200  HEM200      0.0000
     39  NA         9.2850   12.4070   39.4730 N.ar  200  HEM200      0.0000
     40  NB        11.2680   12.8030   37.3820 N.2   200  HEM200      0.0000
     41  NC        12.9630   14.1550   39.2710 N.ar  200  HEM200      0.0000
     42  ND        11.0630   13.7050   41.3960 N.2   200  HEM200      0.0000
     43 FE         11.2050   13.1410   39.4510 Fe    200  HEM200      0.0000
@<TRIPOS>BOND
     1    21    20    2
     2    20    17    1
     3    19    16    1
     4    17    16    2
     5    17    18    1
     6    16    15    1
     7    18     3    2
     8    18    40    1
     9    15     2    1
    10    15    40    2
    11     3    22    1
    12     2     8    2
    13    40    43    1
    14    26    23    1
    15     9     7    1
    16    22    23   ar
    17    22    41   ar
    18     8     7   ar
    19     8    39   ar
    20    23    24   ar
    21     7     6   ar
    22    14    12   ar
    23    41    43    1
    24    41    25   ar
    25    13    12   ar
    26    43    39    1
    27    43    42    1
    28    39     5   ar
    29    24    25   ar
    30    24    27    1
    31    12    11    1
    32     6     5   ar
    33     6    10    1
    34    25     4    1
    35    27    28    1
    36     5     1    2
    37    10    11    1
    38    42    29    1
    39    42    32    2
    40     4    29    2
    41     1    32    1
    42    29    30    1
    43    32    31    1
    44    30    31    2
    45    30    33    1
    46    31    34    1
    47    34    35    1
    48    35    36    1
    49    37    36   ar
    50    36    38   ar
