@<TRIPOS>MOLECULE
3qzn_HEM_A_1.pdb
 43 50 0 0 0
SMALL
GASTEIGER

@<TRIPOS>ATOM
      1  CHA        5.5630   -3.9650  -15.7240 C.2   200  HEM200      0.0000
      2  CHB        1.6960   -4.9310  -12.9470 C.2   200  HEM200      0.0000
      3  CHC        0.1020   -8.3480  -16.0440 C.2   200  HEM200      0.0000
      4  CHD        3.9520   -7.3960  -18.8320 C.2   200  HEM200      0.0000
      5  C1A        4.6130   -3.8830  -14.7290 C.2   200  HEM200      0.0000
      6  C2A        4.5690   -2.9010  -13.6670 C.2   200  HEM200      0.0000
      7  C3A        3.5060   -3.1670  -12.9050 C.2   200  HEM200      0.0000
      8  C4A        2.8310   -4.3330  -13.4560 C.2   200  HEM200      0.0000
      9  CMA        3.0580   -2.3750  -11.6560 C.3   200  HEM200      0.0000
     10  CAA        5.5860   -1.7510  -13.4810 C.3   200  HEM200      0.0000
     11  CBA        5.0410   -0.4660  -14.1140 C.3   200  HEM200      0.0000
     12  CGA        4.9640   -0.5600  -15.6230 C.2   200  HEM200      0.0000
     13  O1A        6.0160   -0.4460  -16.3220 O.co2 200  HEM200      0.0000
     14  O2A        3.8270   -0.7370  -16.1310 O.co2 200  HEM200      0.0000
     15  C1B        0.9350   -5.9240  -13.5290 C.ar  200  HEM200      0.0000
     16  C2B       -0.3080   -6.4630  -13.0060 C.ar  200  HEM200      0.0000
     17  C3B       -0.7370   -7.3960  -13.8590 C.ar  200  HEM200      0.0000
     18  C4B        0.2030   -7.4950  -14.9560 C.ar  200  HEM200      0.0000
     19  CMB       -1.0140   -6.0470  -11.6920 C.3   200  HEM200      0.0000
     20  CAB       -2.0110   -8.2430  -13.7120 C.2   200  HEM200      0.0000
     21  CBB       -1.8550   -9.5660  -13.6870 C.2   200  HEM200      0.0000
     22  C1C        0.9830   -8.3800  -17.1030 C.2   200  HEM200      0.0000
     23  C2C        0.8810   -9.1590  -18.3310 C.2   200  HEM200      0.0000
     24  C3C        1.9500   -8.8780  -19.0800 C.2   200  HEM200      0.0000
     25  C4C        2.7680   -7.9230  -18.3720 C.2   200  HEM200      0.0000
     26  CMC       -0.2460  -10.1410  -18.7260 C.3   200  HEM200      0.0000
     27  CAC        2.2710   -9.4720  -20.4690 C.2   200  HEM200      0.0000
     28  CBC        2.7440  -10.7130  -20.5530 C.2   200  HEM200      0.0000
     29  C1D        4.7440   -6.4250  -18.2620 C.ar  200  HEM200      0.0000
     30  C2D        6.0110   -5.9830  -18.8000 C.ar  200  HEM200      0.0000
     31  C3D        6.5170   -4.9100  -17.8280 C.ar  200  HEM200      0.0000
     32  C4D        5.5110   -4.8200  -16.8050 C.ar  200  HEM200      0.0000
     33  CMD        6.7020   -6.4910  -20.0840 C.3   200  HEM200      0.0000
     34  CAD        7.8280   -4.0960  -17.8870 C.3   200  HEM200      0.0000
     35  CBD        8.7530   -4.6280  -16.7880 C.3   200  HEM200      0.0000
     36  CGD        9.1280   -6.0670  -17.0640 C.2   200  HEM200      0.0000
     37  O1D        9.5120   -6.3710  -18.2210 O.co2 200  HEM200      0.0000
     38  O2D        9.0470   -6.9200  -16.1400 O.co2 200  HEM200      0.0000
     39  NA         3.5480   -4.7400  -14.5690 N.2   200  HEM200      0.0000
     40  NB         1.2160   -6.5800  -14.7140 N.ar  200  HEM200      0.0000
     41  NC         2.1460   -7.6430  -17.1720 N.2   200  HEM200      0.0000
     42  ND         4.4880   -5.7200  -17.0920 N.ar  200  HEM200      0.0000
     43 FE          2.8480   -6.1510  -15.8930 Fe    200  HEM200      0.0000
@<TRIPOS>BOND
     1    28    27    2
     2    27    24    1
     3    33    30    1
     4    24    25    1
     5    24    23    2
     6     4    25    1
     7     4    29    2
     8    30    29   ar
     9    30    31   ar
    10    26    23    1
    11    25    41    2
    12    23    22    1
    13    29    42   ar
    14    37    36   ar
    15    34    31    1
    16    34    35    1
    17    31    32   ar
    18    41    22    1
    19    41    43    1
    20    22     3    2
    21    42    32   ar
    22    42    43    1
    23    36    35    1
    24    36    38   ar
    25    32     1    2
    26    13    12   ar
    27    14    12   ar
    28     3    18    1
    29    43    40    1
    30    43    39    1
    31     1     5    1
    32    12    11    1
    33    18    40   ar
    34    18    17   ar
    35     5    39    2
    36     5     6    1
    37    40    15   ar
    38    39     8    1
    39    11    10    1
    40    17    20    1
    41    17    16   ar
    42    20    21    2
    43     6    10    1
    44     6     7    2
    45    15    16   ar
    46    15     2    1
    47     8     2    2
    48     8     7    1
    49    16    19    1
    50     7     9    1
