@<TRIPOS>MOLECULE
3qzo_HEM_A_1.pdb
 43 50 0 0 0
SMALL
GASTEIGER

@<TRIPOS>ATOM
      1  CHA       15.2090   -1.2450   39.4430 C.2   200  HEM200      0.0000
      2  CHB       12.7610   -1.7860   35.2740 C.2   200  HEM200      0.0000
      3  CHC       11.8980    3.0020   35.0950 C.2   200  HEM200      0.0000
      4  CHD       15.0450    3.6040   38.7600 C.2   200  HEM200      0.0000
      5  C1A       14.6680   -1.8100   38.3100 C.ar  200  HEM200      0.0000
      6  C2A       14.8320   -3.1840   37.8690 C.ar  200  HEM200      0.0000
      7  C3A       14.1630   -3.3320   36.7210 C.ar  200  HEM200      0.0000
      8  C4A       13.5430   -2.0580   36.3850 C.ar  200  HEM200      0.0000
      9  CMA       14.0610   -4.6360   35.8960 C.3   200  HEM200      0.0000
     10  CAA       15.6460   -4.2740   38.6160 C.3   200  HEM200      0.0000
     11  CBA       15.1850   -4.3120   40.0720 C.3   200  HEM200      0.0000
     12  CGA       16.1290   -5.1280   40.9250 C.2   200  HEM200      0.0000
     13  O1A       17.1340   -5.6600   40.3770 O.co2 200  HEM200      0.0000
     14  O2A       15.8750   -5.2440   42.1600 O.co2 200  HEM200      0.0000
     15  C1B       12.2950   -0.5500   34.8530 C.2   200  HEM200      0.0000
     16  C2B       11.4650   -0.2660   33.6860 C.2   200  HEM200      0.0000
     17  C3B       11.2300    1.0540   33.6400 C.2   200  HEM200      0.0000
     18  C4B       11.8950    1.6600   34.7740 C.2   200  HEM200      0.0000
     19  CMB       10.9540   -1.3030   32.6650 C.3   200  HEM200      0.0000
     20  CAB       10.4070    1.8320   32.5830 C.2   200  HEM200      0.0000
     21  CBB        9.3330    1.2840   32.0080 C.2   200  HEM200      0.0000
     22  C1C       12.6780    3.5810   36.0750 C.ar  200  HEM200      0.0000
     23  C2C       12.7530    4.9930   36.3750 C.ar  200  HEM200      0.0000
     24  C3C       13.6170    5.1490   37.3830 C.ar  200  HEM200      0.0000
     25  C4C       14.1300    3.8500   37.7580 C.ar  200  HEM200      0.0000
     26  CMC       11.9580    6.0910   35.6420 C.3   200  HEM200      0.0000
     27  CAC       14.0310    6.4630   38.0640 C.2   200  HEM200      0.0000
     28  CBC       14.6650    7.3660   37.3310 C.2   200  HEM200      0.0000
     29  C1D       15.3560    2.3780   39.3100 C.2   200  HEM200      0.0000
     30  C2D       16.1800    2.1830   40.4790 C.2   200  HEM200      0.0000
     31  C3D       16.2390    0.6620   40.7060 C.2   200  HEM200      0.0000
     32  C4D       15.4420    0.1000   39.6380 C.2   200  HEM200      0.0000
     33  CMD       16.8360    3.3020   41.3070 C.3   200  HEM200      0.0000
     34  CAD       16.9790   -0.1060   41.8280 C.3   200  HEM200      0.0000
     35  CBD       18.3790   -0.5140   41.3820 C.3   200  HEM200      0.0000
     36  CGD       19.0800    0.6260   40.6920 C.2   200  HEM200      0.0000
     37  O1D       19.2780    0.5370   39.4480 O.co2 200  HEM200      0.0000
     38  O2D       19.4680    1.6150   41.3770 O.co2 200  HEM200      0.0000
     39  NA        13.8890   -1.1570   37.3790 N.ar  200  HEM200      0.0000
     40  NB        12.5260    0.6550   35.4830 N.2   200  HEM200      0.0000
     41  NC        13.5420    2.9200   36.9310 N.ar  200  HEM200      0.0000
     42  ND        14.9470    1.1350   38.8480 N.2   200  HEM200      0.0000
     43 FE         13.7510    0.9130   37.1400 Fe    200  HEM200      0.0000
@<TRIPOS>BOND
     1    21    20    2
     2    20    17    1
     3    19    16    1
     4    17    16    2
     5    17    18    1
     6    16    15    1
     7    18     3    2
     8    18    40    1
     9    15     2    1
    10    15    40    2
    11     3    22    1
    12     2     8    2
    13    40    43    1
    14    26    23    1
    15     9     7    1
    16    22    23   ar
    17    22    41   ar
    18    23    24   ar
    19     8     7   ar
    20     8    39   ar
    21     7     6   ar
    22    41    43    1
    23    41    25   ar
    24    43    39    1
    25    43    42    1
    26    28    27    2
    27    39     5   ar
    28    24    25   ar
    29    24    27    1
    30    25     4    1
    31     6     5   ar
    32     6    10    1
    33     5     1    2
    34    10    11    1
    35     4    29    2
    36    42    29    1
    37    42    32    2
    38    29    30    1
    39     1    32    1
    40    37    36   ar
    41    32    31    1
    42    11    12    1
    43    13    12   ar
    44    30    31    2
    45    30    33    1
    46    36    38   ar
    47    36    35    1
    48    31    34    1
    49    12    14   ar
    50    35    34    1
