@<TRIPOS>MOLECULE
3qzp_COH_A_1.pdb
 43 50 0 0 0
SMALL
GASTEIGER

@<TRIPOS>ATOM
      1 CO         10.0590   -5.2710   13.0130 Co.oh 200  COH200      0.0000
      2  CHA       12.8340   -5.4230   10.8670 C.2   200  COH200      0.0000
      3  CHB       11.6880   -7.4740   15.2730 C.2   200  COH200      0.0000
      4  CHC        7.4930   -4.7110   15.3520 C.2   200  COH200      0.0000
      5  CHD        8.1490   -3.6700   10.5030 C.2   200  COH200      0.0000
      6  NA        11.8080   -6.1600   13.0880 N.2   200  COH200      0.0000
      7  C1A       12.8550   -6.1900   12.0790 C.2   200  COH200      0.0000
      8  C2A       14.1250   -6.8180   12.5100 C.2   200  COH200      0.0000
      9  C3A       13.8000   -7.4220   13.8200 C.2   200  COH200      0.0000
     10  C4A       12.3730   -7.0760   14.0710 C.2   200  COH200      0.0000
     11  CMA       14.7160   -8.2480   14.6780 C.3   200  COH200      0.0000
     12  CAA       15.4330   -6.8670   11.7410 C.3   200  COH200      0.0000
     13  CBA       15.4510   -7.9520   10.6680 C.3   200  COH200      0.0000
     14  CGA       15.6830   -7.3380    9.3030 C.2   200  COH200      0.0000
     15  O1A       15.2890   -7.9700    8.2980 O.co2 200  COH200      0.0000
     16  O2A       16.2570   -6.2250    9.2220 O.co2 200  COH200      0.0000
     17  NB         9.7900   -5.7950   14.8980 N.ar  200  COH200      0.0000
     18  C1B       10.3850   -6.9410   15.5970 C.ar  200  COH200      0.0000
     19  C2B        9.6900   -7.3660   16.8360 C.ar  200  COH200      0.0000
     20  C3B        8.4740   -6.5340   16.8380 C.ar  200  COH200      0.0000
     21  C4B        8.5290   -5.6500   15.6430 C.ar  200  COH200      0.0000
     22  CMB       10.1300   -8.4280   17.8100 C.3   200  COH200      0.0000
     23  CAB        7.3810   -6.5680   17.8420 C.2   200  COH200      0.0000
     24  CBB        7.5880   -7.0430   19.0620 C.2   200  COH200      0.0000
     25  NC         8.3430   -4.3060   12.9880 N.2   200  COH200      0.0000
     26  C1C        7.2430   -4.4270   13.9570 C.2   200  COH200      0.0000
     27  C2C        5.8990   -4.0380   13.4660 C.2   200  COH200      0.0000
     28  C3C        6.1480   -3.7410   12.0510 C.2   200  COH200      0.0000
     29  C4C        7.5720   -3.9660   11.7860 C.2   200  COH200      0.0000
     30  CMC        4.6070   -4.0030   14.2330 C.3   200  COH200      0.0000
     31  CAC        5.1660   -3.3350   11.0320 C.2   200  COH200      0.0000
     32  CBC        4.1500   -2.5810   11.3890 C.2   200  COH200      0.0000
     33  ND        10.3280   -4.7800   11.1280 N.ar  200  COH200      0.0000
     34  C1D        9.5520   -3.8890   10.2870 C.ar  200  COH200      0.0000
     35  C2D       10.2290   -3.5170    9.0280 C.ar  200  COH200      0.0000
     36  C3D       11.5980   -4.0500    9.1520 C.ar  200  COH200      0.0000
     37  C4D       11.6330   -4.7650   10.4470 C.ar  200  COH200      0.0000
     38  CMD        9.6640   -2.7000    7.9030 C.3   200  COH200      0.0000
     39  CAD       12.7230   -3.9070    8.1640 C.3   200  COH200      0.0000
     40  CBD       12.8440   -5.2370    7.4070 C.3   200  COH200      0.0000
     41  CGD       11.5190   -5.7180    6.8400 C.2   200  COH200      0.0000
     42  O1D       10.8730   -4.9840    6.0470 O.co2 200  COH200      0.0000
     43  O2D       11.1130   -6.8540    7.1770 O.co2 200  COH200      0.0000
@<TRIPOS>BOND
     1    42    41   ar
     2    41    43   ar
     3    41    40    1
     4    40    39    1
     5    38    35    1
     6    39    36    1
     7    15    14   ar
     8    35    36   ar
     9    35    34   ar
    10    36    37   ar
    11    16    14   ar
    12    14    13    1
    13    34     5    2
    14    34    33   ar
    15    37     2    2
    16    37    33   ar
    17     5    29    1
    18    13    12    1
    19     2     7    1
    20    31    32    2
    21    31    28    1
    22    33     1    1
    23    12     8    1
    24    29    28    1
    25    29    25    2
    26    28    27    2
    27     7     8    1
    28     7     6    2
    29     8     9    2
    30    25     1    1
    31    25    26    1
    32     1     6    1
    33     1    17    1
    34     6    10    1
    35    27    26    1
    36    27    30    1
    37     9    10    1
    38     9    11    1
    39    26     4    2
    40    10     3    2
    41    17    18   ar
    42    17    21   ar
    43     3    18    1
    44     4    21    1
    45    18    19   ar
    46    21    20   ar
    47    19    20   ar
    48    19    22    1
    49    20    23    1
    50    23    24    2
