@<TRIPOS>MOLECULE
3qzv_III_C_1.pdb
 41 40 0 0 0
SMALL
GASTEIGER

@<TRIPOS>ATOM
      1  N         -4.1410   -2.4300  -13.1970 N.3     7  GLY7       -0.1210
      2  CA        -3.7410   -1.4480  -12.1590 C.3     7  GLY7        0.1956
      3  C         -4.0770   -1.8590  -10.7400 C.2     7  GLY7        0.2612
      4  O         -5.2390   -1.8170  -10.3390 O.2     7  GLY7       -0.2717
      5  N         -3.0500   -2.2320   -9.9760 N.am    8  LYS8       -0.1965
      6  CA        -3.1980   -2.5380   -8.5480 C.3     8  LYS8        0.1728
      7  C         -3.5750   -1.3210   -7.6910 C.2     8  LYS8        0.2617
      8  O         -4.0530   -1.4860   -6.5650 O.2     8  LYS8       -0.2715
      9  CB        -1.9290   -3.1960   -7.9870 C.3     8  LYS8        0.0311
     10  CG        -2.0210   -4.7070   -7.7590 C.3     8  LYS8        0.0038
     11  CD        -1.8140   -5.5100   -9.0400 C.3     8  LYS8        0.0206
     12  CE        -1.1590   -6.8620   -8.7590 C.3     8  LYS8        0.1093
     13  NZ        -1.8360   -7.6330   -7.6830 N.3     8  LYS8       -0.1314
     14  N         -3.3720   -0.1140   -8.2240 N.am    9  GLY9       -0.1940
     15  CA        -3.6400    1.1230   -7.4760 C.3     9  GLY9        0.2014
     16  C         -5.0730    1.6240   -7.5010 C.2     9  GLY9        0.2639
     17  O         -5.8860    1.1590   -8.2980 O.2     9  GLY9       -0.2714
     18  N         -5.3840    2.5730   -6.6190 N.am   10  LEU10      -0.1963
     19  CA        -6.7250    3.1710   -6.5670 C.3    10  LEU10       0.1728
     20  C         -6.9240    4.1320   -7.7360 C.2    10  LEU10       0.2617
     21  O         -8.0540    4.3470   -8.1810 O.2    10  LEU10      -0.2715
     22  CB        -7.0000    3.8650   -5.2230 C.3    10  LEU10       0.0311
     23  CG        -7.2460    2.9650   -4.0000 C.3    10  LEU10       0.0022
     24  CD1       -7.2000    3.7550   -2.6880 C.3    10  LEU10       0.0001
     25  CD2       -8.5540    2.1810   -4.1190 C.3    10  LEU10       0.0001
     26  N         -5.8180    4.6740   -8.2420 N.am   11  GLY11      -0.1940
     27  CA        -5.8310    5.5290   -9.4230 C.3    11  GLY11       0.2014
     28  C         -5.2600    6.9070   -9.1550 C.2    11  GLY11       0.2638
     29  O         -5.2280    7.3730   -8.0120 O.2    11  GLY11      -0.2714
     30  OH         2.2330    6.0520  -12.1830 O.2    12  LYS12      -0.2733
     31  CH         2.4390    7.2550  -12.2640 C.2    12  LYS12       0.2419
     32  CH3        3.6790    7.7730  -12.9650 C.3    12  LYS12       0.0964
     33  NZ         1.6510    8.1880  -11.7290 N.am   12  LYS12      -0.2054
     34  CE         0.4500    7.8360  -10.9760 C.3    12  LYS12       0.1151
     35  CD        -0.7170    8.6620  -11.4710 C.3    12  LYS12       0.0235
     36  CG        -1.9730    8.1890  -10.7610 C.3    12  LYS12       0.0040
     37  CB        -3.1430    9.0650  -11.1490 C.3    12  LYS12       0.0298
     38  CA        -4.2880    8.9140  -10.1540 C.3    12  LYS12       0.1596
     39  N         -4.8120    7.5570  -10.2250 N.am   12  LYS12      -0.1977
     40  C         -5.3770    9.8950  -10.5620 C.2    12  LYS12       0.2287
     41  O         -6.4210    9.4980  -11.0800 O.2    12  LYS12      -0.2864
@<TRIPOS>BOND
     1     1     2    1
     2    32    31    1
     3    31    30    2
     4    31    33   am
     5     2     3    1
     6    33    34    1
     7    35    34    1
     8    35    36    1
     9    37    36    1
    10    37    38    1
    11    41    40    2
    12     3     4    2
    13     3     5   am
    14    40    38    1
    15    39    38    1
    16    39    28   am
    17     5     6    1
    18    27    28    1
    19    27    26    1
    20    28    29    2
    21    11    12    1
    22    11    10    1
    23    12    13    1
    24     6     9    1
    25     6     7    1
    26    17    16    2
    27    26    20   am
    28    14     7   am
    29    14    15    1
    30    21    20    2
    31     9    10    1
    32    20    19    1
    33     7     8    2
    34    16    15    1
    35    16    18   am
    36    18    19    1
    37    19    22    1
    38    22    23    1
    39    25    23    1
    40    23    24    1
