@<TRIPOS>MOLECULE
3qzx_HEM_A_1.pdb
 43 50 0 0 0
SMALL
GASTEIGER

@<TRIPOS>ATOM
      1  CHA      -11.6970    4.3270  -11.0200 C.2   200  HEM200      0.0000
      2  CHB       -8.6810    0.7040   -9.8000 C.2   200  HEM200      0.0000
      3  CHC       -9.0810    2.1860   -5.2000 C.2   200  HEM200      0.0000
      4  CHD      -13.3590    4.0330   -6.4800 C.2   200  HEM200      0.0000
      5  C1A      -10.8020    3.2640  -11.1250 C.ar  200  HEM200      0.0000
      6  C2A      -10.2840    2.6810  -12.3350 C.ar  200  HEM200      0.0000
      7  C3A       -9.4520    1.6850  -11.9780 C.ar  200  HEM200      0.0000
      8  C4A       -9.4370    1.5940  -10.5320 C.ar  200  HEM200      0.0000
      9  CMA       -8.6360    0.7620  -12.8930 C.3   200  HEM200      0.0000
     10  CAA      -10.5900    3.2030  -13.7520 C.3   200  HEM200      0.0000
     11  CBA       -9.3610    3.9850  -14.2810 C.3   200  HEM200      0.0000
     12  CGA       -9.6470    4.5790  -15.6410 C.2   200  HEM200      0.0000
     13  O1A       -9.1830    4.0360  -16.6900 O.co2 200  HEM200      0.0000
     14  O2A      -10.3780    5.6040  -15.6870 O.co2 200  HEM200      0.0000
     15  C1B       -8.5050    0.7910   -8.4390 C.2   200  HEM200      0.0000
     16  C2B       -7.5060    0.0750   -7.6600 C.2   200  HEM200      0.0000
     17  C3B       -7.5740    0.5170   -6.3920 C.2   200  HEM200      0.0000
     18  C4B       -8.6300    1.5300   -6.3470 C.2   200  HEM200      0.0000
     19  CMB       -6.5560   -0.9630   -8.2540 C.3   200  HEM200      0.0000
     20  CAB       -6.7190    0.1580   -5.1850 C.2   200  HEM200      0.0000
     21  CBB       -5.9180   -0.8930   -5.1130 C.2   200  HEM200      0.0000
     22  C1C      -10.3350    2.7710   -5.1260 C.ar  200  HEM200      0.0000
     23  C2C      -11.0830    3.0120   -3.9150 C.ar  200  HEM200      0.0000
     24  C3C      -12.2950    3.4500   -4.2760 C.ar  200  HEM200      0.0000
     25  C4C      -12.3370    3.5340   -5.7110 C.ar  200  HEM200      0.0000
     26  CMC      -10.5480    2.7800   -2.4910 C.3   200  HEM200      0.0000
     27  CAC      -13.4470    3.7500   -3.3490 C.2   200  HEM200      0.0000
     28  CBC      -14.6430    3.1800   -3.6590 C.2   200  HEM200      0.0000
     29  C1D      -13.2440    4.4380   -7.7830 C.2   200  HEM200      0.0000
     30  C2D      -14.0270    5.4500   -8.4460 C.2   200  HEM200      0.0000
     31  C3D      -13.4890    5.5860   -9.7900 C.2   200  HEM200      0.0000
     32  C4D      -12.4040    4.6310   -9.8640 C.2   200  HEM200      0.0000
     33  CMD      -15.1760    6.2540   -7.8360 C.3   200  HEM200      0.0000
     34  CAD      -13.9090    6.5790  -10.8600 C.3   200  HEM200      0.0000
     35  CBD      -13.0200    7.8360  -10.6740 C.3   200  HEM200      0.0000
     36  CGD      -13.3810    8.8740  -11.7240 C.2   200  HEM200      0.0000
     37  O1D      -14.3270    9.6780  -11.4850 O.co2 200  HEM200      0.0000
     38  O2D      -12.7280    8.9040  -12.8040 O.co2 200  HEM200      0.0000
     39  NA       -10.2780    2.5720  -10.0400 N.ar  200  HEM200      0.0000
     40  NB        -9.2040    1.6500   -7.6130 N.2   200  HEM200      0.0000
     41  NC       -11.1230    3.0840   -6.2180 N.ar  200  HEM200      0.0000
     42  ND       -12.2470    3.9880   -8.6370 N.2   200  HEM200      0.0000
     43 FE        -10.6110    2.9310   -8.1210 Fe    200  HEM200      0.0000
@<TRIPOS>BOND
     1    13    12   ar
     2    14    12   ar
     3    12    11    1
     4    11    10    1
     5    10     6    1
     6     9     7    1
     7    38    36   ar
     8     6     7   ar
     9     6     5   ar
    10     7     8   ar
    11    36    37   ar
    12    36    35    1
    13     5     1    2
    14     5    39   ar
    15     1    32    1
    16    34    35    1
    17    34    31    1
    18     8    39   ar
    19     8     2    2
    20    39    43    1
    21    32    31    1
    22    32    42    2
    23     2    15    1
    24    31    30    2
    25    42    43    1
    26    42    29    1
    27    30    33    1
    28    30    29    1
    29    15    16    1
    30    15    40    2
    31    19    16    1
    32    43    40    1
    33    43    41    1
    34    29     4    2
    35    16    17    2
    36    40    18    1
    37     4    25    1
    38    17    18    1
    39    17    20    1
    40    18     3    2
    41    41    25   ar
    42    41    22   ar
    43    25    24   ar
    44     3    22    1
    45    20    21    2
    46    22    23   ar
    47    24    23   ar
    48    24    27    1
    49    23    26    1
    50    28    27    2
