@<TRIPOS>MOLECULE
3qzz_HEM_A_1.pdb
 43 50 0 0 0
SMALL
GASTEIGER

@<TRIPOS>ATOM
      1  CHA      -11.9140    3.9120  -10.8930 C.2   200  HEM200      0.0000
      2  CHB       -8.5640    0.6070   -9.7940 C.2   200  HEM200      0.0000
      3  CHC       -9.1480    2.1970   -5.2470 C.2   200  HEM200      0.0000
      4  CHD      -13.4900    4.0040   -6.2650 C.2   200  HEM200      0.0000
      5  C1A      -10.9240    2.9750  -11.0050 C.ar  200  HEM200      0.0000
      6  C2A      -10.3260    2.5180  -12.2380 C.ar  200  HEM200      0.0000
      7  C3A       -9.3980    1.5990  -11.9610 C.ar  200  HEM200      0.0000
      8  C4A       -9.3780    1.4380  -10.5270 C.ar  200  HEM200      0.0000
      9  CMA       -8.5200    0.8540  -12.9850 C.3   200  HEM200      0.0000
     10  CAA      -10.7010    3.0190  -13.6270 C.3   200  HEM200      0.0000
     11  CBA       -9.7750    4.1900  -13.9080 C.3   200  HEM200      0.0000
     12  CGA       -9.8300    4.4250  -15.3990 C.2   200  HEM200      0.0000
     13  O1A       -9.7200    3.4180  -16.1390 O.co2 200  HEM200      0.0000
     14  O2A       -9.9920    5.5950  -15.8480 O.co2 200  HEM200      0.0000
     15  C1B       -8.3910    0.7780   -8.4330 C.2   200  HEM200      0.0000
     16  C2B       -7.4120    0.1230   -7.5690 C.2   200  HEM200      0.0000
     17  C3B       -7.5850    0.5700   -6.3210 C.2   200  HEM200      0.0000
     18  C4B       -8.6720    1.5240   -6.3510 C.2   200  HEM200      0.0000
     19  CMB       -6.3430   -0.8970   -7.9940 C.3   200  HEM200      0.0000
     20  CAB       -6.7740    0.1750   -5.0670 C.2   200  HEM200      0.0000
     21  CBB       -5.6450   -0.5480   -5.1640 C.2   200  HEM200      0.0000
     22  C1C      -10.4080    2.7160   -5.0960 C.ar  200  HEM200      0.0000
     23  C2C      -11.0770    2.9780   -3.8340 C.ar  200  HEM200      0.0000
     24  C3C      -12.2890    3.4860   -4.0800 C.ar  200  HEM200      0.0000
     25  C4C      -12.4180    3.5540   -5.5250 C.ar  200  HEM200      0.0000
     26  CMC      -10.4360    2.7070   -2.4730 C.3   200  HEM200      0.0000
     27  CAC      -13.3430    3.9140   -3.0410 C.2   200  HEM200      0.0000
     28  CBC      -14.6110    3.5030   -3.1730 C.2   200  HEM200      0.0000
     29  C1D      -13.3500    4.3600   -7.5900 C.2   200  HEM200      0.0000
     30  C2D      -13.9940    5.4810   -8.2520 C.2   200  HEM200      0.0000
     31  C3D      -13.4860    5.4410   -9.7010 C.2   200  HEM200      0.0000
     32  C4D      -12.5910    4.3030   -9.7590 C.2   200  HEM200      0.0000
     33  CMD      -14.9840    6.4950   -7.6410 C.3   200  HEM200      0.0000
     34  CAD      -13.8400    6.4050  -10.8560 C.3   200  HEM200      0.0000
     35  CBD      -12.9880    7.6680  -10.7460 C.3   200  HEM200      0.0000
     36  CGD      -13.4500    8.6980  -11.7500 C.2   200  HEM200      0.0000
     37  O1D      -14.2280    9.6060  -11.3550 O.co2 200  HEM200      0.0000
     38  O2D      -13.0440    8.6120  -12.9520 O.co2 200  HEM200      0.0000
     39  NA       -10.3200    2.3010   -9.9980 N.ar  200  HEM200      0.0000
     40  NB        -9.1450    1.6400   -7.6570 N.2   200  HEM200      0.0000
     41  NC       -11.2490    3.0730   -6.0900 N.ar  200  HEM200      0.0000
     42  ND       -12.5250    3.6960   -8.5000 N.2   200  HEM200      0.0000
     43 FE        -10.7770    2.7820   -8.0800 Fe    200  HEM200      0.0000
@<TRIPOS>BOND
     1    13    12   ar
     2    14    12   ar
     3    12    11    1
     4    11    10    1
     5    10     6    1
     6     9     7    1
     7    38    36   ar
     8     6     7   ar
     9     6     5   ar
    10     7     8   ar
    11    36    37   ar
    12    36    35    1
    13     5     1    2
    14     5    39   ar
    15     1    32    1
    16    34    35    1
    17    34    31    1
    18     8    39   ar
    19     8     2    2
    20    39    43    1
    21     2    15    1
    22    32    31    1
    23    32    42    2
    24    31    30    2
    25    42    43    1
    26    42    29    1
    27    15    40    2
    28    15    16    1
    29    30    33    1
    30    30    29    1
    31    43    40    1
    32    43    41    1
    33    19    16    1
    34    40    18    1
    35    29     4    2
    36    16    17    2
    37    18    17    1
    38    18     3    2
    39    17    20    1
    40     4    25    1
    41    41    25   ar
    42    41    22   ar
    43    25    24   ar
    44     3    22    1
    45    21    20    2
    46    22    23   ar
    47    24    23   ar
    48    24    27    1
    49    23    26    1
    50    28    27    2
