@<TRIPOS>MOLECULE
3r00_UNJ_A_1.pdb
 13 14 0 0 0
SMALL
GASTEIGER

@<TRIPOS>ATOM
      1  C1       -17.5840  -36.0970   -2.0010 C.ar    1  UNJ1        0.2246
      2  O2       -18.0610  -37.0230   -2.8850 O.2     1  UNJ1       -0.4468
      3  C3       -18.1790  -36.2230   -0.7680 C.ar    1  UNJ1        0.0474
      4  C4       -19.0600  -37.2370   -0.9150 C.ar    1  UNJ1        0.0383
      5  C5       -16.4610  -35.2650   -2.5470 C.2     1  UNJ1        0.4216
      6  C6       -18.9970  -37.6990   -2.2290 C.ar    1  UNJ1        0.1456
      7  C7       -20.0010  -37.8490   -0.0470 C.ar    1  UNJ1        0.0098
      8  O8       -16.0130  -34.3270   -1.8490 O.co2   1  UNJ1       -0.2371
      9  C9       -19.7900  -38.6930   -2.7730 C.ar    1  UNJ1        0.0380
     10  C10      -20.7560  -38.8660   -0.6170 C.ar    1  UNJ1        0.0348
     11  O11      -15.9800  -35.6460   -3.6970 O.co2   1  UNJ1       -0.2371
     12  C12      -20.6520  -39.3020   -1.9080 C.ar    1  UNJ1        0.0098
     13 BR13      -22.0690  -39.8880    0.3510 Br      1  UNJ1       -0.0490
@<TRIPOS>BOND
     1    11     5   ar
     2     2     6   ar
     3     2     1   ar
     4     9     6   ar
     5     9    12   ar
     6     5     1    1
     7     5     8   ar
     8     6     4   ar
     9     1     3   ar
    10    12    10   ar
    11     4     3   ar
    12     4     7   ar
    13    10     7   ar
    14    10    13    1
