@<TRIPOS>MOLECULE
3r01_UNE_A_1.pdb
 15 16 0 0 0
SMALL
GASTEIGER

@<TRIPOS>ATOM
      1  O01       22.2000   33.4440    0.6570 O.2     1  UNE1       -0.4437
      2  C02       22.6210   33.1260    1.9110 C.ar    1  UNE1        0.2247
      3  C03       23.1870   34.2310    2.5160 C.ar    1  UNE1        0.0475
      4  C04       23.1240   35.2700    1.5600 C.ar    1  UNE1        0.0414
      5  C05       22.5240   34.7710    0.4300 C.ar    1  UNE1        0.1793
      6  C06       22.2890   35.5080   -0.7240 C.ar    1  UNE1        0.1735
      7  C07       22.6670   36.8490   -0.7020 C.ar    1  UNE1        0.0468
      8  C08       23.2910   37.3540    0.4540 C.ar    1  UNE1        0.0378
      9  C09       23.5590   36.6820    1.6080 C.ar    1  UNE1        0.0100
     10 BR10       23.7680   39.1750    0.1570 Br      1  UNE1       -0.0489
     11  O11       21.6800   34.9840   -1.8390 O.3     1  UNE1       -0.4683
     12  C12       21.6890   35.7180   -3.0250 C.3     1  UNE1        0.2526
     13  C13       22.4320   31.7800    2.4330 C.2     1  UNE1        0.4216
     14  O14       21.8660   30.9710    1.6980 O.co2   1  UNE1       -0.2371
     15  O15       22.8940   31.5170    3.6890 O.co2   1  UNE1       -0.2371
@<TRIPOS>BOND
     1    12    11    1
     2    11     6    1
     3     6     7   ar
     4     6     5   ar
     5     7     8   ar
     6    10     8    1
     7     5     1   ar
     8     5     4   ar
     9     8     9   ar
    10     1     2   ar
    11     4     9   ar
    12     4     3   ar
    13    14    13   ar
    14     2    13    1
    15     2     3   ar
    16    13    15   ar
