@<TRIPOS>MOLECULE
3r02_UNM_A_1.pdb
 21 23 0 0 0
SMALL
GASTEIGER

@<TRIPOS>ATOM
      1  C01       20.7180  -38.6020    0.8390 C.ar  555  UNM555      0.0360
      2  C02       19.0230  -37.5340    2.0420 C.ar  555  UNM555      0.0396
      3  C03       20.0680  -38.4750    2.0560 C.ar  555  UNM555      0.0099
      4  C04       18.7520  -36.7700    0.9030 C.ar  555  UNM555      0.1603
      5  C05       20.4420  -37.9490   -0.3510 C.ar  555  UNM555      0.0259
      6  C06       19.4000  -36.9570   -0.3280 C.ar  555  UNM555      0.1001
      7  O07       17.7960  -35.8540    1.0860 O.2   555  UNM555     -0.4455
      8  C08       18.1690  -37.0070    3.0720 C.ar  555  UNM555      0.0475
      9  C09       17.4610  -36.0250    2.3810 C.ar  555  UNM555      0.2246
     10  C10       16.3790  -35.2020    2.8340 C.2   555  UNM555      0.4216
     11  O11       15.8860  -34.3610    2.0210 O.co2 555  UNM555     -0.2371
     12  O12       15.8820  -35.4370    4.0440 O.co2 555  UNM555     -0.2371
     13 BR13       22.1270  -39.9960    0.6740 Br    555  UNM555     -0.0490
     14  C14       19.7050  -36.5090   -2.8550 C.3   555  UNM555      0.0927
     15  C15       19.2250  -37.9060   -3.4430 C.3   555  UNM555      0.0231
     16  C16       17.6750  -37.9430   -3.6260 C.3   555  UNM555      0.0208
     17  C17       17.1310  -36.8660   -4.6520 C.3   555  UNM555      0.0919
     18  C18       17.6660  -35.4520   -4.1710 C.3   555  UNM555      0.0208
     19  C19       19.1850  -35.4500   -3.8400 C.3   555  UNM555      0.0231
     20  N20       15.6810  -36.9290   -4.9170 N.3   555  UNM555     -0.1329
     21  N21       19.1320  -36.2350   -1.4740 N.pl3 555  UNM555     -0.2363
@<TRIPOS>BOND
     1    20    17    1
     2    17    18    1
     3    17    16    1
     4    18    19    1
     5    19    14    1
     6    16    15    1
     7    15    14    1
     8    14    21    1
     9    21     6    1
    10     5     6   ar
    11     5     1   ar
    12     6     4   ar
    13    13     1    1
    14     1     3   ar
    15     4     7   ar
    16     4     2   ar
    17     7     9   ar
    18    11    10   ar
    19     2     3   ar
    20     2     8   ar
    21     9    10    1
    22     9     8   ar
    23    10    12   ar
