@<TRIPOS>MOLECULE
3r03_ADP_A_1.pdb
 27 29 0 0 0
SMALL
GASTEIGER

@<TRIPOS>ATOM
      1  PB        41.2360   15.2610   37.9220 P.3     1  ADP1        0.5373
      2  O1B       41.6200   14.0010   37.2710 O.2     1  ADP1       -0.2221
      3  O2B       42.2600   15.6610   38.8940 O.3     1  ADP1       -0.1143
      4  O3B       39.7970   15.0480   38.7110 O.3     1  ADP1       -0.1143
      5  PA        41.9700   16.1940   35.3990 P.3     1  ADP1        0.2231
      6  O1A       43.1380   15.3730   35.7360 O.3     1  ADP1       -0.4370
      7  O2A       42.3860   17.4560   34.7650 O.2     1  ADP1       -0.5169
      8  O3A       41.0960   16.4320   36.7710 O.3     1  ADP1       -0.2261
      9  O5'       40.9700   15.4200   34.3360 O.3     1  ADP1       -0.3111
     10  C5'       40.0700   16.2100   33.6020 C.3     1  ADP1        0.1813
     11  C4'       38.6520   15.9150   33.9670 C.3     1  ADP1        0.1821
     12  O4'       37.8650   15.8320   32.8160 O.3     1  ADP1       -0.3135
     13  C3'       38.5680   14.7970   34.5850 C.3     1  ADP1        0.2184
     14  O3'       38.2560   14.9100   35.6350 O.3     1  ADP1       -0.2174
     15  C2'       37.8740   13.9440   33.9120 C.3     1  ADP1        0.2570
     16  O2'       36.8050   13.4210   34.6950 O.3     1  ADP1       -0.2130
     17  C1'       37.3930   14.6250   32.7450 C.3     1  ADP1        0.3186
     18  N9        37.7900   13.9400   31.5450 N.pl3   1  ADP1       -0.1439
     19  C8        36.9470   13.0820   30.7690 C.3     1  ADP1        0.3377
     20  N7        37.6340   12.6200   29.7930 N.2     1  ADP1       -0.2095
     21  C5        39.0190   13.1860   29.9040 C.2     1  ADP1        0.2526
     22  C6        40.2370   12.9980   29.0620 C.2     1  ADP1        0.4393
     23  N6        40.1900   12.1130   27.9100 N.pl3   1  ADP1        0.2180
     24  N1        41.3120   13.5820   29.3530 N.2     1  ADP1        0.0021
     25  C2        41.3700   14.4650   30.5440 C.3     1  ADP1        0.5254
     26  N3        40.3160   14.6210   31.2660 N.2     1  ADP1       -0.0055
     27  C4        39.0650   13.9520   30.9420 C.2     1  ADP1        0.3518
@<TRIPOS>BOND
     1    23    22    1
     2    22    24    2
     3    22    21    1
     4    24    25    1
     5    20    21    2
     6    20    19    1
     7    21    27    1
     8    25    26    1
     9    19    18    1
    10    27    26    2
    11    27    18    1
    12    18    17    1
    13    17    12    1
    14    17    15    1
    15    12    11    1
    16    10    11    1
    17    10     9    1
    18    15    13    1
    19    15    16    1
    20    11    13    1
    21     9     5    1
    22    13    14    1
    23     7     5    2
    24     5     6    1
    25     5     8    1
    26     8     1    1
    27     2     1    2
    28     1     4    1
    29     1     3    1
