@<TRIPOS>MOLECULE
3r04_UNQ_A_1.pdb
 26 29 0 0 0
SMALL
GASTEIGER

@<TRIPOS>ATOM
      1  C01       23.3010  -37.3150   -0.5070 C.ar  555  UNQ555      0.0276
      2  C02       22.7950  -35.0800   -1.0660 C.ar  555  UNQ555      0.0379
      3  C03       22.8000  -36.0590   -0.1130 C.ar  555  UNQ555      0.0054
      4  C04       23.2570  -35.3100   -2.3790 C.ar  555  UNQ555      0.1456
      5  C05       23.7470  -37.5340   -1.8440 C.ar  555  UNQ555      0.0054
      6  C06       23.6990  -36.5730   -2.8450 C.ar  555  UNQ555      0.0376
      7  O07       23.1030  -34.1690   -3.1370 O.2   555  UNQ555     -0.4468
      8  C08       22.3450  -33.6730   -0.9800 C.ar  555  UNQ555      0.0474
      9  C09       22.5470  -33.2420   -2.2520 C.ar  555  UNQ555      0.2246
     10  C10       22.3520  -31.8240   -2.7510 C.2   555  UNQ555      0.4216
     11  O11       21.8430  -30.9210   -2.0610 O.co2 555  UNQ555     -0.2371
     12  O12       23.0210  -31.6630   -3.8860 O.co2 555  UNQ555     -0.2371
     13  C13       23.4160  -38.3400    0.5610 C.2   555  UNQ555      0.1352
     14  C14       23.6140  -39.1170    2.8010 C.2   555  UNQ555      0.2176
     15  N15       23.4420  -38.0560    1.9100 N.2   555  UNQ555     -0.3862
     16  C16       23.7700  -40.4450    2.3330 C.2   555  UNQ555      0.1427
     17  C17       23.6450  -39.6670    0.1400 C.3   555  UNQ555      0.1841
     18  N18       23.7900  -40.7110    1.0140 N.2   555  UNQ555     -0.2572
     19  N19       23.6030  -38.8180    4.1710 N.pl3 555  UNQ555     -0.2103
     20  C20       23.1970  -37.4220    4.5770 C.3   555  UNQ555      0.0952
     21  C21       22.7150  -37.4300    6.0660 C.3   555  UNQ555      0.0231
     22  C22       22.4650  -35.9830    6.5920 C.3   555  UNQ555      0.0208
     23  C23       23.6900  -35.0520    6.3890 C.3   555  UNQ555      0.0919
     24  C24       24.1110  -35.0680    4.9040 C.3   555  UNQ555      0.0208
     25  C25       24.4530  -36.4870    4.4470 C.3   555  UNQ555      0.0231
     26  N26       23.5430  -33.7360    6.9350 N.3   555  UNQ555     -0.1329
@<TRIPOS>BOND
     1    12    10   ar
     2     7     4   ar
     3     7     9   ar
     4     6     4   ar
     5     6     5   ar
     6    10     9    1
     7    10    11   ar
     8     4     2   ar
     9     9     8   ar
    10     5     1   ar
    11     2     8   ar
    12     2     3   ar
    13     1     3   ar
    14     1    13    1
    15    17    13    1
    16    17    18    1
    17    13    15    2
    18    18    16    2
    19    15    14    2
    20    16    14    1
    21    14    19    1
    22    19    20    1
    23    25    20    1
    24    25    24    1
    25    20    21    1
    26    24    23    1
    27    21    22    1
    28    23    22    1
    29    23    26    1
