@<TRIPOS>MOLECULE
3r0d_PXN_A_1.pdb
 25 24 0 0 0
SMALL
GASTEIGER

@<TRIPOS>ATOM
      1  CAA      -62.9300   -5.4790   -8.0920 C.3   427  PXN427      0.0382
      2  CAB      -54.9670   -3.6360   -5.6470 C.3   427  PXN427      0.0382
      3  CAC      -59.9010   -3.2220   -9.6530 C.3   427  PXN427      0.1494
      4  OAD      -61.1530   -3.8480   -9.6150 O.3   427  PXN427     -0.3508
      5  CAE      -62.2130   -3.2190   -8.9610 C.3   427  PXN427      0.1748
      6  CAF      -63.3560   -4.1100   -8.5800 C.3   427  PXN427      0.1815
      7  OAG      -64.2920   -3.4400   -7.8140 O.3   427  PXN427     -0.2205
      8  OAH      -57.0560   -4.6520   -4.9440 O.3   427  PXN427     -0.2205
      9  CAI      -56.4220   -3.9180   -5.9270 C.3   427  PXN427      0.1815
     10  CAJ      -56.6800   -4.4260   -7.3290 C.3   427  PXN427      0.1748
     11  OAK      -58.0200   -4.4210   -7.7650 O.3   427  PXN427     -0.3508
     12  CAL      -58.3520   -5.0410   -8.9810 C.3   427  PXN427      0.1494
     13  CAM      -58.7520   -4.1120  -10.1090 C.3   427  PXN427      0.1092
     14  CAN      -57.5710   -3.2610  -10.4990 C.3   427  PXN427      0.1494
     15  OAO      -56.4690   -3.9840  -10.9380 O.3   427  PXN427     -0.3508
     16  CAP      -55.1910   -3.4960  -10.6060 C.3   427  PXN427      0.1748
     17  CAQ      -54.2190   -4.4790  -10.0080 C.3   427  PXN427      0.1815
     18  OAR      -53.1230   -3.8360   -9.4810 O.3   427  PXN427     -0.2205
     19  OAS      -59.0670   -3.7720  -15.6670 O.3   427  PXN427     -0.2205
     20  CAT      -60.1120   -3.9170  -14.7790 C.3   427  PXN427      0.1815
     21  CAU      -59.7760   -4.8570  -13.6430 C.3   427  PXN427      0.1748
     22  OAV      -59.0370   -4.3300  -12.5720 O.3   427  PXN427     -0.3508
     23  CAW      -59.2040   -4.9160  -11.3090 C.3   427  PXN427      0.1494
     24  CAX      -53.9190   -5.6680  -10.9040 C.3   427  PXN427      0.0382
     25  CAY      -60.7440   -2.6190  -14.3680 C.3   427  PXN427      0.0382
@<TRIPOS>BOND
     1    19    20    1
     2    20    25    1
     3    20    21    1
     4    21    22    1
     5    22    23    1
     6    23    13    1
     7    15    16    1
     8    15    14    1
     9    24    17    1
    10    16    17    1
    11    14    13    1
    12    13     3    1
    13    13    12    1
    14    17    18    1
    15     3     4    1
    16     4     5    1
    17    12    11    1
    18     5     6    1
    19     6     1    1
    20     6     7    1
    21    11    10    1
    22    10     9    1
    23     9     2    1
    24     9     8    1
