@<TRIPOS>MOLECULE
3r0g_HEM_A_1.pdb
 43 50 0 0 0
SMALL
GASTEIGER

@<TRIPOS>ATOM
      1  CHA        4.0880   -4.2630   33.2520 C.2   200  HEM200      0.0000
      2  CHB        3.4850   -0.5800   30.1410 C.2   200  HEM200      0.0000
      3  CHC       -1.0160   -2.2230   29.4580 C.2   200  HEM200      0.0000
      4  CHD       -0.7360   -4.0620   33.9680 C.2   200  HEM200      0.0000
      5  C1A        4.3650   -3.1720   32.4430 C.ar  200  HEM200      0.0000
      6  C2A        5.6660   -2.5720   32.1970 C.ar  200  HEM200      0.0000
      7  C3A        5.5020   -1.5580   31.3350 C.ar  200  HEM200      0.0000
      8  C4A        4.0920   -1.4790   30.9910 C.ar  200  HEM200      0.0000
      9  CMA        6.6320   -0.6320   30.8140 C.3   200  HEM200      0.0000
     10  CAA        7.0160   -3.0090   32.8250 C.3   200  HEM200      0.0000
     11  CBA        7.7670   -3.8300   31.7810 C.3   200  HEM200      0.0000
     12  CGA        9.1080   -4.3050   32.2730 C.2   200  HEM200      0.0000
     13  O1A       10.1620   -3.8530   31.7640 O.co2 200  HEM200      0.0000
     14  O2A        9.1280   -5.1740   33.1730 O.co2 200  HEM200      0.0000
     15  C1B        2.1990   -0.6940   29.6220 C.2   200  HEM200      0.0000
     16  C2B        1.5830    0.0910   28.5670 C.2   200  HEM200      0.0000
     17  C3B        0.3360   -0.3580   28.3690 C.2   200  HEM200      0.0000
     18  C4B        0.1150   -1.4500   29.2950 C.2   200  HEM200      0.0000
     19  CMB        2.2710    1.2500   27.8180 C.3   200  HEM200      0.0000
     20  CAB       -0.7220    0.1490   27.3480 C.2   200  HEM200      0.0000
     21  CBB       -0.6690    1.3460   26.7520 C.2   200  HEM200      0.0000
     22  C1C       -1.3710   -2.7880   30.6750 C.ar  200  HEM200      0.0000
     23  C2C       -2.7120   -3.1230   31.1160 C.ar  200  HEM200      0.0000
     24  C3C       -2.6270   -3.6180   32.3490 C.ar  200  HEM200      0.0000
     25  C4C       -1.2430   -3.6150   32.7550 C.ar  200  HEM200      0.0000
     26  CMC       -4.0120   -2.9490   30.2930 C.3   200  HEM200      0.0000
     27  CAC       -3.8070   -4.1020   33.2080 C.2   200  HEM200      0.0000
     28  CBC       -3.9680   -3.5310   34.4060 C.2   200  HEM200      0.0000
     29  C1D        0.5700   -4.4940   34.1170 C.2   200  HEM200      0.0000
     30  C2D        1.0490   -5.5720   34.9570 C.2   200  HEM200      0.0000
     31  C3D        2.5580   -5.6430   34.7130 C.2   200  HEM200      0.0000
     32  C4D        2.8430   -4.5950   33.7600 C.2   200  HEM200      0.0000
     33  CMD        0.2200   -6.4750   35.9000 C.3   200  HEM200      0.0000
     34  CAD        3.5680   -6.6220   35.3680 C.3   200  HEM200      0.0000
     35  CBD        3.7900   -7.7890   34.4130 C.3   200  HEM200      0.0000
     36  CGD        4.7020   -8.8090   35.0650 C.2   200  HEM200      0.0000
     37  O1D        4.1730   -9.5830   35.9200 O.co2 200  HEM200      0.0000
     38  O2D        5.9470   -8.8070   34.7450 O.co2 200  HEM200      0.0000
     39  NA         3.4380   -2.4910   31.6790 N.ar  200  HEM200      0.0000
     40  NB         1.2670   -1.6210   30.0360 N.2   200  HEM200      0.0000
     41  NC        -0.5060   -3.1020   31.7030 N.ar  200  HEM200      0.0000
     42  ND         1.6540   -3.9510   33.4330 N.2   200  HEM200      0.0000
     43 FE          1.4570   -2.8580   31.6400 Fe    200  HEM200      0.0000
@<TRIPOS>BOND
     1    21    20    2
     2    20    17    1
     3    19    16    1
     4    17    16    2
     5    17    18    1
     6    16    15    1
     7    18     3    2
     8    18    40    1
     9     3    22    1
    10    15    40    2
    11    15     2    1
    12    40    43    1
    13     2     8    2
    14    26    23    1
    15    22    23   ar
    16    22    41   ar
    17     9     7    1
    18     8     7   ar
    19     8    39   ar
    20    23    24   ar
    21     7     6   ar
    22    43    39    1
    23    43    41    1
    24    43    42    1
    25    39     5   ar
    26    41    25   ar
    27    13    12   ar
    28    11    12    1
    29    11    10    1
    30     6     5   ar
    31     6    10    1
    32    12    14   ar
    33    24    25   ar
    34    24    27    1
    35     5     1    2
    36    25     4    1
    37    27    28    2
    38     1    32    1
    39    42    32    2
    40    42    29    1
    41    32    31    1
    42     4    29    2
    43    29    30    1
    44    35    36    1
    45    35    34    1
    46    31    30    2
    47    31    34    1
    48    38    36   ar
    49    30    33    1
    50    36    37   ar
