@<TRIPOS>MOLECULE
3r0i_C0K_A_1.pdb
 20 20 0 0 0
SMALL
GASTEIGER

@<TRIPOS>ATOM
      1  C1        11.2810   -2.9760   38.7810 C.ar  991  C0K991      0.0317
      2  C2        10.5650   -4.1670   38.5060 C.ar  991  C0K991     -0.0014
      3  C3         9.6400   -4.2090   37.4270 C.ar  991  C0K991     -0.0132
      4  C4         9.4280   -3.0660   36.6380 C.ar  991  C0K991      0.0281
      5  C5        10.1380   -1.8820   36.9130 C.ar  991  C0K991      0.1671
      6  C6        11.0560   -1.8380   37.9640 C.ar  991  C0K991      0.1674
      7  C7         8.8070   -5.4030   37.0270 C.3   991  C0K991      0.0748
      8  P8         9.7680   -6.9520   36.6900 P.3   991  C0K991      0.1208
      9  O9        10.7780   -7.1900   37.8370 O.3   991  C0K991     -0.3569
     10  O10        8.7660   -8.0690   36.5230 O.3   991  C0K991     -0.3569
     11  O11       10.4480   -6.6840   35.3840 O.2   991  C0K991     -0.4598
     12  C12        7.4960   -5.4400   37.8680 C.3   991  C0K991      0.0183
     13  C13        6.5320   -4.3860   37.2530 C.3   991  C0K991      0.0503
     14  C14        5.8610   -4.5950   35.8550 C.2   991  C0K991      0.0676
     15  O15        5.7730   -5.7320   35.3370 O.2   991  C0K991     -0.5413
     16  N16        5.3700   -3.4850   35.1930 N.am  991  C0K991     -0.2827
     17  C17        5.4340   -2.0640   35.6130 C.3   991  C0K991      0.1196
     18  O18        4.6850   -3.6730   34.0000 O.3   991  C0K991     -0.4197
     19  F19        9.9480   -0.7440   36.1860 F     991  C0K991     -0.2018
     20  F20       11.6860   -0.6530   38.1210 F     991  C0K991     -0.2018
@<TRIPOS>BOND
     1    18    16    1
     2    16    17    1
     3    16    14   am
     4    15    14    2
     5    11     8    2
     6    14    13    1
     7    19     5    1
     8    10     8    1
     9     4     5   ar
    10     4     3   ar
    11     8     7    1
    12     8     9    1
    13     5     6   ar
    14     7     3    1
    15     7    12    1
    16    13    12    1
    17     3     2   ar
    18     6    20    1
    19     6     1   ar
    20     2     1   ar
