@<TRIPOS>MOLECULE
3r0q_SAH_A_1.pdb
 26 28 0 0 0
SMALL
GASTEIGER

@<TRIPOS>ATOM
      1  N        -48.7990   -2.1700  -21.3380 N.3     1  SAH1       -0.1208
      2  CA       -48.1140   -3.3830  -20.9060 C.3     1  SAH1        0.1952
      3  CB       -47.7120   -3.3200  -19.4280 C.3     1  SAH1        0.0422
      4  CG       -48.7220   -2.6440  -18.5080 C.3     1  SAH1        0.0597
      5  SD       -48.2930   -2.8460  -16.7630 S.3     1  SAH1       -0.1375
      6  C        -49.0080   -4.5780  -21.1740 C.2     1  SAH1        0.3819
      7  O        -50.2100   -4.3830  -21.3290 O.co2   1  SAH1       -0.2441
      8  OXT      -48.5680   -5.7350  -21.2320 O.co2   1  SAH1       -0.2441
      9  C5'      -48.2470   -1.0530  -16.5240 C.3     1  SAH1        0.0899
     10  C4'      -47.0570   -0.4170  -17.2250 C.3     1  SAH1        0.1630
     11  O4'      -47.2990    0.9630  -17.3690 O.3     1  SAH1       -0.3153
     12  C3'      -45.7620   -0.5400  -16.4500 C.3     1  SAH1        0.2168
     13  O3'      -44.7080   -0.6910  -17.3730 O.3     1  SAH1       -0.2175
     14  C2'      -45.5730    0.8040  -15.7960 C.3     1  SAH1        0.2569
     15  O2'      -44.1980    1.0730  -15.6860 O.3     1  SAH1       -0.2130
     16  C1'      -46.2530    1.7220  -16.7910 C.3     1  SAH1        0.3185
     17  N9       -46.7930    2.9740  -16.2200 N.pl3   1  SAH1       -0.1439
     18  C8       -47.5650    3.1550  -15.1010 C.3     1  SAH1        0.3377
     19  N7       -47.8270    4.4790  -14.9640 N.2     1  SAH1       -0.2095
     20  C5       -47.2350    5.1460  -15.9820 C.2     1  SAH1        0.2526
     21  C6       -47.1690    6.4910  -16.3370 C.2     1  SAH1        0.4393
     22  N6       -47.7640    7.4370  -15.6100 N.pl3   1  SAH1        0.2180
     23  N1       -46.4700    6.8630  -17.4580 N.2     1  SAH1        0.0021
     24  C2       -45.8340    5.9170  -18.2270 C.3     1  SAH1        0.5254
     25  N3       -45.8990    4.5910  -17.8720 N.2     1  SAH1       -0.0055
     26  C4       -46.5860    4.2100  -16.7720 C.2     1  SAH1        0.3518
@<TRIPOS>BOND
     1     1     2    1
     2     7     6   ar
     3     8     6   ar
     4     6     2    1
     5     2     3    1
     6     3     4    1
     7     4     5    1
     8    24    25    1
     9    24    23    1
    10    25    26    2
    11    23    21    2
    12    13    12    1
    13    11    10    1
    14    11    16    1
    15    10     9    1
    16    10    12    1
    17    16    17    1
    18    16    14    1
    19    26    17    1
    20    26    20    1
    21     5     9    1
    22    12    14    1
    23    21    20    1
    24    21    22    1
    25    17    18    1
    26    20    19    2
    27    14    15    1
    28    18    19    1
