@<TRIPOS>MOLECULE
3r0t_FU9_A_1.pdb
 32 36 0 0 0
SMALL
GASTEIGER

@<TRIPOS>ATOM
      1  N1        23.4210  -29.4780   10.4200 N.2   338  FU9338     -0.1686
      2  C2        23.4340  -28.4880   11.3390 C.1   338  FU9338      0.1653
      3  N3        23.3100  -28.7500   12.6490 N.2   338  FU9338     -0.3323
      4  C4        23.1850  -30.0060   13.0720 C.2   338  FU9338      0.1910
      5  C5        23.1470  -31.0450   12.1510 C.2   338  FU9338      0.0566
      6  C6        23.2870  -30.7440   10.7970 C.2   338  FU9338      0.1145
      7  OAA       22.4640  -36.5470   15.3420 O.co2 338  FU9338     -0.2409
      8  OAB       22.0860  -37.2140   13.2680 O.co2 338  FU9338     -0.2409
      9  FAC       24.1160  -31.1230   20.2890 F     338  FU9338     -0.1659
     10  FAD       22.0090  -30.9500   20.6960 F     338  FU9338     -0.1659
     11  FAE       22.7140  -32.2580   19.1280 F     338  FU9338     -0.1659
     12  CAF       22.5940  -27.5560   18.4090 C.ar  338  FU9338      0.0013
     13  CAG       22.7770  -27.7610   17.0490 C.ar  338  FU9338      0.0166
     14  CAH       22.6580  -28.6430   19.2690 C.ar  338  FU9338      0.0039
     15  CAI       22.8000  -34.7250   12.2020 C.2   338  FU9338      0.0028
     16  CAJ       22.9680  -33.4330   11.7210 C.2   338  FU9338      0.0023
     17  CAL       22.9730  -30.1300   17.4000 C.ar  338  FU9338      0.0204
     18  CAM       22.7080  -33.8700   14.4480 C.3   338  FU9338      0.0920
     19  CAN       23.5000  -24.7620   11.5310 C.3   338  FU9338      0.0242
     20  CAO       24.8340  -25.3070   12.0630 C.3   338  FU9338      0.0242
     21  NAQ       22.8850  -31.5200   14.8490 N.2   338  FU9338     -0.3865
     22  NAS       22.9850  -29.1540   15.1960 N.pl3 338  FU9338     -0.1814
     23  NAT       23.5800  -27.2160   10.9800 N.pl3 338  FU9338     -0.1639
     24  CAU       22.4860  -36.3650   14.1010 C.2   338  FU9338      0.3843
     25  CAV       22.8770  -29.0440   16.5270 C.ar  338  FU9338      0.0731
     26  CAW       22.7080  -34.9500   13.5740 C.2   338  FU9338      0.0646
     27  CAX       22.8430  -29.9250   18.7710 C.ar  338  FU9338      0.0727
     28  CAZ       23.0930  -30.2470   14.4320 C.2   338  FU9338      0.2336
     29  CBA       22.8740  -32.5680   13.9780 C.2   338  FU9338      0.1155
     30  CBB       22.9960  -32.3520   12.6090 C.2   338  FU9338      0.0299
     31  CBE       23.5980  -26.1970   12.0400 C.3   338  FU9338      0.1048
     32  CBF       22.9140  -31.1030   19.7470 C.3   338  FU9338      0.4186
@<TRIPOS>BOND
     1     1     6    1
     2     1     2    2
     3     6     5    2
     4    23     2    1
     5    23    31    1
     6     2     3    2
     7    19    31    1
     8    19    20    1
     9    16    15    1
    10    16    30    2
    11    31    20    1
    12     5    30    1
    13     5     4    1
    14    15    26    2
    15    30    29    1
    16     3     4    2
    17     4    28    1
    18     8    24   ar
    19    26    24    1
    20    26    18    1
    21    29    18    1
    22    29    21    2
    23    24     7   ar
    24    28    21    2
    25    28    22    1
    26    22    25    1
    27    25    13   ar
    28    25    17   ar
    29    13    12   ar
    30    17    27   ar
    31    12    14   ar
    32    27    14   ar
    33    27    32    1
    34    11    32    1
    35    32     9    1
    36    32    10    1
