@<TRIPOS>MOLECULE
3r0w_RSY_A_1.pdb
 44 45 0 0 0
SMALL
GASTEIGER

@<TRIPOS>ATOM
      1  C39       15.4600   10.1450    4.6730 C.ar  301  RSY301      0.1362
      2  C43       16.7870    8.5970    5.8550 C.ar  301  RSY301      0.0990
      3  C42       15.8250    8.4860    6.8500 C.ar  301  RSY301      0.0207
      4  C37       15.2490   11.0550    3.4850 C.2   301  RSY301      0.2829
      5  C41       14.6540    9.2260    6.7540 C.ar  301  RSY301      0.0033
      6  C40       14.4730   10.0590    5.6580 C.ar  301  RSY301      0.0238
      7  O38       14.2050   11.6880    3.4350 O.2   301  RSY301     -0.2667
      8  N44       16.5910    9.4070    4.8040 N.ar  301  RSY301     -0.2392
      9  N36       16.1390   11.1990    2.4920 N.am  301  RSY301     -0.1927
     10  C32       17.4360   10.5370    2.3770 C.3   301  RSY301      0.1730
     11  C33       18.4210   11.6450    1.9560 C.3   301  RSY301      0.0290
     12  C34       18.3010   12.0810    0.4930 C.3   301  RSY301      0.0023
     13  C35       19.8690   11.2920    2.2920 C.3   301  RSY301      0.0023
     14  C30       17.4180    9.3620    1.4320 C.2   301  RSY301      0.2613
     15  O31       18.1540    8.4200    1.6520 O.2   301  RSY301     -0.2715
     16  N29       16.5640    9.4180    0.4030 N.am  301  RSY301     -0.2028
     17  C21       16.3480    8.4350   -0.6710 C.3   301  RSY301      0.1304
     18  C22       17.5520    8.5580   -1.6100 C.3   301  RSY301      0.0506
     19  C23       17.1130    9.3090   -2.8430 C.ar  301  RSY301     -0.0204
     20  C28       16.2120    8.7310   -3.7390 C.ar  301  RSY301     -0.0042
     21  C24       17.6020   10.5910   -3.0780 C.ar  301  RSY301     -0.0042
     22  C27       15.8050    9.4360   -4.8670 C.ar  301  RSY301     -0.0003
     23  C25       17.1930   11.2940   -4.2050 C.ar  301  RSY301     -0.0003
     24  C26       16.2990   10.7160   -5.1020 C.ar  301  RSY301     -0.0000
     25  C19       16.1570    7.0020   -0.1470 C.3   301  RSY301      0.1812
     26  O20       17.3840    6.4040    0.2980 O.3   301  RSY301     -0.2208
     27  C18       15.1010    6.9100    0.9500 C.3   301  RSY301      0.1214
     28  C16       14.2400    5.7020    0.6830 C.2   301  RSY301      0.2444
     29  O17       14.6890    4.5790    0.8520 O.2   301  RSY301     -0.2732
     30  C10       11.2690    5.2220   -1.2660 C.2   301  RSY301      0.2629
     31  N15       12.9950    5.9500    0.2790 N.am  301  RSY301     -0.1964
     32  O11       11.3460    4.4880   -2.2360 O.2   301  RSY301     -0.2714
     33 CL14        9.6140    3.9050    0.7990 Cl    301  RSY301     -0.1113
     34  C12       12.0380    4.8930   -0.0220 C.3   301  RSY301      0.1889
     35  C13       11.1040    4.8230    1.1860 C.3   301  RSY301      0.1258
     36  N09       10.5390    6.3390   -1.2230 N.am  301  RSY301     -0.1962
     37  C05        9.7040    6.8380   -2.3110 C.3   301  RSY301      0.1744
     38  C06       10.3740    6.8140   -3.6600 C.2   301  RSY301      0.2806
     39  O07       11.5570    7.0930   -3.7860 O.2   301  RSY301     -0.2698
     40  C04        9.3750    8.2790   -1.9120 C.3   301  RSY301      0.0312
     41  C02        8.3720    8.4680   -0.7570 C.3   301  RSY301      0.0022
     42  C01        7.5280    7.2260   -0.4270 C.3   301  RSY301      0.0001
     43  C03        9.0990    8.9760    0.5020 C.3   301  RSY301      0.0001
     44  N08        9.6060    6.4630   -4.6890 N.am  301  RSY301     -0.0863
@<TRIPOS>BOND
     1    24    22   ar
     2    24    23   ar
     3    22    20   ar
     4    44    38   am
     5    23    21   ar
     6    39    38    2
     7    20    19   ar
     8    38    37    1
     9    21    19   ar
    10    19    18    1
    11    37    40    1
    12    37    36    1
    13    32    30    2
    14    40    41    1
    15    18    17    1
    16    30    36   am
    17    30    34    1
    18    41    42    1
    19    41    43    1
    20    17    25    1
    21    17    16    1
    22    25    26    1
    23    25    27    1
    24    34    31    1
    25    34    35    1
    26    31    28   am
    27    16    14   am
    28    12    11    1
    29    28    29    2
    30    28    27    1
    31    33    35    1
    32    14    15    2
    33    14    10    1
    34    11    13    1
    35    11    10    1
    36    10     9    1
    37     9     4   am
    38     7     4    2
    39     4     1    1
    40     1     8   ar
    41     1     6   ar
    42     8     2   ar
    43     6     5   ar
    44     2     3   ar
    45     5     3   ar
