@<TRIPOS>MOLECULE
3r0y_RSZ_A_1.pdb
 44 46 0 0 0
SMALL
GASTEIGER

@<TRIPOS>ATOM
      1  C10       13.5230   12.9340   -0.5410 C.ar  301  RSZ301      0.1362
      2  C06       11.9100   11.5890    0.5610 C.ar  301  RSZ301      0.0990
      3  C07       11.9370   12.4400    1.6820 C.ar  301  RSZ301      0.0207
      4  C12       14.3920   13.2680   -1.7320 C.2   301  RSZ301      0.2829
      5  C08       12.7780   13.5640    1.6890 C.ar  301  RSZ301      0.0033
      6  C09       13.5690   13.8150    0.5610 C.ar  301  RSZ301      0.0238
      7  O40       14.5380   14.4550   -1.9670 O.2   301  RSZ301     -0.2667
      8  N05       12.6820   11.8510   -0.5200 N.ar  301  RSZ301     -0.2392
      9  N01       15.0270   12.4460   -2.5680 N.am  301  RSZ301     -0.1927
     10  C15       15.2160   11.0030   -2.7530 C.3   301  RSZ301      0.1730
     11  C16       15.4660   10.1860   -1.4900 C.2   301  RSZ301      0.2613
     12  O41       14.6490   10.2550   -0.5780 O.2   301  RSZ301     -0.2715
     13  C17       16.3560   11.2320   -3.7760 C.3   301  RSZ301      0.0290
     14  C18       15.9090   10.8330   -5.2220 C.3   301  RSZ301      0.0023
     15  C19       17.7600   10.6070   -3.4790 C.3   301  RSZ301      0.0023
     16  N02       16.5480    9.3840   -1.4220 N.am  301  RSZ301     -0.2028
     17  C22       17.0350    8.4880   -0.3460 C.3   301  RSZ301      0.1304
     18  C24       17.3010    9.1920    1.0090 C.3   301  RSZ301      0.0506
     19  C25       17.2970   10.7190    0.9940 C.ar  301  RSZ301     -0.0204
     20  C11       16.3830   11.3950    1.8250 C.ar  301  RSZ301     -0.0042
     21  C21       18.1900   11.4540    0.1850 C.ar  301  RSZ301     -0.0042
     22  C13       16.3540   12.8020    1.8410 C.ar  301  RSZ301     -0.0003
     23  C20       18.1550   12.8620    0.2000 C.ar  301  RSZ301     -0.0003
     24  C14       17.2380   13.5360    1.0290 C.ar  301  RSZ301     -0.0000
     25  C23       16.0800    7.2870   -0.2480 C.3   301  RSZ301      0.1812
     26  O42       16.8790    6.1400    0.0950 O.3   301  RSZ301     -0.2208
     27  C26       14.8910    7.4340    0.7230 C.3   301  RSZ301      0.1214
     28  C28       14.1370    6.1230    0.8960 C.2   301  RSZ301      0.2444
     29  O43       14.7610    5.1190    1.1970 O.2   301  RSZ301     -0.2732
     30  N04       12.8080    6.0380    0.7210 N.am  301  RSZ301     -0.1973
     31  C31       11.8410    7.0870    0.3770 C.3   301  RSZ301      0.1774
     32  C32       11.2680    6.8260   -0.9880 C.2   301  RSZ301      0.2655
     33  O44       10.0860    6.5570   -1.1350 O.2   301  RSZ301     -0.2711
     34  C33       10.7640    6.9810    1.4700 C.3   301  RSZ301      0.0574
     35  C34       11.4320    6.7480    2.8140 C.ar  301  RSZ301     -0.0200
     36  C27       11.8420    5.4320    3.1790 C.ar  301  RSZ301     -0.0042
     37  C36       11.6550    7.8420    3.6730 C.ar  301  RSZ301     -0.0042
     38  C29       12.4790    5.2110    4.3970 C.ar  301  RSZ301     -0.0003
     39  C35       12.2860    7.6190    4.8990 C.ar  301  RSZ301     -0.0003
     40  C30       12.6920    6.3080    5.2600 C.ar  301  RSZ301     -0.0000
     41  N03       12.2000    6.9170   -1.9400 N.am  301  RSZ301     -0.1812
     42  C37       12.3390    6.7750   -3.4130 C.2   301  RSZ301      0.0623
     43  C38       10.9900    6.0690   -4.2770 C.3   301  RSZ301      0.0443
     44  C39        9.8030    5.4480   -5.0370 C.3   301  RSZ301      0.0065
@<TRIPOS>BOND
     1    14    13    1
     2    44    43    1
     3    43    42    1
     4    13    15    1
     5    13    10    1
     6    42    41    2
     7    10     9    1
     8    10    11    1
     9     9     4   am
    10     7     4    2
    11    41    32    1
    12     4     1    1
    13    11    16   am
    14    11    12    2
    15    16    17    1
    16    33    32    2
    17    32    31    1
    18     1     8   ar
    19     1     6   ar
    20     8     2   ar
    21    17    25    1
    22    17    18    1
    23    25    26    1
    24    25    27    1
    25    21    23   ar
    26    21    19   ar
    27    23    24   ar
    28    31    30    1
    29    31    34    1
    30     2     3   ar
    31     6     5   ar
    32    30    28   am
    33    27    28    1
    34    28    29    2
    35    19    18    1
    36    19    20   ar
    37    24    22   ar
    38    34    35    1
    39     3     5   ar
    40    20    22   ar
    41    35    36   ar
    42    35    37   ar
    43    36    38   ar
    44    37    39   ar
    45    38    40   ar
    46    39    40   ar
