@<TRIPOS>MOLECULE
3r16_5UN_A_1.pdb
 19 20 0 0 0
SMALL
GASTEIGER

@<TRIPOS>ATOM
      1  C01       16.1720    1.8950   15.7370 C.ar    1  5UN1        0.1251
      2  N01       15.9350   -0.8040   16.0720 N.3     1  5UN1        0.0392
      3  O01       15.8710    0.7630   18.0610 O.2     1  5UN1       -0.1503
      4  S01       15.4390    0.6100   16.6920 S.O2    1  5UN1        0.0935
      5  C02       17.5360    1.8430   15.5210 C.ar    1  5UN1        0.0213
      6  O02       14.0130    0.7630   16.6330 O.2     1  5UN1       -0.1503
      7  C03       18.1560    2.8290   14.7850 C.ar    1  5UN1        0.0180
      8  C04       17.4200    3.8790   14.2680 C.ar    1  5UN1        0.0735
      9  C05       16.0450    3.9430   14.4860 C.ar    1  5UN1        0.0180
     10  C06       15.4150    2.9450   15.2240 C.ar    1  5UN1        0.0213
     11  N07       18.1730    4.8440   13.5260 N.am    1  5UN1       -0.1789
     12  C08       17.6640    6.0070   12.8750 C.2     1  5UN1        0.2505
     13  O08       16.4860    6.3110   12.9030 O.2     1  5UN1       -0.2726
     14  C09       18.6490    6.8720   12.1620 C.3     1  5UN1        0.1200
     15  C10       19.2120    7.9640   13.0000 C.ar    1  5UN1        0.0165
     16  C11       19.2110    9.3260   12.7200 C.ar    1  5UN1        0.0032
     17  C12       19.7880   10.1280   13.6920 C.ar    1  5UN1        0.0072
     18  C13       20.2930    9.4580   14.7980 C.ar    1  5UN1        0.0351
     19  S14       19.9730    7.7930   14.5320 S.2     1  5UN1       -0.0903
@<TRIPOS>BOND
     1    14    12    1
     2    14    15    1
     3    16    15   ar
     4    16    17   ar
     5    12    13    2
     6    12    11   am
     7    15    19   ar
     8    11     8    1
     9    17    18   ar
    10     8     9   ar
    11     8     7   ar
    12     9    10   ar
    13    19    18   ar
    14     7     5   ar
    15    10     1   ar
    16     5     1   ar
    17     1     4    1
    18     2     4    1
    19     6     4    2
    20     4     3    2
