@<TRIPOS>MOLECULE
3r17_5UM_B_1.pdb
 20 21 0 0 0
SMALL
GASTEIGER

@<TRIPOS>ATOM
      1  C01       16.0140    2.0450   15.7920 C.ar    1  5UM1        0.1274
      2  F01       14.8980    5.1530   14.3660 F       1  5UM1       -0.2028
      3  N01       15.8390   -0.7040   16.1370 N.3     1  5UM1        0.0392
      4  O01       15.7850    0.8270   18.0890 O.2     1  5UM1       -0.1503
      5  S01       15.3160    0.7160   16.7340 S.O2    1  5UM1        0.0936
      6  C02       15.1790    3.0880   15.4280 C.ar    1  5UM1        0.0510
      7  O02       13.8810    0.8000   16.7290 O.2     1  5UM1       -0.1503
      8  C03       15.6950    4.1430   14.7010 C.ar    1  5UM1        0.1567
      9  C04       17.0250    4.1580   14.3310 C.ar    1  5UM1        0.1008
     10  C05       17.8670    3.1140   14.6870 C.ar    1  5UM1        0.0203
     11  C06       17.3550    2.0610   15.4310 C.ar    1  5UM1        0.0215
     12  N07       17.4860    5.2730   13.5690 N.am    1  5UM1       -0.1766
     13  C08       18.8510    5.6800   13.4880 C.2     1  5UM1        0.2506
     14  O08       19.7380    5.0880   14.0770 O.2     1  5UM1       -0.2726
     15  C09       19.1620    6.8700   12.6580 C.3     1  5UM1        0.1200
     16  C10       20.0610    7.8250   13.3260 C.ar    1  5UM1        0.0165
     17  C11       21.2760    8.3030   12.8710 C.ar    1  5UM1        0.0032
     18  C12       21.9110    9.1880   13.7300 C.ar    1  5UM1        0.0072
     19  C13       21.2460    9.4630   14.9120 C.ar    1  5UM1        0.0351
     20  S14       19.8070    8.5390   14.8600 S.2     1  5UM1       -0.0903
@<TRIPOS>BOND
     1    15    16    1
     2    15    13    1
     3    17    16   ar
     4    17    18   ar
     5    16    20   ar
     6    13    12   am
     7    13    14    2
     8    12     9    1
     9    18    19   ar
    10     9    10   ar
    11     9     8   ar
    12     2     8    1
    13    10    11   ar
    14     8     6   ar
    15    20    19   ar
    16     6     1   ar
    17    11     1   ar
    18     1     5    1
    19     3     5    1
    20     7     5    2
    21     5     4    2
