@<TRIPOS>MOLECULE
3r1a_HEM_A_1.pdb
 43 50 0 0 0
SMALL
GASTEIGER

@<TRIPOS>ATOM
      1  CHA      -60.0460    6.4090  -35.9760 C.2   500  HEM500      0.0000
      2  CHB      -63.0770    9.0390  -33.2640 C.2   500  HEM500      0.0000
      3  CHC      -65.7190    5.0380  -32.4750 C.2   500  HEM500      0.0000
      4  CHD      -62.5600    2.3430  -34.9840 C.2   500  HEM500      0.0000
      5  C1A      -60.6190    7.4430  -35.2770 C.2   500  HEM500      0.0000
      6  C2A      -60.0670    8.7740  -35.1770 C.2   500  HEM500      0.0000
      7  C3A      -60.8890    9.5120  -34.4260 C.2   500  HEM500      0.0000
      8  C4A      -62.0010    8.6650  -34.0360 C.2   500  HEM500      0.0000
      9  CMA      -60.7100   10.9960  -34.0360 C.3   500  HEM500      0.0000
     10  CAA      -58.7340    9.1910  -35.8330 C.3   500  HEM500      0.0000
     11  CBA      -58.8670   10.4910  -36.6110 C.3   500  HEM500      0.0000
     12  CGA      -57.7120   10.5830  -37.5690 C.2   500  HEM500      0.0000
     13  O1A      -57.1810    9.5160  -37.9700 O.co2 500  HEM500      0.0000
     14  O2A      -57.3300   11.7220  -37.9360 O.co2 500  HEM500      0.0000
     15  C1B      -64.0940    8.2000  -32.8630 C.ar  500  HEM500      0.0000
     16  C2B      -65.3080    8.5980  -32.1800 C.ar  500  HEM500      0.0000
     17  C3B      -66.0390    7.4960  -31.9600 C.ar  500  HEM500      0.0000
     18  C4B      -65.3110    6.3590  -32.4980 C.ar  500  HEM500      0.0000
     19  CMB      -65.6580   10.0520  -31.7910 C.3   500  HEM500      0.0000
     20  CAB      -67.4190    7.4070  -31.2650 C.2   500  HEM500      0.0000
     21  CBB      -68.0650    8.4900  -30.8170 C.2   500  HEM500      0.0000
     22  C1C      -65.1450    3.9870  -33.1600 C.2   500  HEM500      0.0000
     23  C2C      -65.7540    2.6920  -33.4100 C.2   500  HEM500      0.0000
     24  C3C      -64.8820    1.9510  -34.1060 C.2   500  HEM500      0.0000
     25  C4C      -63.6910    2.7520  -34.3140 C.2   500  HEM500      0.0000
     26  CMC      -67.1690    2.2770  -32.9450 C.3   500  HEM500      0.0000
     27  CAC      -65.0540    0.4980  -34.6150 C.2   500  HEM500      0.0000
     28  CBC      -66.1470   -0.2310  -34.3620 C.2   500  HEM500      0.0000
     29  C1D      -61.5740    3.1670  -35.4780 C.ar  500  HEM500      0.0000
     30  C2D      -60.4290    2.7370  -36.2520 C.ar  500  HEM500      0.0000
     31  C3D      -59.6490    4.0200  -36.5590 C.ar  500  HEM500      0.0000
     32  C4D      -60.4020    5.0840  -35.9390 C.ar  500  HEM500      0.0000
     33  CMD      -60.0670    1.2980  -36.6780 C.3   500  HEM500      0.0000
     34  CAD      -58.3340    4.1590  -37.3510 C.3   500  HEM500      0.0000
     35  CBD      -58.5950    4.2080  -38.8510 C.3   500  HEM500      0.0000
     36  CGD      -57.2850    4.5330  -39.5150 C.2   500  HEM500      0.0000
     37  O1D      -57.2290    4.5660  -40.7700 O.co2 500  HEM500      0.0000
     38  O2D      -56.2940    4.7560  -38.7720 O.co2 500  HEM500      0.0000
     39  NA       -61.8040    7.4070  -34.5740 N.2   500  HEM500      0.0000
     40  NB       -64.1280    6.8290  -33.0400 N.ar  500  HEM500      0.0000
     41  NC       -63.8830    3.9890  -33.7270 N.2   500  HEM500      0.0000
     42  ND       -61.5230    4.5490  -35.3150 N.ar  500  HEM500      0.0000
     43 FE        -62.7170    5.6800  -34.0280 Fe    500  HEM500      0.0000
@<TRIPOS>BOND
     1    37    36   ar
     2    36    35    1
     3    36    38   ar
     4    35    34    1
     5    13    12   ar
     6    14    12   ar
     7    12    11    1
     8    34    31    1
     9    33    30    1
    10    11    10    1
    11    31    30   ar
    12    31    32   ar
    13    30    29   ar
    14     1    32    2
    15     1     5    1
    16    32    42   ar
    17    10     6    1
    18    29    42   ar
    19    29     4    2
    20    42    43    1
    21     5     6    1
    22     5    39    2
    23     6     7    2
    24     4    25    1
    25    27    28    2
    26    27    24    1
    27    39     8    1
    28    39    43    1
    29     7     9    1
    30     7     8    1
    31    25    24    1
    32    25    41    2
    33    24    23    2
    34     8     2    2
    35    43    41    1
    36    43    40    1
    37    41    22    1
    38    23    22    1
    39    23    26    1
    40     2    15    1
    41    22     3    2
    42    40    15   ar
    43    40    18   ar
    44    15    16   ar
    45    18     3    1
    46    18    17   ar
    47    16    17   ar
    48    16    19    1
    49    17    20    1
    50    20    21    2
