@<TRIPOS>MOLECULE
3r1a_TB2_A_1.pdb
 13 13 0 0 0
SMALL
GASTEIGER

@<TRIPOS>ATOM
      1  C1       -62.0230    6.2620  -28.1460 C.3   501  TB2501      0.1868
      2  O1       -61.6390    5.4900  -28.9480 O.3   501  TB2501     -0.2200
      3  C2       -60.9940    6.4090  -27.0530 C.3   501  TB2501      0.0619
      4  C3       -59.6730    5.8570  -27.5270 C.ar  501  TB2501     -0.0196
      5  C4       -58.9720    4.9610  -26.7280 C.ar  501  TB2501     -0.0045
      6  C5       -57.7550    4.4460  -27.1630 C.ar  501  TB2501     -0.0046
      7  C6       -57.2350    4.8340  -28.3910 C.ar  501  TB2501     -0.0228
      8  C7       -57.9310    5.7320  -29.1910 C.ar  501  TB2501     -0.0046
      9  C8       -59.1510    6.2440  -28.7570 C.ar  501  TB2501     -0.0045
     10  C9       -55.9230    4.2780  -28.8500 C.3   501  TB2501      0.0189
     11  C10      -54.8860    4.5440  -27.7670 C.3   501  TB2501      0.0044
     12  C11      -56.0770    2.7760  -29.0600 C.3   501  TB2501      0.0044
     13  C12      -55.5240    4.9700  -30.1470 C.3   501  TB2501      0.0044
@<TRIPOS>BOND
     1    13    10    1
     2     8     9   ar
     3     8     7   ar
     4    12    10    1
     5     2     1    1
     6    10     7    1
     7    10    11    1
     8     9     4   ar
     9     7     6   ar
    10     1     3    1
    11     4     3    1
    12     4     5   ar
    13     6     5   ar
