@<TRIPOS>MOLECULE
3r1b_CM5_A_1.pdb
 24 25 0 0 0
SMALL
GASTEIGER

@<TRIPOS>ATOM
      1  C7        58.4770  -52.6480  -31.2800 C.3   605  CM5605      0.0000
      2  C8        58.9450  -53.1510  -29.9210 C.3   605  CM5605      0.0000
      3  C9        58.0090  -54.2220  -29.3770 C.3   605  CM5605      0.0000
      4  C10       56.9250  -54.5470  -30.3960 C.3   605  CM5605      0.0000
      5  C11       57.5480  -54.9140  -31.7370 C.3   605  CM5605      0.0000
      6  C6        58.4230  -53.7920  -32.2840 C.3   605  CM5605      0.0000
      7  C5        57.8340  -53.2910  -33.5970 C.3   605  CM5605      0.0000
      8  C4        58.9290  -53.0070  -34.6190 C.3   605  CM5605      0.0001
      9  C3        58.3270  -52.5960  -35.9570 C.3   605  CM5605      0.0026
     10  C2        58.7460  -53.5470  -37.0710 C.3   605  CM5605      0.0322
     11  C1        60.1590  -53.2440  -37.5550 C.3   605  CM5605      0.1449
     12  O12       60.6110  -54.3330  -38.3560 O.3   605  CM5605     -0.3286
     13  C13       61.8730  -54.0950  -38.9760 C.3   605  CM5605      0.2695
     14  C18       62.9760  -54.4280  -37.9680 C.3   605  CM5605      0.2404
     15  O22       63.1240  -53.3260  -37.0630 O.3   605  CM5605     -0.2149
     16  C17       64.3480  -54.7100  -38.5820 C.3   605  CM5605      0.2166
     17  O21       65.1350  -55.4300  -37.6230 O.3   605  CM5605     -0.2175
     18  O14       61.9340  -54.9530  -40.1100 O.3   605  CM5605     -0.3257
     19  C15       63.1890  -54.9070  -40.7790 C.3   605  CM5605      0.1802
     20  C19       63.0720  -55.6730  -42.0900 C.3   605  CM5605      0.2141
     21  O20       62.1630  -56.7650  -41.9120 O.3   605  CM5605     -0.2176
     22  C16       64.2680  -55.4970  -39.8860 C.3   605  CM5605      0.1779
     23  O23       65.5120  -55.4260  -40.5800 O.3   605  CM5605     -0.3483
     24  C24       66.4950  -56.3030  -40.0360 C.3   605  CM5605      0.1742
@<TRIPOS>BOND
     1    20    21    1
     2    20    19    1
     3    19    18    1
     4    19    22    1
     5    23    24    1
     6    23    22    1
     7    18    13    1
     8    22    16    1
     9    13    12    1
    10    13    14    1
    11    16    14    1
    12    16    17    1
    13    12    11    1
    14    14    15    1
    15    11    10    1
    16    10     9    1
    17     9     8    1
    18     8     7    1
    19     7     6    1
    20     6     5    1
    21     6     1    1
    22     5     4    1
    23     1     2    1
    24     4     3    1
    25     2     3    1
