@<TRIPOS>MOLECULE
3r1b_HEM_A_1.pdb
 43 50 0 0 0
SMALL
GASTEIGER

@<TRIPOS>ATOM
      1  CHA       46.5510  -43.2350  -35.0900 C.2   500  HEM500      0.0000
      2  CHB       42.5580  -41.9860  -32.6210 C.2   500  HEM500      0.0000
      3  CHC       43.2560  -45.7160  -29.6010 C.2   500  HEM500      0.0000
      4  CHD       47.5980  -46.5270  -31.6360 C.2   500  HEM500      0.0000
      5  C1A       45.4190  -42.5750  -34.6650 C.ar  500  HEM500      0.0000
      6  C2A       44.8780  -41.3800  -35.2740 C.ar  500  HEM500      0.0000
      7  C3A       43.7800  -41.0270  -34.5960 C.ar  500  HEM500      0.0000
      8  C4A       43.5830  -41.9950  -33.5380 C.ar  500  HEM500      0.0000
      9  CMA       42.8630  -39.8150  -34.8690 C.3   500  HEM500      0.0000
     10  CAA       45.5230  -40.6700  -36.4830 C.3   500  HEM500      0.0000
     11  CBA       44.5100  -40.4120  -37.5870 C.3   500  HEM500      0.0000
     12  CGA       45.2620  -40.0930  -38.8480 C.2   500  HEM500      0.0000
     13  O1A       46.5050  -40.2780  -38.8610 O.co2 500  HEM500      0.0000
     14  O2A       44.6190  -39.6610  -39.8370 O.co2 500  HEM500      0.0000
     15  C1B       42.3820  -42.8950  -31.6040 C.2   500  HEM500      0.0000
     16  C2B       41.2730  -42.9230  -30.6770 C.2   500  HEM500      0.0000
     17  C3B       41.4510  -43.9440  -29.8390 C.2   500  HEM500      0.0000
     18  C4B       42.6930  -44.6110  -30.2050 C.2   500  HEM500      0.0000
     19  CMB       40.0850  -41.9400  -30.6660 C.3   500  HEM500      0.0000
     20  CAB       40.4770  -44.3150  -28.6980 C.2   500  HEM500      0.0000
     21  CBB       40.7020  -45.3640  -27.9080 C.2   500  HEM500      0.0000
     22  C1C       44.4850  -46.2730  -29.8960 C.ar  500  HEM500      0.0000
     23  C2C       45.0810  -47.4290  -29.2520 C.ar  500  HEM500      0.0000
     24  C3C       46.2700  -47.6510  -29.8080 C.ar  500  HEM500      0.0000
     25  C4C       46.4870  -46.6460  -30.8300 C.ar  500  HEM500      0.0000
     26  CMC       44.4570  -48.2700  -28.1180 C.3   500  HEM500      0.0000
     27  CAC       47.2350  -48.7890  -29.4170 C.2   500  HEM500      0.0000
     28  CBC       48.3740  -48.9740  -30.0910 C.2   500  HEM500      0.0000
     29  C1D       47.7030  -45.7910  -32.7960 C.2   500  HEM500      0.0000
     30  C2D       48.7500  -45.9280  -33.7850 C.2   500  HEM500      0.0000
     31  C3D       48.4270  -44.9050  -34.8770 C.2   500  HEM500      0.0000
     32  C4D       47.2180  -44.2410  -34.4280 C.2   500  HEM500      0.0000
     33  CMD       49.9470  -46.9040  -33.7720 C.3   500  HEM500      0.0000
     34  CAD       49.2790  -44.6800  -36.1470 C.3   500  HEM500      0.0000
     35  CBD       48.4660  -44.2600  -37.3650 C.3   500  HEM500      0.0000
     36  CGD       49.2700  -44.6210  -38.5880 C.2   500  HEM500      0.0000
     37  O1D       49.5950  -45.8260  -38.7500 O.co2 500  HEM500      0.0000
     38  O2D       49.5850  -43.7140  -39.3980 O.co2 500  HEM500      0.0000
     39  NA        44.6020  -42.9280  -33.6090 N.ar  500  HEM500      0.0000
     40  NB        43.2320  -43.9370  -31.2870 N.2   500  HEM500      0.0000
     41  NC        45.3770  -45.8210  -30.8500 N.ar  500  HEM500      0.0000
     42  ND        46.8290  -44.7920  -33.2090 N.2   500  HEM500      0.0000
     43 FE         45.1090  -44.2700  -32.1400 Fe    500  HEM500      0.0000
@<TRIPOS>BOND
     1    14    12   ar
     2    38    36   ar
     3    13    12   ar
     4    12    11    1
     5    37    36   ar
     6    36    35    1
     7    11    10    1
     8    35    34    1
     9    10     6    1
    10    34    31    1
    11     6     5   ar
    12     6     7   ar
    13     1     5    2
    14     1    32    1
    15    31    32    1
    16    31    30    2
    17     9     7    1
    18     5    39   ar
    19     7     8   ar
    20    32    42    2
    21    30    33    1
    22    30    29    1
    23    39     8   ar
    24    39    43    1
    25     8     2    2
    26    42    29    1
    27    42    43    1
    28    29     4    2
    29     2    15    1
    30    43    40    1
    31    43    41    1
    32     4    25    1
    33    15    40    2
    34    15    16    1
    35    40    18    1
    36    41    25   ar
    37    41    22   ar
    38    25    24   ar
    39    16    19    1
    40    16    17    2
    41    18    17    1
    42    18     3    2
    43    28    27    2
    44    22     3    1
    45    22    23   ar
    46    17    20    1
    47    24    27    1
    48    24    23   ar
    49    23    26    1
    50    20    21    2
