@<TRIPOS>MOLECULE
3r1b_TB2_A_1.pdb
 13 13 0 0 0
SMALL
GASTEIGER

@<TRIPOS>ATOM
      1  C1        44.7530  -40.9510  -28.5880 C.2   501  TB2501      0.2121
      2  O1        44.5640  -41.6920  -29.5380 O.2   501  TB2501     -0.2879
      3  C2        45.6640  -39.7530  -28.7260 C.3   501  TB2501      0.0985
      4  C3        46.6720  -39.9860  -29.8290 C.ar  501  TB2501     -0.0144
      5  C4        46.2870  -39.9810  -31.1660 C.ar  501  TB2501     -0.0042
      6  C5        47.2320  -40.1930  -32.1670 C.ar  501  TB2501     -0.0046
      7  C6        48.5610  -40.4230  -31.8310 C.ar  501  TB2501     -0.0228
      8  C7        48.9430  -40.4220  -30.4970 C.ar  501  TB2501     -0.0046
      9  C8        48.0010  -40.2060  -29.4990 C.ar  501  TB2501     -0.0042
     10  C9        49.5960  -40.6580  -32.8890 C.3   501  TB2501      0.0189
     11  C10       48.9480  -40.5490  -34.2630 C.3   501  TB2501      0.0044
     12  C11       50.6970  -39.6170  -32.7480 C.3   501  TB2501      0.0044
     13  C12       50.1830  -42.0470  -32.6860 C.3   501  TB2501      0.0044
@<TRIPOS>BOND
     1    11    10    1
     2    10    12    1
     3    10    13    1
     4    10     7    1
     5     6     7   ar
     6     6     5   ar
     7     7     8   ar
     8     5     4   ar
     9     8     9   ar
    10     4     9   ar
    11     4     3    1
    12     2     1    2
    13     3     1    1
