@<TRIPOS>MOLECULE
3r1k_COA_A_1.pdb
 48 50 0 0 0
SMALL
GASTEIGER

@<TRIPOS>ATOM
      1  N1A       19.4860  -21.6050   54.8940 N.2   500  COA500      0.0021
      2  C2A       20.2930  -22.4470   55.6380 C.3   500  COA500      0.5254
      3  N3A       20.7680  -23.6160   55.0770 N.2   500  COA500     -0.0055
      4  C4A       20.4410  -23.9390   53.7980 C.2   500  COA500      0.3518
      5  C5A       19.6330  -23.1090   53.0320 C.2   500  COA500      0.2526
      6  C6A       19.1490  -21.9300   53.5920 C.2   500  COA500      0.4393
      7  N6A       18.2410  -21.2080   52.9420 N.pl3 500  COA500      0.2180
      8  N7A       19.4820  -23.6780   51.8140 N.2   500  COA500     -0.2095
      9  C8A       20.1700  -24.8420   51.7910 C.3   500  COA500      0.3377
     10  N9A       20.7650  -25.0120   53.0150 N.pl3 500  COA500     -0.1439
     11  C1B       21.7210  -26.0590   53.4130 C.3   500  COA500      0.3185
     12  C2B       21.0590  -27.4210   53.5620 C.3   500  COA500      0.2543
     13  O2B       20.4870  -27.6060   54.8370 O.3   500  COA500     -0.2131
     14  C3B       22.2270  -28.3490   53.3090 C.3   500  COA500      0.1928
     15  O3B       22.9180  -28.5510   54.5130 O.3   500  COA500     -0.2673
     16  P3B       23.6600  -29.9340   54.8310 P.3   500  COA500      0.5327
     17  O7A       22.7030  -31.0830   54.6120 O.3   500  COA500     -0.1145
     18  O8A       24.1240  -29.8880   56.2650 O.3   500  COA500     -0.1145
     19  O9A       24.8400  -30.0710   53.9000 O.2   500  COA500     -0.2224
     20  C4B       23.1340  -27.5760   52.3590 C.3   500  COA500      0.1795
     21  O4B       22.7640  -26.2130   52.4630 O.3   500  COA500     -0.3136
     22  C5B       22.9930  -28.0530   50.9160 C.3   500  COA500      0.1812
     23  O5B       21.6220  -28.2510   50.6460 O.3   500  COA500     -0.3112
     24  P1A       21.0480  -28.5060   49.1780 P.3   500  COA500      0.2189
     25  O1A       20.0900  -29.6620   49.1980 O.3   500  COA500     -0.4371
     26  O2A       22.1590  -28.7750   48.1990 O.2   500  COA500     -0.5170
     27  O3A       20.2700  -27.1240   48.8800 O.3   500  COA500     -0.2703
     28  P2A       19.0200  -27.0200   47.8620 P.3   500  COA500      0.2188
     29  O4A       17.7380  -27.3450   48.5840 O.3   500  COA500     -0.4371
     30  O5A       19.2320  -27.9540   46.6970 O.2   500  COA500     -0.5170
     31  O6A       18.9790  -25.4820   47.3630 O.3   500  COA500     -0.3138
     32  CBP       18.5650  -23.0460   47.6170 C.3   500  COA500      0.0645
     33  CCP       19.0730  -24.3620   48.2370 C.3   500  COA500      0.1519
     34  CDP       19.2680  -22.7940   46.2850 C.3   500  COA500      0.0056
     35  CEP       18.9380  -21.9060   48.5680 C.3   500  COA500      0.0056
     36  CAP       17.0350  -23.1430   47.4360 C.3   500  COA500      0.2312
     37  OAP       16.4000  -23.2800   48.6870 O.3   500  COA500     -0.2131
     38  C9P       16.3670  -22.0710   46.5900 C.2   500  COA500      0.2719
     39  O9P       16.2300  -22.2270   45.1960 O.2   500  COA500     -0.2706
     40  N8P       15.8920  -20.9860   47.2130 N.am  500  COA500     -0.2028
     41  C7P       15.0960  -19.9810   46.5220 C.3   500  COA500      0.1248
     42  C6P       15.9290  -18.9800   45.7180 C.3   500  COA500      0.1102
     43  C5P       17.1830  -18.5740   46.4650 C.2   500  COA500      0.2432
     44  O5P       17.0950  -17.9670   47.5430 O.2   500  COA500     -0.2733
     45  N4P       18.3450  -18.9050   45.8960 N.am  500  COA500     -0.2044
     46  C3P       19.6280  -18.4260   46.3850 C.3   500  COA500      0.1276
     47  C2P       20.0190  -17.0670   45.8050 C.3   500  COA500      0.0920
     48  S1P       21.5010  -16.3440   46.5710 S.3   500  COA500     -0.0802
@<TRIPOS>BOND
     1    39    38    2
     2    42    43    1
     3    42    41    1
     4    47    46    1
     5    47    48    1
     6    45    46    1
     7    45    43   am
     8    34    32    1
     9    43    44    2
    10    41    40    1
    11    38    40   am
    12    38    36    1
    13    30    28    2
    14    31    28    1
    15    31    33    1
    16    36    32    1
    17    36    37    1
    18    32    33    1
    19    32    35    1
    20    28    29    1
    21    28    27    1
    22    26    24    2
    23    27    24    1
    24    24    25    1
    25    24    23    1
    26    23    22    1
    27    22    20    1
    28     9     8    1
    29     9    10    1
    30     8     5    2
    31    20    21    1
    32    20    14    1
    33    21    11    1
    34     7     6    1
    35    10    11    1
    36    10     4    1
    37     5     6    1
    38     5     4    1
    39    14    12    1
    40    14    15    1
    41    11    12    1
    42    12    13    1
    43     6     1    2
    44     4     3    2
    45    19    16    2
    46    15    16    1
    47    17    16    1
    48    16    18    1
    49     1     2    1
    50     3     2    1
