@<TRIPOS>MOLECULE
3r1n_05B_A_1.pdb
 30 35 0 0 0
SMALL
GASTEIGER

@<TRIPOS>ATOM
      1  C1        16.8500    8.2710   12.7220 C.3     1  05B1        0.0734
      2  C2        17.4500    7.8940   11.3790 C.3     1  05B1        0.1445
      3  N3        16.5730    7.0240   10.5630 N.2     1  05B1       -0.2021
      4  C4        15.2420    7.2660   10.3230 C.1     1  05B1        0.1523
      5  N5        18.9410    8.0020   14.7900 N.3     1  05B1       -0.2180
      6  C6        16.8830    7.1000   13.6850 C.3     1  05B1        0.0275
      7  C7        17.6360    9.4600   13.3190 C.3     1  05B1        0.0275
      8  C8        19.0290    9.1750   13.9490 C.3     1  05B1        0.0892
      9  C9        18.3350    6.8140   14.1800 C.3     1  05B1        0.0892
     10  O10       14.6070    6.7170    9.3790 O.2     1  05B1       -0.2222
     11  C11       15.3930    8.6770   12.3890 C.2     1  05B1        0.1212
     12  C12       14.6750    8.2680   11.2680 C.2     1  05B1        0.1107
     13  C13       13.4260    8.8780   11.3130 C.2     1  05B1        0.0486
     14  C14       13.4140    9.6470   12.4130 C.2     1  05B1        0.1621
     15  N15       14.6340    9.5220   13.0410 N.2     1  05B1       -0.4028
     16  C16       12.3890   10.5580   12.9240 C.2     1  05B1        0.1737
     17  C17       11.1290   10.6720   12.3490 C.2     1  05B1        0.0571
     18  C18       10.2270   11.5530   12.9040 C.2     1  05B1        0.1133
     19  N19       10.5090   12.2820   13.9550 N.2     1  05B1       -0.1822
     20  C20       11.7470   12.1670   14.4730 C.1     1  05B1        0.0875
     21  N21       12.6770   11.3270   13.9840 N.2     1  05B1       -0.3477
     22  C22       12.0220   12.9800   15.6330 C.ar    1  05B1        0.0773
     23  C23       11.4750   14.2490   15.6480 C.ar    1  05B1        0.0143
     24  C24       11.6580   15.0920   16.7240 C.ar    1  05B1        0.0409
     25  C25       12.8030   12.5270   16.6950 C.ar    1  05B1        0.0512
     26  C26       13.0050   13.3920   17.7610 C.ar    1  05B1        0.1771
     27  C27       12.4370   14.6830   17.7780 C.ar    1  05B1        0.1765
     28  O28       12.7360   15.3400   18.9420 O.3     1  05B1       -0.4346
     29  C29       13.2230   14.3110   19.8220 C.3     1  05B1        0.4294
     30  O30       13.6880   13.2470   18.9170 O.3     1  05B1       -0.4346
@<TRIPOS>BOND
     1    10     4    2
     2     4     3    2
     3     4    12    1
     4     3     2    1
     5    12    13    2
     6    12    11    1
     7    13    14    1
     8     2     1    1
     9    17    18    2
    10    17    16    1
    11    11     1    1
    12    11    15    2
    13    14    16    1
    14    14    15    2
    15     1     7    1
    16     1     6    1
    17    18    19    1
    18    16    21    2
    19     7     8    1
    20     6     9    1
    21     8     5    1
    22    19    20    2
    23    21    20    2
    24     9     5    1
    25    20    22    1
    26    22    23   ar
    27    22    25   ar
    28    23    24   ar
    29    25    26   ar
    30    24    27   ar
    31    26    27   ar
    32    26    30    1
    33    27    28    1
    34    30    29    1
    35    28    29    1
