@<TRIPOS>MOLECULE
3r1q_X75_A_1.pdb
 22 23 0 0 0
SMALL
GASTEIGER

@<TRIPOS>ATOM
      1  N01      -64.5540  -46.3350  -12.2390 N.pl3 616  X75616     -0.2326
      2  N02      -67.0530  -45.5950  -15.4320 N.am  616  X75616     -0.0837
      3  N03      -62.6370  -49.4020   -9.9790 N.ar  616  X75616     -0.2327
      4  N04      -69.5060  -44.2510  -11.2640 N.pl3 616  X75616      0.0585
      5  C05      -67.9800  -45.1700  -12.7920 C.ar  616  X75616      0.0309
      6  C06      -66.6830  -45.7250  -13.0740 C.ar  616  X75616      0.0732
      7  C07      -65.7300  -45.8500  -12.0080 C.ar  616  X75616      0.0711
      8  C08      -66.0960  -45.4390  -10.6900 C.ar  616  X75616      0.0293
      9  C09      -67.3720  -44.9030  -10.4080 C.ar  616  X75616      0.0813
     10  C10      -68.3380  -44.7500  -11.4700 C.ar  616  X75616      0.1536
     11  C11      -66.3820  -46.1300  -14.3660 C.2   616  X75616      0.2855
     12  C12      -63.3440  -45.9440  -11.4720 C.3   616  X75616      0.1401
     13  C13      -63.0040  -47.0290  -10.4770 C.ar  616  X75616      0.0186
     14  C14      -62.9410  -48.3840  -10.8590 C.ar  616  X75616      0.0973
     15  C15      -62.3860  -49.0590   -8.6730 C.ar  616  X75616      0.1383
     16  C16      -62.4260  -47.7370   -8.1960 C.ar  616  X75616      0.0305
     17  C17      -62.7420  -46.7130   -9.1220 C.ar  616  X75616      0.0014
     18  O18      -65.5320  -46.9860  -14.5670 O.2   616  X75616     -0.2666
     19  O19      -70.5690  -44.7600  -11.8370 O.2   616  X75616     -0.1261
     20  O20      -69.6540  -43.1800  -10.5120 O.2   616  X75616     -0.1261
     21 CL21      -67.7060  -44.4540   -8.7790 Cl    616  X75616     -0.0805
     22 CL22      -62.0050  -50.3150   -7.5610 Cl    616  X75616     -0.0613
@<TRIPOS>BOND
     1     2    11   am
     2    18    11    2
     3    11     6    1
     4     6     5   ar
     5     6     7   ar
     6     5    10   ar
     7     1     7    1
     8     1    12    1
     9     7     8   ar
    10    19     4    2
    11    12    13    1
    12    10     4    1
    13    10     9   ar
    14     4    20    2
    15    14    13   ar
    16    14     3   ar
    17     8     9   ar
    18    13    17   ar
    19     9    21    1
    20     3    15   ar
    21    17    16   ar
    22    15    16   ar
    23    15    22    1
