@<TRIPOS>MOLECULE
3r1r_III_P_1.pdb
 27 27 0 0 0
SMALL
GASTEIGER

@<TRIPOS>ATOM
      1  N         -4.4150   64.7090   31.5590 N.3     1  TYR1       -0.1227
      2  CA        -3.8600   63.8550   30.4770 C.3     1  TYR1        0.1736
      3  C         -3.4480   64.5610   29.1940 C.2     1  TYR1        0.2595
      4  O         -3.5710   65.7550   28.9790 O.2     1  TYR1       -0.2718
      5  CB        -4.8160   62.7170   30.1430 C.3     1  TYR1        0.0548
      6  CG        -6.1780   63.1400   29.6740 C.ar    1  TYR1       -0.0200
      7  CD1       -7.0910   63.7280   30.5290 C.ar    1  TYR1       -0.0009
      8  CD2       -6.5490   62.9260   28.3580 C.ar    1  TYR1       -0.0009
      9  CE1       -8.3450   64.1070   30.0870 C.ar    1  TYR1        0.0417
     10  CE2       -7.7980   63.3020   27.9070 C.ar    1  TYR1        0.0417
     11  CZ        -8.6870   63.8880   28.7730 C.ar    1  TYR1        0.1957
     12  OH        -9.9220   64.2520   28.3040 O.3     1  TYR1       -0.2866
     13  N         -2.8830   63.7720   28.2880 N.am    2  LEU2       -0.1966
     14  CA        -2.2450   64.2110   27.0600 C.3     2  LEU2        0.1728
     15  C         -2.7640   63.5270   25.8020 C.2     2  LEU2        0.2616
     16  O         -2.0490   62.7480   25.1630 O.2     2  LEU2       -0.2715
     17  CB        -0.7690   63.8570   27.1750 C.3     2  LEU2        0.0311
     18  CG         0.4170   64.7490   27.0030 C.3     2  LEU2        0.0022
     19  CD1        1.5080   64.0060   26.2390 C.3     2  LEU2        0.0001
     20  CD2        0.0980   66.0390   26.2750 C.3     2  LEU2        0.0001
     21  N         -3.9990   63.7980   25.4200 N.am    3  VAL3       -0.1977
     22  CA        -4.5850   63.2280   24.2050 C.3     3  VAL3        0.1596
     23  C         -4.3920   61.7340   24.0390 C.2     3  VAL3        0.2287
     24  O         -5.2730   60.9610   24.4530 O.2     3  VAL3       -0.2864
     25  CB        -4.0460   64.0820   23.0360 C.3     3  VAL3        0.0276
     26  CG1       -4.0970   63.4710   21.6560 C.3     3  VAL3        0.0022
     27  CG2       -4.8530   65.3860   23.0450 C.3     3  VAL3        0.0022
@<TRIPOS>BOND
     1    26    25    1
     2    25    27    1
     3    25    22    1
     4    23    22    1
     5    23    24    2
     6    22    21    1
     7    16    15    2
     8    21    15   am
     9    15    14    1
    10    19    18    1
    11    20    18    1
    12    18    17    1
    13    14    17    1
    14    14    13    1
    15    10     8   ar
    16    10    11   ar
    17    13     3   am
    18    12    11    1
    19     8     6   ar
    20    11     9   ar
    21     4     3    2
    22     3     2    1
    23     6     5    1
    24     6     7   ar
    25     9     7   ar
    26     5     2    1
    27     2     1    1
