@<TRIPOS>MOLECULE
3r1r_ATP_A_1.pdb
 31 33 0 0 0
SMALL
GASTEIGER

@<TRIPOS>ATOM
      1  PG       -43.1810  109.4860   39.9180 P.3   762  ATP762      0.5373
      2  O1G      -44.1470  110.5600   39.5810 O.2   762  ATP762     -0.2221
      3  O2G      -43.8680  108.1700   39.9300 O.3   762  ATP762     -0.1143
      4  O3G      -42.6020  109.7110   41.2620 O.3   762  ATP762     -0.1143
      5  PB       -41.1880  108.1630   38.3050 P.3   762  ATP762      0.2277
      6  O1B      -40.5130  107.4230   39.4020 O.3   762  ATP762     -0.4368
      7  O2B      -42.0260  107.2250   37.5020 O.2   762  ATP762     -0.5168
      8  O3B      -41.9880  109.4500   38.8320 O.3   762  ATP762     -0.2258
      9  PA       -39.9960  108.8870   35.7480 P.3   762  ATP762      0.2189
     10  O1A      -39.7720  107.5550   35.1440 O.3   762  ATP762     -0.4371
     11  O2A      -41.1390  109.5770   35.1020 O.2   762  ATP762     -0.5170
     12  O3A      -40.1080  108.8700   37.3550 O.3   762  ATP762     -0.2700
     13  O5'      -38.6190  109.7080   35.6790 O.3   762  ATP762     -0.3112
     14  C5'      -37.9140  109.7740   36.9490 C.3   762  ATP762      0.1813
     15  C4'      -37.0370  111.0120   36.9760 C.3   762  ATP762      0.1821
     16  O4'      -37.8110  112.1870   36.6830 O.3   762  ATP762     -0.3135
     17  C3'      -36.3110  111.3090   38.2770 C.3   762  ATP762      0.2184
     18  O3'      -35.0730  112.0030   38.0210 O.3   762  ATP762     -0.2174
     19  C2'      -37.3890  112.1530   39.0040 C.3   762  ATP762      0.2570
     20  O2'      -36.7630  113.1090   39.8870 O.3   762  ATP762     -0.2130
     21  C1'      -38.0610  112.9000   37.8430 C.3   762  ATP762      0.3186
     22  N9       -39.4650  113.1830   38.0110 N.pl3 762  ATP762     -0.1439
     23  C8       -40.5200  112.3510   37.8630 C.3   762  ATP762      0.3377
     24  N7       -41.6940  112.8120   38.1020 N.2   762  ATP762     -0.2095
     25  C5       -41.4440  114.0560   38.4470 C.2   762  ATP762      0.2526
     26  C6       -42.3360  115.0310   38.8130 C.2   762  ATP762      0.4393
     27  N6       -43.6600  114.8810   38.8900 N.pl3 762  ATP762      0.2180
     28  N1       -41.8100  116.2330   39.1390 N.2   762  ATP762      0.0021
     29  C2       -40.4460  116.3960   39.0610 C.3   762  ATP762      0.5254
     30  N3       -39.5230  115.5290   38.7260 N.2   762  ATP762     -0.0055
     31  C4       -40.0970  114.3500   38.4190 C.2   762  ATP762      0.3518
@<TRIPOS>BOND
     1    11     9    2
     2    10     9    1
     3    13     9    1
     4    13    14    1
     5     9    12    1
     6    16    15    1
     7    16    21    1
     8    14    15    1
     9    15    17    1
    10    12     5    1
    11     7     5    2
    12    21    22    1
    13    21    19    1
    14    23    22    1
    15    23    24    1
    16    22    31    1
    17    18    17    1
    18    24    25    2
    19    17    19    1
    20     5     8    1
    21     5     6    1
    22    31    25    1
    23    31    30    2
    24    25    26    1
    25    30    29    1
    26    26    27    1
    27    26    28    2
    28     8     1    1
    29    19    20    1
    30    29    28    1
    31     2     1    2
    32     1     3    1
    33     1     4    1
