@<TRIPOS>MOLECULE
3r1s_X73_A_1.pdb
 21 22 0 0 0
SMALL
GASTEIGER

@<TRIPOS>ATOM
      1  N01       64.1080   81.8180  -12.3060 N.pl3 647  X73647     -0.2326
      2  N02       66.8250   81.4370  -15.3220 N.am  647  X73647     -0.0837
      3  N03       62.3790   84.9190   -9.9330 N.ar  647  X73647     -0.2327
      4  N04       69.0860   79.8640  -11.1020 N.pl3 647  X73647      0.0577
      5  C05       67.6370   80.8780  -12.6570 C.ar  647  X73647      0.0300
      6  C06       66.3380   81.3910  -12.9830 C.ar  647  X73647      0.0731
      7  C07       65.2880   81.3480  -11.9990 C.ar  647  X73647      0.0702
      8  C08       65.5710   80.7850  -10.7000 C.ar  647  X73647      0.0179
      9  C09       66.8690   80.2790  -10.3930 C.ar  647  X73647      0.0254
     10  C10       67.9140   80.3210  -11.3720 C.ar  647  X73647      0.1431
     11  C11       66.1210   81.9170  -14.2450 C.2   647  X73647      0.2855
     12  C12       62.8560   81.4930  -11.5870 C.3   647  X73647      0.1401
     13  C13       62.5670   82.5530  -10.5540 C.ar  647  X73647      0.0186
     14  C14       62.6330   83.9300  -10.8600 C.ar  647  X73647      0.0973
     15  C15       62.0450   84.5210   -8.6550 C.ar  647  X73647      0.1383
     16  C16       61.9540   83.1770   -8.2590 C.ar  647  X73647      0.0305
     17  C17       62.2230   82.1860   -9.2340 C.ar  647  X73647      0.0014
     18  O18       65.2990   82.7960  -14.4200 O.2   647  X73647     -0.2666
     19  O19       69.2840   79.1120  -10.0400 O.2   647  X73647     -0.1261
     20  O20       70.1190   80.1260  -11.8910 O.2   647  X73647     -0.1261
     21 CL21       61.7190   85.7270   -7.4790 Cl    647  X73647     -0.0613
@<TRIPOS>BOND
     1     2    11   am
     2    18    11    2
     3    11     6    1
     4     6     5   ar
     5     6     7   ar
     6     5    10   ar
     7     1     7    1
     8     1    12    1
     9     7     8   ar
    10    20     4    2
    11    12    13    1
    12    10     4    1
    13    10     9   ar
    14     4    19    2
    15    14    13   ar
    16    14     3   ar
    17     8     9   ar
    18    13    17   ar
    19     3    15   ar
    20    17    16   ar
    21    15    16   ar
    22    15    21    1
