@<TRIPOS>MOLECULE
3r1v_AZB_A_1.pdb
 18 19 0 0 0
SMALL
GASTEIGER

@<TRIPOS>ATOM
      1  C1         0.9940   -5.4080   13.8280 C.3   128  AZB128      0.0047
      2  N1         6.5190   -4.8930   17.2430 N.2   128  AZB128     -0.1480
      3  O1        11.8140   -4.7130   20.9100 O.3   128  AZB128     -0.2866
      4  N2         6.7490   -4.2830   18.3640 N.2   128  AZB128     -0.1480
      5  C3         2.3440   -3.6600   12.5510 C.3   128  AZB128      0.0047
      6  C4         8.9690   -5.4980   18.7280 C.ar  128  AZB128      0.0242
      7  C5        10.2540   -5.5820   19.4070 C.ar  128  AZB128      0.0436
      8  C6        10.6400   -4.6420   20.3010 C.ar  128  AZB128      0.1958
      9  C7         9.7500   -3.6380   20.5270 C.ar  128  AZB128      0.0436
     10  C8         8.4340   -3.5640   19.8270 C.ar  128  AZB128      0.0242
     11  C9         8.0430   -4.4920   18.9390 C.ar  128  AZB128      0.1031
     12  C11        3.2380   -3.6980   15.9130 C.ar  128  AZB128     -0.0027
     13  C12        4.3510   -3.8290   16.7840 C.ar  128  AZB128      0.0206
     14  C13        5.4400   -4.7520   16.4410 C.ar  128  AZB128      0.1029
     15  C14        5.3690   -5.5310   15.2300 C.ar  128  AZB128      0.0206
     16  C15        4.1980   -5.3760   14.3300 C.ar  128  AZB128     -0.0027
     17  C16        3.1530   -4.4530   14.7080 C.ar  128  AZB128     -0.0224
     18  C17        1.9400   -4.2390   13.8600 C.3   128  AZB128      0.0224
@<TRIPOS>BOND
     1     5    18    1
     2     1    18    1
     3    18    17    1
     4    16    17   ar
     5    16    15   ar
     6    17    12   ar
     7    15    14   ar
     8    12    13   ar
     9    14    13   ar
    10    14     2    1
    11     2     4    2
    12     4    11    1
    13     6    11   ar
    14     6     7   ar
    15    11    10   ar
    16     7     8   ar
    17    10     9   ar
    18     8     9   ar
    19     8     3    1
