@<TRIPOS>MOLECULE
3r1y_X76_A_1.pdb
 17 18 0 0 0
SMALL
GASTEIGER

@<TRIPOS>ATOM
      1  N01      118.7700  -26.1040  -48.8330 N.pl3 488  X76488     -0.2326
      2  N02      121.7440  -26.3150  -51.6560 N.am  488  X76488     -0.0837
      3  N03      117.2010  -22.9880  -46.2740 N.ar  488  X76488     -0.2426
      4  C04      122.3510  -26.9040  -48.9340 C.ar  488  X76488      0.0059
      5  C05      121.0700  -26.4200  -49.3580 C.ar  488  X76488      0.0715
      6  C06      119.9410  -26.5410  -48.4600 C.ar  488  X76488      0.0701
      7  C07      120.1420  -27.1510  -47.1630 C.ar  488  X76488      0.0162
      8  C08      121.4210  -27.6220  -46.7680 C.ar  488  X76488      0.0013
      9  C09      122.5240  -27.4980  -47.6520 C.ar  488  X76488      0.0002
     10  C10      120.9520  -25.8550  -50.6260 C.2   488  X76488      0.2854
     11  C11      117.4970  -26.3570  -48.0910 C.3   488  X76488      0.1401
     12  C12      117.2770  -25.3320  -47.0040 C.ar  488  X76488      0.0185
     13  C13      117.3920  -23.9450  -47.2490 C.ar  488  X76488      0.0963
     14  C14      116.8810  -23.4200  -45.0070 C.ar  488  X76488      0.0989
     15  C15      116.7440  -24.7820  -44.6660 C.ar  488  X76488      0.0204
     16  C16      116.9480  -25.7440  -45.6890 C.ar  488  X76488      0.0006
     17  O17      120.1550  -24.9700  -50.8560 O.2   488  X76488     -0.2666
@<TRIPOS>BOND
     1     2    10   am
     2    17    10    2
     3    10     5    1
     4     5     4   ar
     5     5     6   ar
     6     4     9   ar
     7     1     6    1
     8     1    11    1
     9     6     7   ar
    10    11    12    1
    11     9     8   ar
    12    13    12   ar
    13    13     3   ar
    14     7     8   ar
    15    12    16   ar
    16     3    14   ar
    17    16    15   ar
    18    14    15   ar
