@<TRIPOS>MOLECULE
3r1z_DGL_B_1.pdb
 10 9 0 0 0
SMALL
GASTEIGER

@<TRIPOS>ATOM
      1  N        103.6300   86.7790   54.9290 N.3   481  DGL481     -0.1208
      2  CA       102.9050   86.3920   53.7580 C.3   481  DGL481      0.1949
      3  C        103.7430   85.5010   52.8950 C.2   481  DGL481      0.3819
      4  O        103.2000   84.9260   51.9350 O.co2 481  DGL481     -0.2441
      5  CB       101.5790   85.8610   54.1890 C.3   481  DGL481      0.0424
      6  CG       100.8570   86.8020   55.0980 C.3   481  DGL481      0.1161
      7  CD        99.3680   86.7810   55.2770 C.2   481  DGL481      0.3649
      8  OE1       98.8820   86.8310   56.4440 O.co2 481  DGL481     -0.2457
      9  OE2       98.5810   86.7620   54.2840 O.co2 481  DGL481     -0.2457
     10  OXT      105.0020   85.3440   53.0890 O.co2 481  DGL481     -0.2441
@<TRIPOS>BOND
     1     4     3   ar
     2     3    10   ar
     3     3     2    1
     4     2     5    1
     5     2     1    1
     6     5     6    1
     7     9     7   ar
     8     6     7    1
     9     7     8   ar
