@<TRIPOS>MOLECULE
3r1z_GLU_A_1.pdb
 10 9 0 0 0
SMALL
GASTEIGER

@<TRIPOS>ATOM
      1  N         81.7900   57.7880   53.9020 N.3   483  GLU483     -0.1208
      2  CA        82.9480   58.3760   54.5720 C.3   483  GLU483      0.1949
      3  C         84.1930   57.5050   54.4960 C.2   483  GLU483      0.3819
      4  O         84.6300   57.1150   53.4090 O.co2 483  GLU483     -0.2441
      5  CB        82.5960   58.6790   56.0320 C.3   483  GLU483      0.0424
      6  CG        83.2270   59.9370   56.5840 C.3   483  GLU483      0.1161
      7  CD        82.7620   60.2410   57.9940 C.2   483  GLU483      0.3649
      8  OE1       83.3800   59.7090   58.9420 O.co2 483  GLU483     -0.2457
      9  OE2       81.7810   61.0100   58.1600 O.co2 483  GLU483     -0.2457
     10  OXT       84.7980   57.1890   55.5240 O.co2 483  GLU483     -0.2441
@<TRIPOS>BOND
     1     4     3   ar
     2     1     2    1
     3     3     2    1
     4     3    10   ar
     5     2     5    1
     6     5     6    1
     7     6     7    1
     8     7     9   ar
     9     7     8   ar
