@<TRIPOS>MOLECULE
3r21_D36_A_1.pdb
 31 34 0 0 0
SMALL
GASTEIGER

@<TRIPOS>ATOM
      1  S          3.8050   34.6550    0.4860 S.O2    1  D361        0.0600
      2  C1         3.1210   35.8630   -0.4390 C.3     1  D361        0.1999
      3  N1         2.7750   33.7570    1.1990 N.pl3   1  D361       -0.1762
      4  O1         4.7240   35.3070    1.4110 O.2     1  D361       -0.1542
      5  C2         1.6330   33.1370    0.4900 C.3     1  D361        0.1375
      6  N2         1.5950   31.3110   -1.2840 N.3     1  D361       -0.1294
      7  O2         4.6400   33.8240   -0.3130 O.2     1  D361       -0.1542
      8  C3         2.0710   31.7210    0.0600 C.3     1  D361        0.1327
      9  N3         3.2960   32.9040    6.6580 N.pl3   1  D361       -0.1341
     10  C4         2.9740   33.4980    2.5600 C.ar    1  D361        0.1502
     11  N4         4.7670   31.0750    6.8340 N.2     1  D361       -0.3166
     12  C5         3.9980   32.6040    3.0260 C.ar    1  D361        0.0372
     13  N5         6.2870   29.1630    7.2700 N.ar    1  D361       -0.2254
     14  C6         4.1550   32.3740    4.4130 C.ar    1  D361        0.0218
     15  N6         6.7390   28.5080    8.4310 N.ar    1  D361       -0.1656
     16  C7         3.2720   33.0160    5.3020 C.ar    1  D361        0.1018
     17  N7         3.8090   31.9770    8.7910 N.2     1  D361       -0.1682
     18  C8         3.9570   31.9880    7.4270 C.1     1  D361        0.1711
     19  N8         2.1660   34.1140    3.4460 N.ar    1  D361       -0.2263
     20  C9         5.4310   30.1550    7.5460 C.ar    1  D361        0.2265
     21  C10        6.8790   28.6170    6.0170 C.3     1  D361        0.1078
     22  C11        7.9140   29.6720    5.5530 C.3     1  D361        0.0244
     23  C12        7.7600   30.2560    4.1360 C.3     1  D361        0.0020
     24  C13        8.0730   29.2710    3.0030 C.3     1  D361        0.0001
     25  C14        6.7480   28.5410    2.6890 C.3     1  D361        0.0001
     26  C15        6.3550   27.5440    3.8110 C.3     1  D361        0.0020
     27  C16        5.7660   28.2610    5.0200 C.3     1  D361        0.0244
     28  C17        6.1200   29.0930    9.4840 C.ar    1  D361        0.1259
     29  C18        5.3090   30.1340    8.9000 C.ar    1  D361        0.0896
     30  C19        4.4690   31.0760    9.5290 C.2     1  D361        0.1175
     31  C20        2.2920   33.8700    4.7730 C.ar    1  D361        0.1176
@<TRIPOS>BOND
     1     6     8    1
     2     2     1    1
     3     7     1    2
     4     8     5    1
     5     1     3    1
     6     1     4    2
     7     5     3    1
     8     3    10    1
     9    10    12   ar
    10    10    19   ar
    11    25    24    1
    12    25    26    1
    13    24    23    1
    14    12    14   ar
    15    19    31   ar
    16    26    27    1
    17    23    22    1
    18    14    16   ar
    19    31    16   ar
    20    27    21    1
    21    16     9    1
    22    22    21    1
    23    21    13    1
    24     9    18    1
    25    11    18    2
    26    11    20    2
    27    13    20   ar
    28    13    15   ar
    29    18    17    2
    30    20    29   ar
    31    15    28   ar
    32    17    30    1
    33    29    28   ar
    34    29    30    2
