@<TRIPOS>MOLECULE
3r22_D37_A_1.pdb
 28 31 0 0 0
SMALL
GASTEIGER

@<TRIPOS>ATOM
      1  N1        -2.4140  -34.0080    1.9930 N.pl3   1  D371       -0.0812
      2  N3        -4.3690  -30.5460    7.0330 N.2     1  D371       -0.3166
      3  C4        -3.9010  -32.5380    5.0170 C.ar    1  D371        0.0219
      4  C5        -2.8240  -32.6810    5.8740 C.ar    1  D371        0.1018
      5  C6        -3.6650  -31.4120    7.7730 C.1     1  D371        0.1711
      6  C7        -5.1870  -29.6610    7.6480 C.ar    1  D371        0.2265
      7  C8        -6.3870  -28.1910    5.8860 C.3     1  D371        0.1078
      8  C10       -7.2240  -29.5730    3.8440 C.3     1  D371        0.0020
      9  C13       -5.4090  -27.0920    3.8490 C.3     1  D371        0.0020
     10  C15       -6.2030  -28.6230    9.4640 C.ar    1  D371        0.1259
     11  C17       -4.5590  -30.5200    9.7840 C.2     1  D371        0.1175
     12  O2        -4.7290  -33.4170    1.1380 O.2     1  D371       -0.1528
     13  S         -3.3540  -33.6170    0.7430 S.O2    1  D371        0.0764
     14  O1        -3.3450  -34.7190   -0.1920 O.2     1  D371       -0.1528
     15  C1        -2.7430  -32.2310    0.0410 C.3     1  D371        0.2017
     16  C2        -2.5780  -33.5600    3.2580 C.ar    1  D371        0.1713
     17  N7        -1.5530  -33.7020    4.1200 N.ar    1  D371       -0.2245
     18  C18       -1.6610  -33.2780    5.3870 C.ar    1  D371        0.1177
     19  C3        -3.7730  -32.9770    3.7000 C.ar    1  D371        0.0390
     20  N2        -2.8470  -32.2980    7.1730 N.pl3   1  D371       -0.1341
     21  N6        -3.7640  -31.3850    9.1310 N.2     1  D371       -0.1682
     22  C16       -5.2950  -29.6280    9.0220 C.ar    1  D371        0.0896
     23  N5        -6.6400  -28.0590    8.3030 N.ar    1  D371       -0.1656
     24  N4        -6.0070  -28.7000    7.2240 N.ar    1  D371       -0.2254
     25  C14       -5.1390  -28.0140    5.0280 C.3     1  D371        0.0244
     26  C12       -5.9150  -27.8630    2.6370 C.3     1  D371        0.0001
     27  C11       -7.3140  -28.3950    2.8950 C.3     1  D371        0.0001
     28  C9        -7.4120  -29.1740    5.3100 C.3     1  D371        0.0244
@<TRIPOS>BOND
     1    14    13    2
     2    15    13    1
     3    13    12    2
     4    13     1    1
     5     1    16    1
     6    26    27    1
     7    26     9    1
     8    27     8    1
     9    16    19   ar
    10    16    17   ar
    11    19     3   ar
    12     8    28    1
    13     9    25    1
    14    17    18   ar
    15     3     4   ar
    16    25     7    1
    17    28     7    1
    18    18     4   ar
    19     4    20    1
    20     7    24    1
    21     2     6    2
    22     2     5    2
    23    20     5    1
    24    24     6   ar
    25    24    23   ar
    26     6    22   ar
    27     5    21    2
    28    23    10   ar
    29    22    10   ar
    30    22    11    2
    31    21    11    1
