@<TRIPOS>MOLECULE
3r24_SAM_A_1.pdb
 27 29 0 0 0
SMALL
GASTEIGER

@<TRIPOS>ATOM
      1  N         60.5760   61.6140   68.5260 N.3   302  SAM302     -0.1208
      2  CA        60.2890   60.3340   67.8830 C.3   302  SAM302      0.1952
      3  C         61.4520   59.3590   68.0280 C.2   302  SAM302      0.3819
      4  O         61.6820   58.5050   67.1670 O.co2 302  SAM302     -0.2441
      5  OXT       62.1820   59.4090   69.0250 O.co2 302  SAM302     -0.2441
      6  CB        59.8590   60.5350   66.4260 C.3   302  SAM302      0.0414
      7  CG        58.8950   61.7100   66.2740 C.3   302  SAM302      0.0503
      8  SD        57.9890   61.7250   64.7020 S.3   302  SAM302     -0.1761
      9  CE        59.1970   62.5990   63.6870 C.3   302  SAM302      0.0590
     10  C5'       56.7340   63.0110   64.9610 C.3   302  SAM302      0.0806
     11  C4'       55.6910   62.6000   65.9960 C.3   302  SAM302      0.1622
     12  O4'       54.8970   63.7130   66.3820 O.3   302  SAM302     -0.3153
     13  C3'       54.7360   61.5410   65.4540 C.3   302  SAM302      0.2168
     14  O3'       54.7940   60.3900   66.2710 O.3   302  SAM302     -0.2175
     15  C2'       53.3630   62.1850   65.5400 C.3   302  SAM302      0.2569
     16  O2'       52.3590   61.2840   65.9370 O.3   302  SAM302     -0.2130
     17  C1'       53.5700   63.2630   66.5890 C.3   302  SAM302      0.3185
     18  N9        52.5390   64.3300   66.5250 N.pl3 302  SAM302     -0.1439
     19  C8        52.2120   65.1520   65.4740 C.3   302  SAM302      0.3377
     20  N7        51.2100   65.9840   65.8680 N.2   302  SAM302     -0.2095
     21  C5        50.8870   65.6990   67.1490 C.2   302  SAM302      0.2526
     22  C6        49.9490   66.2240   68.0330 C.2   302  SAM302      0.4393
     23  N6        49.1320   67.2080   67.6680 N.pl3 302  SAM302      0.2180
     24  N1        49.8630   65.7120   69.3060 N.2   302  SAM302      0.0021
     25  C2        50.6940   64.6940   69.7070 C.3   302  SAM302      0.5254
     26  N3        51.6210   64.1760   68.8250 N.2   302  SAM302     -0.0055
     27  C4        51.7190   64.6680   67.5710 C.2   302  SAM302      0.3518
@<TRIPOS>BOND
     1     9     8    1
     2     8    10    1
     3     8     7    1
     4    10    11    1
     5    13    15    1
     6    13    11    1
     7    13    14    1
     8    19    20    1
     9    19    18    1
    10    15    16    1
    11    15    17    1
    12    20    21    2
    13    11    12    1
    14     7     6    1
    15    12    17    1
    16     6     2    1
    17    18    17    1
    18    18    27    1
    19    21    27    1
    20    21    22    1
    21     4     3   ar
    22    27    26    2
    23    23    22    1
    24     2     3    1
    25     2     1    1
    26     3     5   ar
    27    22    24    2
    28    26    25    1
    29    24    25    1
