@<TRIPOS>MOLECULE
3r28_XA0_A_1.pdb
 24 25 0 0 0
SMALL
GASTEIGER

@<TRIPOS>ATOM
      1  N01      -64.3640  -10.4170   24.1010 N.pl3 782  XA0782     -0.2326
      2  N02      -66.8460   -9.6810   20.8710 N.am  782  XA0782     -0.0837
      3  N03      -69.3780   -8.4230   25.0170 N.pl3 782  XA0782      0.0585
      4  C04      -67.8110   -9.3060   23.5070 C.ar  782  XA0782      0.0309
      5  C05      -66.5060   -9.8340   23.2370 C.ar  782  XA0782      0.0732
      6  C06      -65.5570   -9.9480   24.3160 C.ar  782  XA0782      0.0711
      7  C07      -65.9470   -9.5470   25.6270 C.ar  782  XA0782      0.0293
      8  C08      -67.2280   -9.0350   25.8990 C.ar  782  XA0782      0.0813
      9  C09      -68.1920   -8.8970   24.8290 C.ar  782  XA0782      0.1536
     10  C10      -66.1880  -10.2250   21.9470 C.2   782  XA0782      0.2855
     11  C11      -63.1700  -10.0440   24.9160 C.3   782  XA0782      0.1387
     12  C12      -62.9440  -11.0720   26.0040 C.ar  782  XA0782      0.0040
     13  C13      -62.6600  -10.6490   27.3330 C.ar  782  XA0782      0.0296
     14  C14      -62.4550  -11.6130   28.3600 C.ar  782  XA0782      0.1694
     15  C15      -62.5350  -13.0000   28.0580 C.ar  782  XA0782      0.1946
     16  C16      -62.8230  -13.4200   26.7310 C.ar  782  XA0782      0.1694
     17  C17      -63.0260  -12.4590   25.7060 C.ar  782  XA0782      0.0296
     18  O18      -65.3380  -11.0730   21.7540 O.2   782  XA0782     -0.2666
     19  O19      -70.4000   -8.8620   24.3070 O.2   782  XA0782     -0.1261
     20  O20      -69.5940   -7.4530   25.8900 O.2   782  XA0782     -0.1261
     21 CL21      -67.5690   -8.5990   27.5350 Cl    782  XA0782     -0.0805
     22  F22      -62.9050  -14.7000   26.4510 F     782  XA0782     -0.2017
     23  F23      -62.1950  -11.2170   29.5930 F     782  XA0782     -0.2017
     24  F24      -62.3440  -13.9050   29.0130 F     782  XA0782     -0.1994
@<TRIPOS>BOND
     1     2    10   am
     2    18    10    2
     3    10     5    1
     4     5     4   ar
     5     5     6   ar
     6     4     9   ar
     7     1     6    1
     8     1    11    1
     9    19     3    2
    10     6     7   ar
    11     9     3    1
    12     9     8   ar
    13    11    12    1
    14     3    20    2
    15     7     8   ar
    16    17    12   ar
    17    17    16   ar
    18     8    21    1
    19    12    13   ar
    20    22    16    1
    21    16    15   ar
    22    13    14   ar
    23    15    14   ar
    24    15    24    1
    25    14    23    1
