@<TRIPOS>MOLECULE
3r2a_RHN_A_1.pdb
 21 23 0 0 0
SMALL
GASTEIGER

@<TRIPOS>ATOM
      1  OAA      -47.3650  -14.7690    1.6270 O.co2   1  RHN1       -0.2406
      2  OAB      -49.6860   -9.3020    1.4710 O.2     1  RHN1       -0.2866
      3  OAC      -52.0480  -11.7870   -2.5350 O.2     1  RHN1       -0.2864
      4  OAD      -48.6020  -14.0650    3.2540 O.co2   1  RHN1       -0.2406
      5  OAE      -53.0210   -9.7760   -3.3390 O.3     1  RHN1       -0.2865
      6  OAF      -51.1450  -13.9260   -1.8660 O.3     1  RHN1       -0.2865
      7  CAG      -51.9810   -7.0610   -1.1180 C.ar    1  RHN1        0.0034
      8  CAH      -52.6030   -7.7150   -2.1770 C.ar    1  RHN1        0.0421
      9  CAI      -51.1970   -7.7890   -0.2240 C.ar    1  RHN1        0.0035
     10  CAJ      -49.7430  -14.0350    0.0740 C.ar    1  RHN1        0.0487
     11  CAK      -49.2920  -11.9970    1.2700 C.ar    1  RHN1        0.0101
     12  CAL      -48.3360  -14.0920    2.0330 C.2     1  RHN1        0.3879
     13  CAM      -49.1210  -13.3760    1.1290 C.ar    1  RHN1        0.0831
     14  CAN      -52.4340   -9.0900   -2.3240 C.ar    1  RHN1        0.1988
     15  CAO      -50.5250  -13.3110   -0.8230 C.ar    1  RHN1        0.1990
     16  CAP      -50.2370   -9.8850    0.5350 C.2     1  RHN1        0.1959
     17  CAQ      -51.4940  -11.2110   -1.5960 C.2     1  RHN1        0.2019
     18  CAR      -51.0260   -9.1690   -0.3710 C.ar    1  RHN1        0.0451
     19  CAS      -50.0800  -11.2670    0.3710 C.ar    1  RHN1        0.0453
     20  CAT      -51.6520   -9.8310   -1.4330 C.ar    1  RHN1        0.0810
     21  CAU      -50.7060  -11.9290   -0.6900 C.ar    1  RHN1        0.0810
@<TRIPOS>BOND
     1     5    14    1
     2     3    17    2
     3    14     8   ar
     4    14    20   ar
     5     8     7   ar
     6     6    15    1
     7    17    20    1
     8    17    21    1
     9    20    18   ar
    10     7     9   ar
    11    15    21   ar
    12    15    10   ar
    13    21    19   ar
    14    18     9   ar
    15    18    16    1
    16    10    13   ar
    17    19    16    1
    18    19    11   ar
    19    16     2    2
    20    13    11   ar
    21    13    12    1
    22     1    12   ar
    23    12     4   ar
