@<TRIPOS>MOLECULE
3r2a_III_E_1.pdb
 50 49 0 0 0
SMALL
GASTEIGER

@<TRIPOS>ATOM
      1  N        -29.9340  -25.2700  -20.2480 N.3   2338  ASN2338    -0.1225
      2  CA       -30.5140  -25.2520  -21.5750 C.3   2338  ASN2338     0.1785
      3  C        -29.4640  -25.4350  -22.6210 C.2   2338  ASN2338     0.2597
      4  O        -28.5150  -24.6950  -22.6900 O.2   2338  ASN2338    -0.2718
      5  CB       -31.2650  -23.9660  -21.8340 C.3   2338  ASN2338     0.1169
      6  CG       -31.4470  -23.7050  -23.2850 C.2   2338  ASN2338     0.2627
      7  OD1      -30.5280  -23.8990  -24.0750 O.2   2338  ASN2338    -0.2716
      8  ND2      -32.6310  -23.2590  -23.6590 N.am  2338  ASN2338    -0.0877
      9  N        -29.6700  -26.4280  -23.4610 N.am  2339  MET2339    -0.1965
     10  CA       -28.6990  -26.8270  -24.4410 C.3   2339  MET2339     0.1736
     11  C        -28.3930  -25.7400  -25.4600 C.2   2339  MET2339     0.2617
     12  O        -27.2520  -25.5550  -25.8210 O.2   2339  MET2339    -0.2715
     13  CB       -29.2440  -28.0700  -25.1230 C.3   2339  MET2339     0.0427
     14  CG       -30.4930  -28.6250  -24.4220 C.3   2339  MET2339     0.0599
     15  SD       -30.2650  -29.8570  -23.1210 S.3   2339  MET2339    -0.1393
     16  CE       -30.4130  -31.3800  -24.0380 C.3   2339  MET2339     0.0692
     17  N        -29.4020  -25.0180  -25.9240 N.am  2340  GLY2340    -0.1940
     18  CA       -29.1790  -23.9530  -26.8850 C.3   2340  GLY2340     0.2014
     19  C        -28.3220  -22.8440  -26.3260 C.2   2340  GLY2340     0.2639
     20  O        -27.4660  -22.2810  -26.9790 O.2   2340  GLY2340    -0.2714
     21  N        -28.6010  -22.5360  -25.0790 N.am  2341  LEU2341    -0.1963
     22  CA       -27.9330  -21.5120  -24.2940 C.3   2341  LEU2341     0.1728
     23  C        -26.4710  -21.7940  -24.0680 C.2   2341  LEU2341     0.2616
     24  O        -25.6470  -20.9040  -24.0690 O.2   2341  LEU2341    -0.2715
     25  CB       -28.6360  -21.3350  -22.9520 C.3   2341  LEU2341     0.0311
     26  CG       -28.3280  -20.0940  -22.1290 C.3   2341  LEU2341     0.0022
     27  CD1      -26.8740  -20.0520  -21.7660 C.3   2341  LEU2341     0.0001
     28  CD2      -28.7260  -18.8890  -22.9120 C.3   2341  LEU2341     0.0001
     29  N        -26.1730  -23.0550  -23.7880 N.am  2342  GLU2342    -0.1963
     30  CA       -24.8350  -23.4480  -23.3950 C.3   2342  GLU2342     0.1733
     31  C        -23.8260  -23.4620  -24.4960 C.2   2342  GLU2342     0.2616
     32  O        -22.8060  -24.1110  -24.3810 O.2   2342  GLU2342    -0.2715
     33  CB       -24.8140  -24.7610  -22.6100 C.3   2342  GLU2342     0.0429
     34  CG       -25.9450  -25.7060  -22.9150 C.3   2342  GLU2342     0.1163
     35  CD       -25.9280  -26.9220  -22.0210 C.2   2342  GLU2342     0.3649
     36  OE1      -26.6950  -27.8660  -22.2710 O.co2 2342  GLU2342    -0.2457
     37  OE2      -25.1460  -26.9370  -21.0620 O.co2 2342  GLU2342    -0.2457
     38  N        -24.0840  -22.7210  -25.5570 N.am  2343  ALA2343    -0.1963
     39  CA       -23.0700  -22.5790  -26.5610 C.3   2343  ALA2343     0.1728
     40  C        -22.6640  -21.1920  -26.1710 C.2   2343  ALA2343     0.2616
     41  O        -23.4300  -20.2680  -26.2340 O.2   2343  ALA2343    -0.2715
     42  CB       -23.6640  -22.6040  -27.9070 C.3   2343  ALA2343     0.0334
     43  N        -21.4310  -21.0600  -25.7590 N.am  2344  ILE2344    -0.1977
     44  CA       -20.9680  -19.8490  -25.1740 C.3   2344  ILE2344     0.1596
     45  C        -19.8660  -19.2570  -25.9940 C.2   2344  ILE2344     0.2287
     46  O        -18.7100  -19.3990  -25.6460 O.2   2344  ILE2344    -0.2864
     47  CB       -20.4740  -20.1720  -23.7590 C.3   2344  ILE2344     0.0276
     48  CG1      -21.5980  -19.9560  -22.7450 C.3   2344  ILE2344     0.0022
     49  CG2      -19.2430  -19.3830  -23.4100 C.3   2344  ILE2344     0.0022
     50  CD1      -21.9260  -18.5230  -22.4960 C.3   2344  ILE2344     0.0001
@<TRIPOS>BOND
     1    42    39    1
     2    20    19    2
     3    18    19    1
     4    18    17    1
     5    39    40    1
     6    39    38    1
     7    19    21   am
     8    41    40    2
     9    40    43   am
    10    45    46    2
    11    45    44    1
    12    17    11   am
    13    12    11    2
    14    43    44    1
    15    38    31   am
    16    11    10    1
    17    44    47    1
    18    13    10    1
    19    13    14    1
    20    21    22    1
    21    31    32    2
    22    31    30    1
    23    10     9    1
    24    14    15    1
    25    22    23    1
    26    22    25    1
    27     7     6    2
    28    24    23    2
    29    23    29   am
    30    16    15    1
    31    29    30    1
    32    47    49    1
    33    47    48    1
    34     8     6   am
    35     9     3   am
    36    30    33    1
    37     6     5    1
    38    25    26    1
    39    34    33    1
    40    34    35    1
    41    28    26    1
    42    48    50    1
    43     4     3    2
    44     3     2    1
    45    36    35   ar
    46    26    27    1
    47    35    37   ar
    48     5     2    1
    49     2     1    1
