@<TRIPOS>MOLECULE
3r2b_05B_A_1.pdb
 30 35 0 0 0
SMALL
GASTEIGER

@<TRIPOS>ATOM
      1  C1        -8.9360  -52.4700   10.6670 C.3   1000  05B1000     0.0734
      2  C2        -9.3090  -51.0310   11.0750 C.3   1000  05B1000     0.1445
      3  N3        -8.3650  -50.2770   11.8930 N.2   1000  05B1000    -0.2021
      4  C4        -7.2270  -50.7600   12.4420 C.1   1000  05B1000     0.1523
      5  N5       -11.0800  -53.3390    8.9350 N.3   1000  05B1000    -0.2180
      6  C6       -10.0180  -53.4570   11.1420 C.3   1000  05B1000     0.0275
      7  C7        -8.7610  -52.5810    9.1400 C.3   1000  05B1000     0.0275
      8  C8       -10.0850  -52.4310    8.3730 C.3   1000  05B1000     0.0892
      9  C9       -11.3340  -53.2930   10.3720 C.3   1000  05B1000     0.0892
     10  O10       -6.5510  -50.0820   13.1920 O.2   1000  05B1000    -0.2222
     11  C11       -7.6380  -52.9320   11.2880 C.2   1000  05B1000     0.1212
     12  C12       -6.8460  -52.1400   12.1170 C.2   1000  05B1000     0.1107
     13  C13       -5.7300  -52.8980   12.4970 C.2   1000  05B1000     0.0486
     14  C14       -5.8700  -54.1160   11.9040 C.2   1000  05B1000     0.1621
     15  N15       -7.0360  -54.1140   11.1750 N.2   1000  05B1000    -0.4028
     16  C16       -4.9530  -55.2660   12.0010 C.2   1000  05B1000     0.1737
     17  C17       -4.1060  -55.4410   13.1020 C.2   1000  05B1000     0.0571
     18  C18       -3.2780  -56.5520   13.1140 C.2   1000  05B1000     0.1133
     19  N19       -3.3040  -57.4130   12.1000 N.2   1000  05B1000    -0.1822
     20  C20       -4.1220  -57.2230   11.0640 C.1   1000  05B1000     0.0875
     21  N21       -4.9290  -56.1690   11.0170 N.2   1000  05B1000    -0.3477
     22  C22       -4.1550  -58.1840    9.9320 C.ar  1000  05B1000     0.0773
     23  C23       -2.9940  -58.8460    9.5110 C.ar  1000  05B1000     0.0143
     24  C24       -3.0470  -59.7360    8.4530 C.ar  1000  05B1000     0.0409
     25  C25       -5.3630  -58.4280    9.2680 C.ar  1000  05B1000     0.0512
     26  C26       -5.4110  -59.3190    8.2110 C.ar  1000  05B1000     0.1771
     27  C27       -4.2490  -59.9770    7.8000 C.ar  1000  05B1000     0.1765
     28  O28       -4.5640  -60.7860    6.7460 O.3   1000  05B1000    -0.4346
     29  C29       -5.8120  -60.2760    6.2370 C.3   1000  05B1000     0.4294
     30  O30       -6.4440  -59.7240    7.4120 O.3   1000  05B1000    -0.4346
@<TRIPOS>BOND
     1    29    28    1
     2    29    30    1
     3    28    27    1
     4    30    26    1
     5    27    26   ar
     6    27    24   ar
     7    26    25   ar
     8     8     5    1
     9     8     7    1
    10    24    23   ar
    11     5     9    1
    12     7     1    1
    13    25    22   ar
    14    23    22   ar
    15    22    20    1
    16     9     6    1
    17     1     2    1
    18     1     6    1
    19     1    11    1
    20    21    20    2
    21    21    16    2
    22    20    19    2
    23     2     3    1
    24    15    11    2
    25    15    14    2
    26    11    12    1
    27     3     4    2
    28    14    16    1
    29    14    13    1
    30    16    17    1
    31    19    18    1
    32    12     4    1
    33    12    13    2
    34     4    10    2
    35    17    18    2
