@<TRIPOS>MOLECULE
3r2f_PB0_A_1.pdb
 47 50 0 0 0
SMALL
GASTEIGER

@<TRIPOS>ATOM
      1  C1        -1.7920   16.8700   23.2250 C.ar  394  PB0394     -0.0000
      2  C2        -2.3480   17.8930   23.9940 C.ar  394  PB0394     -0.0003
      3  C3        -1.0820   15.8250   23.8450 C.ar  394  PB0394     -0.0003
      4  C4        -2.1880   17.8570   25.3810 C.ar  394  PB0394     -0.0043
      5  C5        -0.9200   15.7950   25.2350 C.ar  394  PB0394     -0.0043
      6  C6        -3.7950   11.9610   31.9070 C.ar  394  PB0394      0.0256
      7  C7        -1.8750   12.0170   33.3160 C.ar  394  PB0394      0.0256
      8  C8        -2.0710   10.2990   31.6070 C.ar  394  PB0394      0.0592
      9  C9        -1.4800   16.8200   25.9940 C.ar  394  PB0394     -0.0221
     10  C10       -3.1020   12.5650   32.9520 C.ar  394  PB0394     -0.0159
     11  C11       -3.2870   10.8510   31.2450 C.ar  394  PB0394      0.1421
     12  C12       -1.3580   10.8950   32.6460 C.ar  394  PB0394      0.1421
     13  C13        0.2400   15.2190   30.2150 C.2   394  PB0394      0.2438
     14  C14        2.7730   14.4240   28.6010 C.2   394  PB0394      0.2422
     15  C15       -3.2670   15.4180   30.5080 C.2   394  PB0394      0.2595
     16  C16        0.2650   12.8850   29.6180 C.3   394  PB0394      0.0504
     17  C17       -6.4190   16.8730   31.7920 C.3   394  PB0394      0.0511
     18  C18       -1.1540   13.4480   29.7390 C.3   394  PB0394      0.0961
     19  C19       -6.7200   19.0660   32.6350 C.3   394  PB0394      0.1182
     20  C20       -7.4850   17.9630   31.9120 C.3   394  PB0394      0.1340
     21  C21       -5.2630   17.2690   32.7340 C.3   394  PB0394      0.1074
     22  C22        1.0450   13.9600   30.3850 C.3   394  PB0394      0.1485
     23  C23        4.2390   14.4280   28.2350 C.3   394  PB0394      0.0964
     24  C24      -10.8650   16.3310   34.3490 C.3   394  PB0394      0.0027
     25  C25        1.6100   13.0330   34.1350 C.3   394  PB0394      0.0001
     26  C26        2.8280   11.9770   32.2710 C.3   394  PB0394      0.0001
     27  C27       -1.3250   16.8250   27.4930 C.3   394  PB0394      0.0286
     28  C28       -3.6760   13.7790   33.6670 C.3   394  PB0394      0.0508
     29  C29        0.9070   13.5280   31.8510 C.3   394  PB0394      0.0289
     30  C30      -10.2990   15.9020   32.9890 C.3   394  PB0394      0.0321
     31  C31       -2.4400   16.0320   28.1820 C.3   394  PB0394      0.0339
     32  C32       -9.7550   17.0940   32.1840 C.3   394  PB0394      0.1421
     33  C33       -2.1010   15.8590   29.6590 C.3   394  PB0394      0.1538
     34  C34       -4.6920   16.1000   33.5630 C.3   394  PB0394      0.1880
     35  C35        2.1350   13.2600   32.7120 C.3   394  PB0394      0.0021
     36  C36       -4.1870   14.8960   32.7320 C.3   394  PB0394      0.1313
     37  N37       -5.8810   18.3070   33.6160 N.3   394  PB0394     -0.2142
     38  N38       -1.0140   14.9080   29.8650 N.am  394  PB0394     -0.2715
     39  N39        2.4150   14.0410   29.8450 N.am  394  PB0394     -0.1999
     40  N40       -3.1040   15.3290   31.8450 N.am  394  PB0394     -0.2028
     41  O41        0.6510   16.3400   30.4160 O.2   394  PB0394     -0.2731
     42  O42        1.9920   14.7770   27.7310 O.2   394  PB0394     -0.2733
     43  O43       -4.3410   15.1440   30.0030 O.2   394  PB0394     -0.2716
     44  O44       -5.6910   15.6880   34.5010 O.3   394  PB0394     -0.2198
     45  O45       -8.5240   17.5260   32.7910 O.3   394  PB0394     -0.3547
     46  F46       -3.9870   10.2990   30.2530 F     394  PB0394     -0.2041
     47  F47       -0.1650   10.3730   32.9950 F     394  PB0394     -0.2041
@<TRIPOS>BOND
     1     1     3   ar
     2     1     2   ar
     3     3     5   ar
     4     2     4   ar
     5     5     9   ar
     6     4     9   ar
     7     9    27    1
     8    27    31    1
     9    42    14    2
    10    31    33    1
    11    23    14    1
    12    14    39   am
    13    16    18    1
    14    16    22    1
    15    33    38    1
    16    33    15    1
    17    18    38    1
    18    39    22    1
    19    38    13   am
    20    43    15    2
    21    13    22    1
    22    13    41    2
    23    46    11    1
    24    22    29    1
    25    15    40   am
    26    11     8   ar
    27    11     6   ar
    28     8    12   ar
    29    17    20    1
    30    17    21    1
    31    40    36    1
    32    29    35    1
    33     6    10   ar
    34    20    19    1
    35    20    45    1
    36    32    45    1
    37    32    30    1
    38    26    35    1
    39    19    37    1
    40    12    47    1
    41    12     7   ar
    42    35    25    1
    43    36    34    1
    44    36    28    1
    45    21    34    1
    46    21    37    1
    47    10     7   ar
    48    10    28    1
    49    30    24    1
    50    34    44    1
