@<TRIPOS>MOLECULE
3r2q_GSH_A_1.pdb
 20 19 0 0 0
SMALL
GASTEIGER

@<TRIPOS>ATOM
      1  N1       -39.3550   22.1250    9.4140 N.3   301  GSH301     -0.1208
      2  CA1      -38.1860   22.6150   10.1750 C.3   301  GSH301      0.1948
      3  C1       -37.1580   23.2850    9.2510 C.2   301  GSH301      0.3819
      4  O11      -36.4860   24.2250    9.7660 O.co2 301  GSH301     -0.2441
      5  O12      -37.0540   22.9050    8.0720 O.co2 301  GSH301     -0.2441
      6  CB1      -37.5690   21.4450   10.9700 C.3   301  GSH301      0.0402
      7  CG1      -36.4910   21.9100   11.9060 C.3   301  GSH301      0.0889
      8  CD1      -36.0830   20.8640   12.9180 C.2   301  GSH301      0.2418
      9  OE1      -36.6350   19.7570   12.9750 O.2   301  GSH301     -0.2733
     10  N2       -35.1290   21.2540   13.7550 N.am  301  GSH301     -0.1968
     11  CA2      -34.7540   20.3830   14.9140 C.3   301  GSH301      0.1843
     12  C2       -35.3080   21.0230   16.1690 C.2   301  GSH301      0.2627
     13  O2       -35.2000   22.2170   16.4220 O.2   301  GSH301     -0.2714
     14  CB2      -33.2200   20.3360   15.0900 C.3   301  GSH301      0.0997
     15  SG2      -32.4330   19.4580   13.7420 S.3   301  GSH301     -0.0797
     16  N3       -35.9270   20.1100   16.9680 N.am  301  GSH301     -0.1917
     17  CA3      -36.5080   20.5120   18.2620 C.3   301  GSH301      0.2285
     18  C3       -37.8820   19.9140   18.4530 C.2   301  GSH301      0.3865
     19  O31      -38.4170   20.1190   19.5700 O.co2 301  GSH301     -0.2437
     20  O32      -38.4150   19.2580   17.5220 O.co2 301  GSH301     -0.2437
@<TRIPOS>BOND
     1     5     3   ar
     2     3     4   ar
     3     3     2    1
     4     1     2    1
     5     2     6    1
     6     6     7    1
     7     7     8    1
     8     8     9    2
     9     8    10   am
    10    15    14    1
    11    10    11    1
    12    11    14    1
    13    11    12    1
    14    12    13    2
    15    12    16   am
    16    16    17    1
    17    20    18   ar
    18    17    18    1
    19    18    19   ar
