@<TRIPOS>MOLECULE
3r2y_P4O_A_1.pdb
 26 30 0 0 0
SMALL
GASTEIGER

@<TRIPOS>ATOM
      1  C19        6.1940   18.9140   48.3120 C.ar    3  P4O3        0.0045
      2  C20        6.0800   18.8820   49.7030 C.ar    3  P4O3        0.0177
      3  C25        5.2090   17.9730   50.3250 C.ar    3  P4O3        0.0015
      4  C24        5.1280   17.9540   51.6820 C.ar    3  P4O3        0.0001
      5  C23        5.8980   18.8330   52.4610 C.ar    3  P4O3        0.0015
      6  C22        6.7500   19.7390   51.8830 C.ar    3  P4O3        0.0191
      7  C21        6.8640   19.7810   50.4750 C.ar    3  P4O3        0.0813
      8  N16        7.6910   20.6360   49.8650 N.ar    3  P4O3       -0.2438
      9  C17        7.7990   20.6640   48.5620 C.ar    3  P4O3        0.1003
     10  C18        7.0610   19.8120   47.7210 C.ar    3  P4O3        0.0368
     11  C14        7.1980   19.8880   46.2360 C.ar    3  P4O3        0.0829
     12  C13        6.8230   18.8500   45.3920 C.ar    3  P4O3        0.0217
     13  N15        7.6820   20.9990   45.7020 N.ar    3  P4O3       -0.2438
     14  C10        7.8610   21.1610   44.4030 C.ar    3  P4O3        0.0989
     15  C11        7.5040   20.1740   43.5110 C.ar    3  P4O3        0.0232
     16  C12        6.9720   18.9900   44.0090 C.ar    3  P4O3        0.0326
     17  C2         6.5750   17.9070   43.1020 C.2     3  P4O3        0.1319
     18  C3         6.7860   17.8920   41.7650 C.2     3  P4O3        0.0459
     19  C4         6.2450   16.6940   41.3070 C.2     3  P4O3        0.1107
     20  C6         6.1890   16.1420   39.9530 C.1     3  P4O3        0.1523
     21  O26        6.6000   16.7920   39.0120 O.2     3  P4O3       -0.2222
     22  N7         5.6690   14.9040   39.8280 N.2     3  P4O3       -0.2020
     23  C8         5.5530   13.9880   40.9510 C.3     3  P4O3        0.1453
     24  C9         5.0780   14.6590   42.2460 C.3     3  P4O3        0.0869
     25  C5         5.7210   16.0070   42.3990 C.2     3  P4O3        0.1219
     26  N1         5.9160   16.7490   43.4760 N.2     3  P4O3       -0.4054
@<TRIPOS>BOND
     1    21    20    2
     2    22    20    2
     3    22    23    1
     4    20    19    1
     5    23    24    1
     6    19    18    2
     7    19    25    1
     8    18    17    1
     9    24    25    1
    10    25    26    2
    11    17    26    2
    12    17    16    1
    13    15    16   ar
    14    15    14   ar
    15    16    12   ar
    16    14    13   ar
    17    12    11   ar
    18    13    11   ar
    19    11    10    1
    20    10     1   ar
    21    10     9   ar
    22     1     2   ar
    23     9     8   ar
    24     2     3   ar
    25     2     7   ar
    26     8     7   ar
    27     3     4   ar
    28     7     6   ar
    29     4     5   ar
    30     6     5   ar
