@<TRIPOS>MOLECULE
3r30_CD2_A_1.pdb
 27 30 0 0 0
SMALL
GASTEIGER

@<TRIPOS>ATOM
      1  C1         5.9390   18.8810   52.5480 C.ar    1  CD21        0.0015
      2  C2         4.9620   18.2470   51.7720 C.ar    1  CD21        0.0001
      3  C3         5.0220   18.3230   50.3850 C.ar    1  CD21        0.0015
      4  C4         6.9780   19.5930   51.9440 C.ar    1  CD21        0.0191
      5  C5         7.0390   19.6600   50.5590 C.ar    1  CD21        0.0813
      6  C6         6.0680   19.0300   49.7860 C.ar    1  CD21        0.0177
      7  C7         6.1390   19.1070   48.4010 C.ar    1  CD21        0.0045
      8  C8         7.1780   19.8050   47.8160 C.ar    1  CD21        0.0368
      9  C9         8.1090   20.4230   48.6430 C.ar    1  CD21        0.1003
     10  N10        8.0300   20.3400   49.9730 N.ar    1  CD21       -0.2438
     11  C11        7.2960   19.9120   46.3360 C.ar    1  CD21        0.0829
     12  N12        7.8120   21.0480   45.8240 N.ar    1  CD21       -0.2438
     13  C13        7.9560   21.2140   44.5090 C.ar    1  CD21        0.0989
     14  C14        7.5700   20.2220   43.6260 C.ar    1  CD21        0.0222
     15  C15        7.0420   19.0420   44.1080 C.ar    1  CD21        0.0224
     16  C16        6.9040   18.8840   45.4820 C.ar    1  CD21        0.0207
     17  C17        6.6120   18.0000   43.1440 C.ar    1  CD21        0.1027
     18  C18        6.9170   17.9880   41.8030 C.ar    1  CD21        0.0463
     19  N19        5.8280   16.9410   43.3920 N.ar    1  CD21       -0.1691
     20  N20        5.6660   16.2680   42.1800 N.ar    1  CD21       -0.2429
     21  C21        6.3330   16.8910   41.2150 C.ar    1  CD21        0.1589
     22  C22        6.4610   16.5540   39.7610 C.2     1  CD21        0.4048
     23  C23        3.6530   15.0940   43.1350 C.3     1  CD21        0.1356
     24  C24        4.8540   15.0330   42.1840 C.3     1  CD21        0.1481
     25  O25        6.4420   15.3640   39.3480 O.co2   1  CD21       -0.2389
     26  N26        2.7730   16.1770   42.7560 N.3     1  CD21       -0.1292
     27  O27        6.5990   17.5170   38.9690 O.co2   1  CD21       -0.2389
@<TRIPOS>BOND
     1    27    22   ar
     2    25    22   ar
     3    22    21    1
     4    21    18   ar
     5    21    20   ar
     6    18    17   ar
     7    20    24    1
     8    20    19   ar
     9    24    23    1
    10    26    23    1
    11    17    19   ar
    12    17    15    1
    13    14    15   ar
    14    14    13   ar
    15    15    16   ar
    16    13    12   ar
    17    16    11   ar
    18    12    11   ar
    19    11     8    1
    20     8     7   ar
    21     8     9   ar
    22     7     6   ar
    23     9    10   ar
    24     6     3   ar
    25     6     5   ar
    26    10     5   ar
    27     3     2   ar
    28     5     4   ar
    29     2     1   ar
    30     4     1   ar
