@<TRIPOS>MOLECULE
3r33_NDP_A_1.pdb
 48 52 0 0 0
SMALL
GASTEIGER

@<TRIPOS>ATOM
      1  PA         4.3440    8.3060  -15.0300 P.3   1160  NDP1160     0.2189
      2  O1A        3.7120    7.6470  -13.8400 O.3   1160  NDP1160    -0.4371
      3  O2A        5.5210    7.6300  -15.7060 O.2   1160  NDP1160    -0.5170
      4  O5B        4.8130    9.7620  -14.5100 O.3   1160  NDP1160    -0.3112
      5  C5B        5.1380   10.8500  -15.3760 C.3   1160  NDP1160     0.1813
      6  C4B        5.7270   12.0010  -14.5720 C.3   1160  NDP1160     0.1820
      7  O4B        6.9430   11.5990  -13.9140 O.3   1160  NDP1160    -0.3136
      8  C3B        6.1740   13.1710  -15.4350 C.3   1160  NDP1160     0.2157
      9  O3B        5.0910   14.0230  -15.8030 O.3   1160  NDP1160    -0.2175
     10  C2B        7.2220   13.8640  -14.5730 C.3   1160  NDP1160     0.2314
     11  O2B        6.5650   14.5730  -13.5230 O.3   1160  NDP1160    -0.2630
     12  C1B        7.9000   12.6830  -13.9040 C.3   1160  NDP1160     0.3158
     13  N9A        9.1420   12.3360  -14.6450 N.pl3 1160  NDP1160    -0.1439
     14  C8A        9.2860   11.3480  -15.5470 C.3   1160  NDP1160     0.3377
     15  N7A       10.5670   11.3080  -15.9790 N.2   1160  NDP1160    -0.2095
     16  C5A       11.2330   12.2760  -15.3120 C.2   1160  NDP1160     0.2526
     17  C6A       12.5500   12.7310  -15.3520 C.2   1160  NDP1160     0.4393
     18  N6A       13.4840   12.0850  -16.0830 N.pl3 1160  NDP1160     0.2180
     19  N1A       12.9120   13.7720  -14.5830 N.2   1160  NDP1160     0.0021
     20  C2A       12.0200   14.3690  -13.7620 C.3   1160  NDP1160     0.5254
     21  N3A       10.7370   13.9700  -13.7070 N.2   1160  NDP1160    -0.0055
     22  C4A       10.3170   12.9520  -14.5100 C.2   1160  NDP1160     0.3518
     23  O3         3.2320    8.7050  -16.1300 O.3   1160  NDP1160    -0.2703
     24  PN         2.5440    7.8310  -17.3130 P.3   1160  NDP1160     0.2189
     25  O1N        3.5690    7.5370  -18.3820 O.2   1160  NDP1160    -0.5170
     26  O2N        1.3220    8.6290  -17.6790 O.3   1160  NDP1160    -0.4371
     27  O5D        2.0940    6.4660  -16.6130 O.3   1160  NDP1160    -0.3112
     28  C5D        0.9380    6.3750  -15.7750 C.3   1160  NDP1160     0.1813
     29  C4D        0.1110    5.2400  -16.3480 C.3   1160  NDP1160     0.1799
     30  O4D        0.8340    3.9940  -16.3210 O.3   1160  NDP1160    -0.3327
     31  C3D       -1.1900    5.0450  -15.5780 C.3   1160  NDP1160     0.2158
     32  O3D       -2.1690    4.6380  -16.5460 O.3   1160  NDP1160    -0.2175
     33  C2D       -0.8960    3.8490  -14.6940 C.3   1160  NDP1160     0.2309
     34  O2D       -2.1010    3.1400  -14.3890 O.3   1160  NDP1160    -0.2158
     35  C1D        0.0300    3.0410  -15.5890 C.3   1160  NDP1160     0.2263
     36  N1N        0.8520    2.1110  -14.8270 N.pl3 1160  NDP1160    -0.2787
     37  C2N        0.7980    0.8300  -15.2010 C.3   1160  NDP1160     0.1244
     38  C3N        1.5480   -0.1370  -14.5500 C.2   1160  NDP1160     0.0544
     39  C7N        1.4570   -1.5440  -15.0370 C.2   1160  NDP1160     0.2818
     40  O7N        2.3800   -2.2920  -14.7890 O.2   1160  NDP1160    -0.2670
     41  N7N        0.4650   -1.9040  -15.7330 N.am  1160  NDP1160    -0.0839
     42  C4N        2.4060    0.2370  -13.5120 C.2   1160  NDP1160     0.0033
     43  C5N        2.4400    1.5850  -13.1400 C.2   1160  NDP1160     0.0157
     44  C6N        1.6740    2.5220  -13.8350 C.2   1160  NDP1160     0.0633
     45  P2B        6.4050   16.1820  -13.6220 P.3   1160  NDP1160     0.5328
     46  O1X        7.7890   16.6430  -13.9640 O.3   1160  NDP1160    -0.1145
     47  O2X        5.9690   16.5120  -12.2040 O.3   1160  NDP1160    -0.1145
     48  O3X        5.3700   16.3450  -14.6980 O.2   1160  NDP1160    -0.2224
@<TRIPOS>BOND
     1    25    24    2
     2    26    24    1
     3    24    27    1
     4    24    23    1
     5    27    28    1
     6    32    31    1
     7    29    30    1
     8    29    28    1
     9    29    31    1
    10    30    35    1
    11    23     1    1
    12    18    17    1
    13    15    14    1
    14    15    16    2
    15     9     8    1
    16    41    39   am
    17     3     1    2
    18    35    36    1
    19    35    33    1
    20    31    33    1
    21    14    13    1
    22     8    10    1
    23     8     6    1
    24     5     6    1
    25     5     4    1
    26    17    16    1
    27    17    19    2
    28    16    22    1
    29    37    36    1
    30    37    38    1
    31    39    40    2
    32    39    38    1
    33     1     4    1
    34     1     2    1
    35    36    44    1
    36    48    45    2
    37    33    34    1
    38    13    22    1
    39    13    12    1
    40    19    20    1
    41    10    12    1
    42    10    11    1
    43     6     7    1
    44    38    42    2
    45    22    21    2
    46    46    45    1
    47     7    12    1
    48    44    43    2
    49    20    21    1
    50    45    11    1
    51    45    47    1
    52    42    43    1
