@<TRIPOS>MOLECULE
3r33_6ME_A_1.pdb
 13 14 0 0 0
SMALL
GASTEIGER

@<TRIPOS>ATOM
      1  N1         1.9780   -4.9060  -11.0050 N.2   161  6ME161     -0.3342
      2  C2         3.1370   -5.1580  -11.6660 C.1   161  6ME161      0.2418
      3  N3         4.0210   -4.1600  -11.8660 N.2   161  6ME161     -0.3115
      4  C4         3.7950   -2.9100  -11.3570 C.2   161  6ME161      0.2160
      5  C5         2.3510   -1.2800  -10.0490 C.3   161  6ME161      0.0153
      6  C6         1.4860   -1.3130   -8.7910 C.3   161  6ME161      0.0013
      7  C7         0.2440   -2.1790   -8.9670 C.3   161  6ME161      0.0071
      8  C8         0.4500   -3.5390   -9.6340 C.3   161  6ME161      0.0559
      9  C13        1.0560    0.1050   -8.4090 C.3   161  6ME161      0.0000
     10  C4A        2.6330   -2.6580  -10.6200 C.3   161  6ME161      0.1199
     11  C8A        1.7190   -3.6930  -10.4500 C.2   161  6ME161      0.1081
     12  NA2        3.3890   -6.3960  -12.1550 N.pl3 161  6ME161     -0.0232
     13  NA4        4.7270   -1.9300  -11.5670 N.pl3 161  6ME161     -0.0965
@<TRIPOS>BOND
     1    12     2    1
     2     3     2    2
     3     3     4    2
     4     2     1    2
     5    13     4    1
     6     4    10    1
     7     1    11    2
     8    10    11    1
     9    10     5    1
    10    11     8    1
    11     5     6    1
    12     8     7    1
    13     7     6    1
    14     6     9    1
