@<TRIPOS>MOLECULE
3r34_COA_A_1.pdb
 48 50 0 0 0
SMALL
GASTEIGER

@<TRIPOS>ATOM
      1  N1A       67.4060   58.9230   15.5200 N.2   170  COA170      0.0021
      2  C2A       67.1990   57.9700   14.6080 C.3   170  COA170      0.5254
      3  N3A       68.1730   57.6180   13.7630 N.2   170  COA170     -0.0055
      4  C4A       69.3690   58.2390   13.8130 C.2   170  COA170      0.3518
      5  C5A       69.6180   59.2250   14.7450 C.2   170  COA170      0.2526
      6  C6A       68.5880   59.5640   15.6210 C.2   170  COA170      0.4393
      7  N6A       68.7360   60.5140   16.5810 N.pl3 170  COA170      0.2180
      8  N7A       70.8980   59.6090   14.5360 N.2   170  COA170     -0.2095
      9  C8A       71.4270   58.9090   13.5110 C.3   170  COA170      0.3377
     10  N9A       70.4810   58.0590   13.1100 N.pl3 170  COA170     -0.1439
     11  C1B       70.5420   57.0680   12.0200 C.3   170  COA170      0.3185
     12  C2B       69.8470   57.6050   10.7910 C.3   170  COA170      0.2543
     13  O2B       69.5170   56.3920   10.1020 O.3   170  COA170     -0.2131
     14  C3B       71.0290   58.2570   10.0940 C.3   170  COA170      0.1928
     15  O3B       70.7980   58.2950    8.6970 O.3   170  COA170     -0.2673
     16  P3B       70.0940   59.6150    8.0790 P.3   170  COA170      0.5327
     17  O7A       70.9140   60.7120    8.7250 O.3   170  COA170     -0.1145
     18  O8A       70.2380   59.4190    6.5830 O.2   170  COA170     -0.2224
     19  O9A       68.6910   59.4840    8.6030 O.3   170  COA170     -0.1145
     20  C4B       72.1360   57.2350   10.2770 C.3   170  COA170      0.1795
     21  O4B       71.9030   56.9360   11.6440 O.3   170  COA170     -0.3136
     22  C5B       73.5200   57.8650   10.2070 C.3   170  COA170      0.1812
     23  O5B       73.3740   59.1260   10.8600 O.3   170  COA170     -0.3112
     24  P1A       74.6160   59.8280   11.6230 P.3   170  COA170      0.2189
     25  O1A       74.2180   60.4960   12.9390 O.3   170  COA170     -0.4371
     26  O2A       75.5810   60.5110   10.6980 O.2   170  COA170     -0.5170
     27  O3A       75.5040   58.5920   12.1630 O.3   170  COA170     -0.2703
     28  P2A       76.1790   58.8060   13.6380 P.3   170  COA170      0.2188
     29  O4A       77.4370   57.9770   13.5880 O.2   170  COA170     -0.5170
     30  O5A       76.3370   60.2580   14.0730 O.3   170  COA170     -0.4371
     31  O6A       75.0530   58.2350   14.6570 O.3   170  COA170     -0.3138
     32  CBP       74.3660   56.0850   15.4340 C.3   170  COA170      0.0645
     33  CCP       75.4180   57.1860   15.5560 C.3   170  COA170      0.1519
     34  CDP       72.9820   56.5140   15.9250 C.3   170  COA170      0.0056
     35  CEP       74.8690   54.8440   16.1570 C.3   170  COA170      0.0056
     36  CAP       74.1670   55.7810   13.9420 C.3   170  COA170      0.2312
     37  OAP       75.4500   55.3850   13.4620 O.3   170  COA170     -0.2131
     38  C9P       73.3450   54.5210   13.8660 C.2   170  COA170      0.2719
     39  O9P       72.1140   54.5780   13.8580 O.2   170  COA170     -0.2706
     40  N8P       74.0130   53.3760   13.7530 N.am  170  COA170     -0.2028
     41  C7P       73.3530   52.0990   13.4630 C.3   170  COA170      0.1248
     42  C6P       72.6810   51.4810   14.6910 C.3   170  COA170      0.1102
     43  C5P       72.1660   50.0710   14.4830 C.2   170  COA170      0.2432
     44  O5P       71.6600   49.6940   13.4380 O.2   170  COA170     -0.2733
     45  N4P       72.2150   49.2450   15.5360 N.am  170  COA170     -0.2044
     46  C3P       71.7980   47.8410   15.4830 C.3   170  COA170      0.1276
     47  C2P       70.4370   47.5660   16.1560 C.3   170  COA170      0.0920
     48  S1P       69.1260   48.5880   15.4250 S.3   170  COA170     -0.0802
@<TRIPOS>BOND
     1    18    16    2
     2    16    19    1
     3    16    15    1
     4    16    17    1
     5    15    14    1
     6    14    20    1
     7    14    12    1
     8    13    12    1
     9    22    20    1
    10    22    23    1
    11    20    21    1
    12    26    24    2
    13    12    11    1
    14    23    24    1
    15    24    27    1
    16    24    25    1
    17    21    11    1
    18    11    10    1
    19    27    28    1
    20    10     9    1
    21    10     4    1
    22    44    43    2
    23    37    36    1
    24    41    40    1
    25    41    42    1
    26     9     8    1
    27    29    28    2
    28    28    30    1
    29    28    31    1
    30    40    38   am
    31     3     4    2
    32     3     2    1
    33     4     5    1
    34    39    38    2
    35    38    36    1
    36    36    32    1
    37    43    42    1
    38    43    45   am
    39     8     5    2
    40     2     1    1
    41    31    33    1
    42     5     6    1
    43    48    47    1
    44    32    33    1
    45    32    34    1
    46    32    35    1
    47    46    45    1
    48    46    47    1
    49     1     6    2
    50     6     7    1
