@<TRIPOS>MOLECULE
3r36_PHB_A_1.pdb
 10 10 0 0 0
SMALL
GASTEIGER

@<TRIPOS>ATOM
      1  C1'       79.8860   29.6580   15.1980 C.2   152  PHB152      0.3878
      2  O1'       79.3560   30.6310   15.7710 O.co2 152  PHB152     -0.2406
      3  O2'       80.7200   28.8900   15.7070 O.co2 152  PHB152     -0.2406
      4  C1        79.4150   29.2300   13.8450 C.ar  152  PHB152      0.0800
      5  C2        78.2920   29.8410   13.3020 C.ar  152  PHB152      0.0099
      6  C3        77.8120   29.4070   12.0700 C.ar  152  PHB152      0.0422
      7  C4        78.4430   28.3590   11.4040 C.ar  152  PHB152      0.1958
      8  C5        79.5730   27.7920   11.9820 C.ar  152  PHB152      0.0422
      9  C6        80.0740   28.1820   13.2170 C.ar  152  PHB152      0.0099
     10  O4        77.9460   27.9320   10.1950 O.3   152  PHB152     -0.2866
@<TRIPOS>BOND
     1    10     7    1
     2     7     8   ar
     3     7     6   ar
     4     8     9   ar
     5     6     5   ar
     6     9     4   ar
     7     5     4   ar
     8     4     1    1
     9     1     3   ar
    10     1     2   ar
