@<TRIPOS>MOLECULE
3r3a_PHB_A_1.pdb
 10 10 0 0 0
SMALL
GASTEIGER

@<TRIPOS>ATOM
      1  C1'       80.2420   30.0460   15.2900 C.2   171  PHB171      0.3878
      2  O1'       79.5020   30.7690   15.9880 O.co2 171  PHB171     -0.2406
      3  O2'       81.4640   29.8740   15.5280 O.co2 171  PHB171     -0.2406
      4  C1        79.5630   29.3960   14.1140 C.ar  171  PHB171      0.0800
      5  C2        78.3700   29.9250   13.6550 C.ar  171  PHB171      0.0099
      6  C3        77.7620   29.3690   12.5380 C.ar  171  PHB171      0.0422
      7  C4        78.2700   28.2520   11.8900 C.ar  171  PHB171      0.1958
      8  C5        79.4610   27.7470   12.3720 C.ar  171  PHB171      0.0422
      9  C6        80.1080   28.2960   13.4670 C.ar  171  PHB171      0.0099
     10  O4        77.6210   27.6980   10.8140 O.3   171  PHB171     -0.2866
@<TRIPOS>BOND
     1    10     7    1
     2     7     8   ar
     3     7     6   ar
     4     8     9   ar
     5     6     5   ar
     6     9     4   ar
     7     5     4   ar
     8     4     1    1
     9     1     3   ar
    10     1     2   ar
