@<TRIPOS>MOLECULE
3r3a_COA_A_1.pdb
 48 50 0 0 0
SMALL
GASTEIGER

@<TRIPOS>ATOM
      1  N1A       87.9000   21.0630   19.9840 N.2   170  COA170      0.0021
      2  C2A       86.7000   21.2260   20.5550 C.3   170  COA170      0.5254
      3  N3A       86.5380   22.0380   21.6060 N.2   170  COA170     -0.0055
      4  C4A       87.5990   22.7310   22.0860 C.2   170  COA170      0.3518
      5  C5A       88.8600   22.5850   21.5100 C.2   170  COA170      0.2526
      6  C6A       88.9980   21.7170   20.4340 C.2   170  COA170      0.4393
      7  N6A       90.2070   21.5260   19.8470 N.pl3 170  COA170      0.2180
      8  N7A       89.7230   23.3720   22.1950 N.2   170  COA170     -0.2095
      9  C8A       89.0040   23.9980   23.1600 C.3   170  COA170      0.3377
     10  N9A       87.7190   23.6090   23.0880 N.pl3 170  COA170     -0.1439
     11  C1B       86.6050   24.0700   23.9500 C.3   170  COA170      0.3185
     12  C2B       86.3140   22.9950   24.9870 C.3   170  COA170      0.2543
     13  O2B       84.9140   23.0880   25.2360 O.3   170  COA170     -0.2131
     14  C3B       87.0950   23.5440   26.1650 C.3   170  COA170      0.1928
     15  O3B       86.6830   22.9760   27.3960 O.3   170  COA170     -0.2673
     16  P3B       87.3860   21.6160   27.9030 P.3   170  COA170      0.5327
     17  O7A       86.9230   21.5500   29.3390 O.3   170  COA170     -0.1145
     18  O8A       86.9310   20.5430   26.9420 O.2   170  COA170     -0.2224
     19  O9A       88.8740   21.8230   27.7530 O.3   170  COA170     -0.1145
     20  C4B       86.8930   25.0490   26.0640 C.3   170  COA170      0.1795
     21  O4B       87.0080   25.2480   24.6560 O.3   170  COA170     -0.3136
     22  C5B       87.9140   25.8940   26.8250 C.3   170  COA170      0.1812
     23  O5B       89.2140   25.3450   26.6110 O.3   170  COA170     -0.3112
     24  P1A       90.5570   26.2390   26.4480 P.3   170  COA170      0.2189
     25  O1A       91.2610   25.7630   25.1880 O.2   170  COA170     -0.5170
     26  O2A       91.2570   26.2720   27.7760 O.3   170  COA170     -0.4371
     27  O3A       90.1110   27.7670   26.2010 O.3   170  COA170     -0.2703
     28  P2A       91.0260   28.6230   25.1570 P.3   170  COA170      0.2188
     29  O4A       90.6180   30.0750   25.3010 O.3   170  COA170     -0.4371
     30  O5A       92.4910   28.2490   25.2580 O.2   170  COA170     -0.5170
     31  O6A       90.5440   28.0030   23.7310 O.3   170  COA170     -0.3138
     32  CBP       88.7220   28.5140   22.1590 C.3   170  COA170      0.0645
     33  CCP       90.1180   28.8730   22.6830 C.3   170  COA170      0.1519
     34  CDP       88.8230   27.2640   21.2870 C.3   170  COA170      0.0056
     35  CEP       88.2100   29.6570   21.2900 C.3   170  COA170      0.0056
     36  CAP       87.7530   28.2610   23.3140 C.3   170  COA170      0.2312
     37  OAP       87.8940   29.3810   24.1870 O.3   170  COA170     -0.2131
     38  C9P       86.3110   28.1360   22.8600 C.2   170  COA170      0.2719
     39  O9P       85.9450   27.0440   22.4560 O.2   170  COA170     -0.2706
     40  N8P       85.4120   29.1300   22.9330 N.am  170  COA170     -0.2028
     41  C7P       84.0440   28.9540   22.4550 C.3   170  COA170      0.1249
     42  C6P       83.8740   29.2050   20.9500 C.3   170  COA170      0.1105
     43  C5P       82.4120   29.3370   20.5810 C.2   170  COA170      0.2474
     44  O5P       81.5740   28.7760   21.2730 O.2   170  COA170     -0.2729
     45  N4P       82.0300   30.0670   19.5300 N.am  170  COA170     -0.1773
     46  C3P       80.7660   29.6630   18.9220 C.2   170  COA170      0.0961
     47  C2P       80.6170   28.1890   18.5100 C.2   170  COA170      0.0600
     48  S1P       79.2120   27.8020   17.4080 S.3   170  COA170     -0.0487
@<TRIPOS>BOND
     1    48    47    1
     2    47    46    2
     3    46    45    1
     4    45    43   am
     5     7     6    1
     6     1     6    2
     7     1     2    1
     8     6     5    1
     9     2     3    1
    10    43    42    1
    11    43    44    2
    12    42    41    1
    13    34    32    1
    14    35    32    1
    15     5     4    1
    16     5     8    2
    17     3     4    2
    18     4    10    1
    19    32    33    1
    20    32    36    1
    21     8     9    1
    22    41    40    1
    23    39    38    2
    24    33    31    1
    25    38    40   am
    26    38    36    1
    27    10     9    1
    28    10    11    1
    29    36    37    1
    30    31    28    1
    31    11    21    1
    32    11    12    1
    33    21    20    1
    34    12    13    1
    35    12    14    1
    36    28    30    2
    37    28    29    1
    38    28    27    1
    39    25    24    2
    40    20    14    1
    41    20    22    1
    42    14    15    1
    43    27    24    1
    44    24    23    1
    45    24    26    1
    46    23    22    1
    47    18    16    2
    48    15    16    1
    49    19    16    1
    50    16    17    1
