@<TRIPOS>MOLECULE
3r3e_GSH_A_1.pdb
 20 19 0 0 0
SMALL
GASTEIGER

@<TRIPOS>ATOM
      1  N1         2.4190   73.7490    2.6120 N.3   400  GSH400     -0.1208
      2  CA1        3.0990   72.5260    2.9000 C.3   400  GSH400      0.1948
      3  C1         3.8530   72.2140    1.6590 C.2   400  GSH400      0.3819
      4  O11        4.6920   71.3590    1.6080 O.co2 400  GSH400     -0.2441
      5  O12        3.5980   72.8450    0.6780 O.co2 400  GSH400     -0.2441
      6  CB1        2.0390   71.4870    3.2330 C.3   400  GSH400      0.0402
      7  CG1        2.4360   70.0650    2.9310 C.3   400  GSH400      0.0889
      8  CD1        1.3780   69.1700    3.5190 C.2   400  GSH400      0.2418
      9  OE1        0.2850   69.6840    3.9970 O.2   400  GSH400     -0.2733
     10  N2         1.6010   67.8760    3.5420 N.am  400  GSH400     -0.1968
     11  CA2        0.7320   66.8480    4.0660 C.3   400  GSH400      0.1843
     12  C2         1.0980   66.2830    5.4010 C.2   400  GSH400      0.2627
     13  O2         2.2900   65.8530    5.6430 O.2   400  GSH400     -0.2714
     14  CB2        1.0200   65.6750    3.1710 C.3   400  GSH400      0.0997
     15  SG2       -0.2890   65.3490    2.0210 S.3   400  GSH400     -0.0797
     16  N3         0.1780   66.1780    6.3340 N.am  400  GSH400     -0.1917
     17  CA3        0.3530   65.6180    7.6480 C.3   400  GSH400      0.2285
     18  C3        -0.4760   66.3620    8.6260 C.2   400  GSH400      0.3865
     19  O31       -0.9760   67.4230    8.2720 O.co2 400  GSH400     -0.2437
     20  O32       -0.6130   65.8840    9.7460 O.co2 400  GSH400     -0.2437
@<TRIPOS>BOND
     1     5     3   ar
     2     4     3   ar
     3     3     2    1
     4    15    14    1
     5     1     2    1
     6     2     6    1
     7     7     6    1
     8     7     8    1
     9    14    11    1
    10     8    10   am
    11     8     9    2
    12    10    11    1
    13    11    12    1
    14    12    13    2
    15    12    16   am
    16    16    17    1
    17    17    18    1
    18    19    18   ar
    19    18    20   ar
