@<TRIPOS>MOLECULE
3r3o_THP_A_1.pdb
 25 26 0 0 0
SMALL
GASTEIGER

@<TRIPOS>ATOM
      1  P2        18.0210   -3.2010    4.6370 P.3   151  THP151      0.5327
      2  O4P       16.8040   -2.4990    5.1690 O.3   151  THP151     -0.1145
      3  O5P       18.0330   -4.7550    5.0350 O.2   151  THP151     -0.2224
      4  O6P       19.3330   -2.4620    5.1620 O.3   151  THP151     -0.1145
      5  P1        21.2380    0.1750    0.7520 P.3   151  THP151      0.5326
      6  O1P       21.9230   -0.8730    1.5590 O.3   151  THP151     -0.1145
      7  O2P       22.3210    0.8980   -0.1670 O.2   151  THP151     -0.2224
      8  O3P       20.6190    1.2140    1.8000 O.3   151  THP151     -0.1145
      9  O5'       17.9770   -3.2060    3.0400 O.3   151  THP151     -0.2675
     10  C5'       17.9800   -1.9020    2.4720 C.3   151  THP151      0.1857
     11  C4'       18.9740   -1.9580    1.3020 C.3   151  THP151      0.1748
     12  O4'       18.6620   -3.1070    0.4900 O.3   151  THP151     -0.3340
     13  C3'       18.9010   -0.7290    0.3500 C.3   151  THP151      0.1600
     14  O3'       20.1740   -0.4560   -0.3020 O.3   151  THP151     -0.2700
     15  C2'       17.8950   -1.2300   -0.7100 C.3   151  THP151      0.0847
     16  C1'       18.2140   -2.7480   -0.8140 C.3   151  THP151      0.2089
     17  N1        16.9660   -3.4100   -1.2140 N.am  151  THP151     -0.1794
     18  C2        16.7120   -3.5920   -2.5400 C.1   151  THP151      0.2844
     19  O2        17.5670   -3.3330   -3.3890 O.2   151  THP151     -0.1918
     20  N3        15.5560   -4.1550   -2.9490 N.2   151  THP151     -0.2455
     21  C4        14.5590   -4.4310   -2.0670 C.1   151  THP151      0.2134
     22  O4        13.5060   -4.8890   -2.4880 O.2   151  THP151     -0.2088
     23  C5        14.7880   -4.2320   -0.6850 C.2   151  THP151      0.0891
     24  C5M       13.7210   -4.5420    0.3370 C.3   151  THP151      0.0462
     25  C6        15.9820   -3.6940   -0.2950 C.2   151  THP151      0.0877
@<TRIPOS>BOND
     1    19    18    2
     2    20    18    2
     3    20    21    2
     4    18    17   am
     5    22    21    2
     6    21    23    1
     7    17    16    1
     8    17    25    1
     9    16    15    1
    10    16    12    1
    11    15    13    1
    12    23    25    2
    13    23    24    1
    14    14    13    1
    15    14     5    1
    16     7     5    2
    17    13    11    1
    18    12    11    1
    19     5     6    1
    20     5     8    1
    21    11    10    1
    22    10     9    1
    23     9     1    1
    24     1     3    2
    25     1     4    1
    26     1     2    1
