@<TRIPOS>MOLECULE
3r3s_NAD_A_1.pdb
 44 48 0 0 0
SMALL
GASTEIGER

@<TRIPOS>ATOM
      1  PA        -5.8700    4.2780   21.6800 P.3   300  NAD300      0.2189
      2  O1A       -5.6250    2.8440   21.2890 O.2   300  NAD300     -0.5170
      3  O2A       -7.1900    4.8830   21.3070 O.3   300  NAD300     -0.4371
      4  O5B       -5.5310    4.5230   23.2650 O.3   300  NAD300     -0.3112
      5  C5B       -6.1090    5.5960   24.0150 C.3   300  NAD300      0.1813
      6  C4B       -6.8050    4.9500   25.1970 C.3   300  NAD300      0.1821
      7  O4B       -7.1620    6.0120   26.0560 O.3   300  NAD300     -0.3135
      8  C3B       -8.1310    4.2650   24.8940 C.3   300  NAD300      0.2184
      9  O3B       -7.9290    2.8950   24.5550 O.3   300  NAD300     -0.2174
     10  C2B       -8.8980    4.4630   26.2010 C.3   300  NAD300      0.2570
     11  O2B       -8.9120    3.2870   26.9810 O.3   300  NAD300     -0.2130
     12  C1B       -8.1010    5.4990   26.9670 C.3   300  NAD300      0.3186
     13  N9A       -8.9880    6.5760   27.4510 N.pl3 300  NAD300     -0.1439
     14  C8A       -9.4480    7.6740   26.7830 C.3   300  NAD300      0.3377
     15  N7A      -10.2720    8.3810   27.5630 N.2   300  NAD300     -0.2095
     16  C5A      -10.3870    7.7090   28.7490 C.2   300  NAD300      0.2526
     17  C6A      -11.0940    7.9530   29.9320 C.2   300  NAD300      0.4393
     18  N6A      -11.9550    8.9580   30.0470 N.pl3 300  NAD300      0.2180
     19  N1A      -10.9760    7.0490   30.9640 N.2   300  NAD300      0.0021
     20  C2A      -10.1840    5.9320   30.8730 C.3   300  NAD300      0.5254
     21  N3A       -9.4880    5.7080   29.7040 N.2   300  NAD300     -0.0055
     22  C4A       -9.5940    6.5800   28.6730 C.2   300  NAD300      0.3518
     23  O3        -4.7750    5.2420   20.9230 O.3   300  NAD300     -0.2703
     24  PN        -3.2020    5.5390   21.2420 P.3   300  NAD300      0.2189
     25  O1N       -2.7710    6.4550   20.0960 O.2   300  NAD300     -0.5170
     26  O2N       -2.4860    4.2340   21.5010 O.3   300  NAD300     -0.4371
     27  O5D       -3.3010    6.4490   22.5960 O.3   300  NAD300     -0.3112
     28  C5D       -2.4380    6.1460   23.6810 C.3   300  NAD300      0.1813
     29  C4D       -1.5830    7.3530   24.0270 C.3   300  NAD300      0.1799
     30  O4D       -0.6990    7.5820   22.9340 O.3   300  NAD300     -0.3327
     31  C3D       -2.3790    8.6370   24.2760 C.3   300  NAD300      0.2158
     32  O3D       -2.0130    9.2140   25.5410 O.3   300  NAD300     -0.2175
     33  C2D       -1.9330    9.5370   23.1320 C.3   300  NAD300      0.2309
     34  O2D       -1.8320   10.9000   23.5310 O.3   300  NAD300     -0.2158
     35  C1D       -0.5520    8.9650   22.8510 C.3   300  NAD300      0.2263
     36  N1N       -0.0400    9.3040   21.5000 N.pl3 300  NAD300     -0.2787
     37  C2N       -0.5940    8.7600   20.3610 C.3   300  NAD300      0.1244
     38  C3N       -0.0800    9.1110   19.1240 C.2   300  NAD300      0.0544
     39  C7N       -0.6710    8.5100   17.8960 C.2   300  NAD300      0.2818
     40  O7N       -0.3250    9.0720   16.7050 O.2   300  NAD300     -0.2670
     41  N7N       -1.4870    7.4770   17.9110 N.am  300  NAD300     -0.0839
     42  C4N        0.9960    9.9880   19.0050 C.2   300  NAD300      0.0033
     43  C5N        1.5480   10.5070   20.1770 C.2   300  NAD300      0.0157
     44  C6N        1.0290   10.1580   21.4320 C.2   300  NAD300      0.0633
@<TRIPOS>BOND
     1    40    39    2
     2    39    41   am
     3    39    38    1
     4    42    38    2
     5    42    43    1
     6    38    37    1
     7    25    24    2
     8    43    44    2
     9    37    36    1
    10    23    24    1
    11    23     1    1
    12    24    26    1
    13    24    27    1
    14     2     1    2
    15     3     1    1
    16    44    36    1
    17    36    35    1
    18     1     4    1
    19    27    28    1
    20    35    30    1
    21    35    33    1
    22    30    29    1
    23    33    34    1
    24    33    31    1
    25     4     5    1
    26    28    29    1
    27     5     6    1
    28    29    31    1
    29    31    32    1
    30     9     8    1
    31     8     6    1
    32     8    10    1
    33     6     7    1
    34     7    12    1
    35    10    12    1
    36    10    11    1
    37    14    13    1
    38    14    15    1
    39    12    13    1
    40    13    22    1
    41    15    16    2
    42    22    16    1
    43    22    21    2
    44    16    17    1
    45    21    20    1
    46    17    18    1
    47    17    19    2
    48    20    19    1
