@<TRIPOS>MOLECULE
3r43_ID8_A_1.pdb
 18 19 0 0 0
SMALL
GASTEIGER

@<TRIPOS>ATOM
      1  O16       28.3310   28.8620   13.4400 O.co2 332  ID8332     -0.2405
      2  C14       29.1170   29.1220   12.5230 C.2   332  ID8332      0.3890
      3  O15       28.7780   29.7430   11.4870 O.co2 332  ID8332     -0.2405
      4  C13       30.6060   28.9490   12.8020 C.ar  332  ID8332      0.0950
      5  C12       31.4520   29.9080   12.2040 C.ar  332  ID8332      0.0079
      6  C11       32.8590   29.8140   12.4160 C.ar  332  ID8332      0.0003
      7  C10       33.3720   28.7560   13.2240 C.ar  332  ID8332      0.0013
      8  C9        32.5300   27.8090   13.8190 C.ar  332  ID8332      0.0167
      9  C8        31.1280   27.9110   13.6210 C.ar  332  ID8332      0.0768
     10  N7        30.3080   26.9800   14.1470 N.pl3 332  ID8332     -0.2126
     11  C6        30.6390   25.9270   14.9490 C.ar  332  ID8332      0.0662
     12  C1        30.9380   24.6470   14.4440 C.ar  332  ID8332     -0.0105
     13  C17       31.0080   24.3920   12.9140 C.3   332  ID8332      0.0321
     14  C5        30.6330   26.1000   16.3490 C.ar  332  ID8332      0.0162
     15  C4        30.9290   25.0510   17.2290 C.ar  332  ID8332      0.0010
     16  C3        31.2610   23.7760   16.7060 C.ar  332  ID8332     -0.0045
     17  C2        31.2530   23.5890   15.3290 C.ar  332  ID8332     -0.0245
     18  C18       31.6200   22.1720   14.7970 C.3   332  ID8332      0.0307
@<TRIPOS>BOND
     1     3     2   ar
     2     5     6   ar
     3     5     4   ar
     4     6     7   ar
     5     2     4    1
     6     2     1   ar
     7     4     9   ar
     8    13    12    1
     9     7     8   ar
    10     9     8   ar
    11     9    10    1
    12    10    11    1
    13    12    11   ar
    14    12    17   ar
    15    18    17    1
    16    11    14   ar
    17    17    16   ar
    18    14    15   ar
    19    16    15   ar
