@<TRIPOS>MOLECULE
3r43_NAP_A_1.pdb
 48 52 0 0 0
SMALL
GASTEIGER

@<TRIPOS>ATOM
      1  PA        27.3350   28.5700    2.9400 P.3   700  NAP700      0.2189
      2  O1A       25.8880   28.7910    2.9900 O.3   700  NAP700     -0.4371
      3  O2A       27.8140   27.1320    2.8040 O.2   700  NAP700     -0.5170
      4  O5B       28.0930   29.3830    1.7510 O.3   700  NAP700     -0.3112
      5  C5B       29.4800   29.2450    1.3730 C.3   700  NAP700      0.1813
      6  C4B       29.8350   30.2960    0.2980 C.3   700  NAP700      0.1820
      7  O4B       28.8720   30.0950   -0.7290 O.3   700  NAP700     -0.3136
      8  C3B       29.4430   31.6790    0.8260 C.3   700  NAP700      0.2157
      9  O3B       30.5830   32.2480    1.4710 O.3   700  NAP700     -0.2175
     10  C2B       29.0180   32.4360   -0.4250 C.3   700  NAP700      0.2314
     11  O2B       30.0460   33.3240   -0.8990 O.3   700  NAP700     -0.2630
     12  C1B       28.8850   31.3380   -1.4470 C.3   700  NAP700      0.3158
     13  N9A       27.6040   31.4820   -2.1880 N.pl3 700  NAP700     -0.1439
     14  C8A       26.4140   31.7650   -1.6700 C.3   700  NAP700      0.3377
     15  N7A       25.5270   31.7570   -2.6530 N.2   700  NAP700     -0.2095
     16  C5A       26.1440   31.4200   -3.7740 C.2   700  NAP700      0.2526
     17  C6A       25.7310   31.3040   -5.1140 C.2   700  NAP700      0.4393
     18  N6A       24.4450   31.4750   -5.4460 N.pl3 700  NAP700      0.2180
     19  N1A       26.6460   30.9880   -6.0380 N.2   700  NAP700      0.0021
     20  C2A       27.9500   30.7910   -5.7210 C.3   700  NAP700      0.5254
     21  N3A       28.3630   30.9170   -4.4560 N.2   700  NAP700     -0.0055
     22  C4A       27.4770   31.2360   -3.4840 C.2   700  NAP700      0.3518
     23  O3        28.1600   29.1050    4.1890 O.3   700  NAP700     -0.2703
     24  PN        28.2290   28.8200    5.7560 P.3   700  NAP700      0.2189
     25  O1N       28.6220   30.1630    6.2880 O.3   700  NAP700     -0.4371
     26  O2N       29.0840   27.6390    6.0350 O.2   700  NAP700     -0.5170
     27  O5D       26.7180   28.3950    6.1490 O.3   700  NAP700     -0.3112
     28  C5D       25.5650   29.2350    6.1510 C.3   700  NAP700      0.1813
     29  C4D       25.1690   29.7140    7.5310 C.3   700  NAP700      0.1799
     30  O4D       24.8350   28.5870    8.3990 O.3   700  NAP700     -0.3327
     31  C3D       26.2710   30.5160    8.2850 C.3   700  NAP700      0.2158
     32  O3D       26.3640   31.9160    7.8020 O.3   700  NAP700     -0.2175
     33  C2D       25.6730   30.4810    9.6690 C.3   700  NAP700      0.2309
     34  O2D       24.5340   31.3580    9.6960 O.3   700  NAP700     -0.2158
     35  C1D       25.1250   29.0140    9.7400 C.3   700  NAP700      0.2263
     36  N1N       26.2080   28.1000   10.1960 N.pl3 700  NAP700     -0.2787
     37  C2N       26.0230   27.5390   11.4490 C.3   700  NAP700      0.1244
     38  C3N       26.9790   26.6610   11.9610 C.2   700  NAP700      0.0544
     39  C7N       26.7570   26.0290   13.3290 C.2   700  NAP700      0.2818
     40  O7N       27.7280   25.6490   13.9730 O.2   700  NAP700     -0.2670
     41  N7N       25.4610   25.8510   13.7210 N.am  700  NAP700     -0.0839
     42  C4N       28.1460   26.4150   11.2290 C.2   700  NAP700      0.0033
     43  C5N       28.3390   26.9830    9.9520 C.2   700  NAP700      0.0157
     44  C6N       27.3760   27.8390    9.4130 C.2   700  NAP700      0.0633
     45  P2B       29.6210   34.9270   -0.9970 P.3   700  NAP700      0.5328
     46  O1X       29.3510   35.5300    0.3470 O.3   700  NAP700     -0.1145
     47  O2X       30.8450   35.5430   -1.7330 O.3   700  NAP700     -0.1145
     48  O3X       28.4130   34.9540   -1.9860 O.2   700  NAP700     -0.2224
@<TRIPOS>BOND
     1    19    20    1
     2    19    17    2
     3    20    21    1
     4    18    17    1
     5    17    16    1
     6    21    22    2
     7    16    22    1
     8    16    15    2
     9    22    13    1
    10    15    14    1
    11    13    14    1
    12    13    12    1
    13    48    45    2
    14    47    45    1
    15    12     7    1
    16    12    10    1
    17    45    11    1
    18    45    46    1
    19    11    10    1
    20     7     6    1
    21    10     8    1
    22     6     8    1
    23     6     5    1
    24     8     9    1
    25     5     4    1
    26     4     1    1
    27     3     1    2
    28     1     2    1
    29     1    23    1
    30    23    24    1
    31    24    26    2
    32    24    27    1
    33    24    25    1
    34    27    28    1
    35    28    29    1
    36    29    31    1
    37    29    30    1
    38    32    31    1
    39    31    33    1
    40    30    35    1
    41    44    43    2
    42    44    36    1
    43    33    34    1
    44    33    35    1
    45    35    36    1
    46    43    42    1
    47    36    37    1
    48    42    38    2
    49    37    38    1
    50    38    39    1
    51    39    41   am
    52    39    40    2
