@<TRIPOS>MOLECULE
3r44_HIS_A_1.pdb
 11 11 0 0 0
SMALL
GASTEIGER

@<TRIPOS>ATOM
      1  N          9.9670   19.6010   -0.2540 N.3   504  HIS504     -0.1204
      2  CA         8.8000   20.4520    0.0810 C.3   504  HIS504      0.1999
      3  C          8.8510   20.8630    1.5360 C.2   504  HIS504      0.3822
      4  O          8.8800   22.0290    1.9390 O.co2 504  HIS504     -0.2440
      5  CB         7.5090   19.6750   -0.2520 C.3   504  HIS504      0.0740
      6  CG         6.2760   20.1760    0.4250 C.2   504  HIS504      0.0651
      7  ND1        5.0140   19.9240   -0.0870 N.2   504  HIS504     -0.2310
      8  CD2        6.0890   20.9040    1.5640 C.3   504  HIS504      0.1683
      9  CE1        4.1070   20.4680    0.7160 C.2   504  HIS504      0.1939
     10  NE2        4.7320   21.0560    1.7270 N.2   504  HIS504     -0.2440
     11  OXT        8.8650   19.9810    2.3900 O.co2 504  HIS504     -0.2440
@<TRIPOS>BOND
     1     1     2    1
     2     5     2    1
     3     5     6    1
     4     7     6    2
     5     7     9    1
     6     2     3    1
     7     6     8    1
     8     9    10    2
     9     3     4   ar
    10     3    11   ar
    11     8    10    1
