@<TRIPOS>MOLECULE
3r49_Q8A_A_1.pdb
 11 12 0 0 0
SMALL
GASTEIGER

@<TRIPOS>ATOM
      1  NAA        0.7780   15.2940   22.8210 N.pl3 301  Q8A301     -0.1265
      2  CAB       -1.9980   15.3630   18.6880 C.ar  301  Q8A301      0.0207
      3  CAC        2.4130   16.7960   19.9370 C.ar  301  Q8A301      0.0015
      4  CAD       -2.1680   14.9160   19.9930 C.ar  301  Q8A301      0.0989
      5  CAE        2.1890   16.3280   21.2320 C.ar  301  Q8A301      0.0196
      6  CAF       -0.7890   15.9540   18.3430 C.ar  301  Q8A301      0.0031
      7  CAG        1.4210   16.6740   18.9660 C.ar  301  Q8A301      0.0016
      8  NAH       -1.2070   15.0460   20.8970 N.ar  301  Q8A301     -0.2425
      9  CAI        0.9720   15.7350   21.5710 C.ar  301  Q8A301      0.1066
     10  CAJ        0.2060   16.0820   19.3020 C.ar  301  Q8A301      0.0190
     11  CAK       -0.0240   15.6130   20.5980 C.ar  301  Q8A301      0.0980
@<TRIPOS>BOND
     1     6     2   ar
     2     6    10   ar
     3     2     4   ar
     4     7    10   ar
     5     7     3   ar
     6    10    11   ar
     7     3     5   ar
     8     4     8   ar
     9    11     8   ar
    10    11     9   ar
    11     5     9   ar
    12     9     1    1
