@<TRIPOS>MOLECULE
3r4e_CS2_A_1.pdb
 13 12 0 0 0
SMALL
GASTEIGER

@<TRIPOS>ATOM
      1  C2       -15.5940   26.1780  -15.3920 C.3   404  CS2404      0.2865
      2  C3       -14.6730   25.3810  -14.4310 C.3   404  CS2404      0.2260
      3  O1A      -16.3140   27.5450  -13.6400 O.co2 404  CS2404     -0.2427
      4  C1       -15.9000   27.5670  -14.8060 C.2   404  CS2404      0.3973
      5  O1B      -15.7160   28.6150  -15.4770 O.co2 404  CS2404     -0.2427
      6  O2       -15.0230   26.2380  -16.7030 O.3   404  CS2404     -0.2080
      7  O3       -15.5190   24.9380  -13.3510 O.3   404  CS2404     -0.2169
      8  C4       -13.9000   24.1440  -14.9600 C.3   404  CS2404      0.2180
      9  O4       -14.7630   23.2370  -15.6540 O.3   404  CS2404     -0.2175
     10  C5       -13.1850   23.3580  -13.8090 C.3   404  CS2404      0.2175
     11  O5       -12.4340   24.3130  -13.0630 O.3   404  CS2404     -0.2175
     12  C6       -12.1990   22.2610  -14.2630 C.3   404  CS2404      0.2175
     13  O6       -11.3950   21.7980  -13.1770 O.3   404  CS2404     -0.2175
@<TRIPOS>BOND
     1     6     1    1
     2     9     8    1
     3     5     4   ar
     4     1     4    1
     5     1     2    1
     6     8     2    1
     7     8    10    1
     8     4     3   ar
     9     2     7    1
    10    12    10    1
    11    12    13    1
    12    10    11    1
