@<TRIPOS>MOLECULE
3r4g_4SO_A_1.pdb
 13 13 0 0 0
SMALL
GASTEIGER

@<TRIPOS>ATOM
      1  OAA       20.9290    4.2470    5.4200 O.2     1  4SO1       -0.1503
      2  OAB       26.0730    8.2240    8.7950 O.co2   1  4SO1       -0.2406
      3  CAC       24.9550    6.2230    7.0900 C.ar    1  4SO1        0.0079
      4  CAD       24.2070    5.3700    6.2820 C.ar    1  4SO1        0.0202
      5  CAE       23.1330    4.6580    6.8190 C.ar    1  4SO1        0.1251
      6  SAF       22.2030    3.5850    5.8070 S.O2    1  4SO1        0.0935
      7  NAG       23.0610    3.2220    4.5110 N.3     1  4SO1        0.0392
      8  CAH       25.4610    7.2810    9.3320 C.2     1  4SO1        0.3878
      9  CAI       24.6290    6.3590    8.4400 C.ar    1  4SO1        0.0799
     10  CAJ       23.5620    5.6410    8.9790 C.ar    1  4SO1        0.0079
     11  CAK       22.8110    4.7920    8.1720 C.ar    1  4SO1        0.0202
     12  OAL       21.8900    2.3420    6.5830 O.2     1  4SO1       -0.1503
     13  OAM       25.5270    7.0040   10.5470 O.co2   1  4SO1       -0.2406
@<TRIPOS>BOND
     1     7     6    1
     2     1     6    2
     3     6    12    2
     4     6     5    1
     5     4     5   ar
     6     4     3   ar
     7     5    11   ar
     8     3     9   ar
     9    11    10   ar
    10     9    10   ar
    11     9     8    1
    12     2     8   ar
    13     8    13   ar
