@<TRIPOS>MOLECULE
3r4l_FUC_A_1.pdb
 10 10 0 0 0
SMALL
GASTEIGER

@<TRIPOS>ATOM
      1  C1       -31.1720   -2.9180   30.2690 C.3   404  FUC404      0.1776
      2  C2       -30.4040   -3.1070   31.5640 C.3   404  FUC404      0.2141
      3  C3       -28.8990   -2.8140   31.3690 C.3   404  FUC404      0.2172
      4  C4       -28.7200   -1.4330   30.7220 C.3   404  FUC404      0.2116
      5  C5       -29.5530   -1.4070   29.4410 C.3   404  FUC404      0.1483
      6  C6       -29.3690   -0.1230   28.6530 C.3   404  FUC404      0.0349
      7  O2       -30.6770   -4.4210   32.0040 O.3   404  FUC404     -0.2176
      8  O3       -28.1390   -2.8800   32.5660 O.3   404  FUC404     -0.2175
      9  O4       -29.1060   -0.3690   31.5830 O.3   404  FUC404     -0.2177
     10  O5       -30.9150   -1.6050   29.7910 O.3   404  FUC404     -0.3508
@<TRIPOS>BOND
     1     6     5    1
     2     5    10    1
     3     5     4    1
     4    10     1    1
     5     1     2    1
     6     4     3    1
     7     4     9    1
     8     3     2    1
     9     3     8    1
    10     2     7    1
