@<TRIPOS>MOLECULE
3r4m_WOE_A_1.pdb
 16 17 0 0 0
SMALL
GASTEIGER

@<TRIPOS>ATOM
      1  C1        56.2530   36.2940   90.6150 C.3   501  WOE501      0.2525
      2  O2        55.9450   35.9250   89.2780 O.3   501  WOE501     -0.4714
      3  C3        55.9610   37.0100   88.4250 C.ar  501  WOE501      0.1408
      4  C4        56.4730   38.2350   88.8400 C.ar  501  WOE501      0.0370
      5  C5        56.4820   39.3210   87.9710 C.ar  501  WOE501      0.0031
      6  C6        55.9730   39.1780   86.6850 C.ar  501  WOE501      0.0003
      7  C7        55.4640   37.9490   86.2800 C.ar  501  WOE501      0.0053
      8  C8        55.4630   36.8690   87.1550 C.ar  501  WOE501      0.0608
      9  C9        54.9240   35.5660   86.6870 C.2   501  WOE501      0.1336
     10  C10       54.0020   34.8450   87.4350 C.3   501  WOE501      0.1320
     11  C11       53.5410   33.6320   86.9330 C.2   501  WOE501      0.1866
     12 CL1        52.3880   32.7070   87.8300 Cl    501  WOE501     -0.0511
     13  N13       53.9650   33.1610   85.7660 N.2   501  WOE501     -0.3182
     14  C14       54.8460   33.8930   85.0950 C.1   501  WOE501      0.2417
     15  N15       55.2760   33.4100   83.9040 N.pl3 501  WOE501     -0.0232
     16  N16       55.3380   35.0580   85.4960 N.2   501  WOE501     -0.3297
@<TRIPOS>BOND
     1    15    14    1
     2    14    16    2
     3    14    13    2
     4    16     9    2
     5    13    11    2
     6     7     6   ar
     7     7     8   ar
     8     6     5   ar
     9     9     8    1
    10     9    10    1
    11    11    10    1
    12    11    12    1
    13     8     3   ar
    14     5     4   ar
    15     3     4   ar
    16     3     2    1
    17     2     1    1
