@<TRIPOS>MOLECULE
3r4n_FU5_A_1.pdb
 23 24 0 0 0
SMALL
GASTEIGER

@<TRIPOS>ATOM
      1  C1        13.7460   -1.4520   51.4640 C.ar  901  FU5901      0.0713
      2  C2        15.0960   -1.6100   50.8180 C.2   901  FU5901      0.1331
      3  C3        13.5980   -1.6410   52.8940 C.ar  901  FU5901      0.1415
      4  C4        12.5960   -1.1100   50.6610 C.ar  901  FU5901      0.0628
      5  C5        15.6570   -2.8800   50.7710 C.3   901  FU5901      0.1154
      6  N6        15.7580   -0.5110   50.2950 N.2   901  FU5901     -0.3297
      7  C7        12.2920   -1.4970   53.4970 C.ar  901  FU5901      0.0370
      8  O8        14.7500   -1.9540   53.5960 O.3   901  FU5901     -0.4754
      9  C9        11.3180   -0.9760   51.2910 C.ar  901  FU5901      0.0117
     10 CL10       12.6990   -0.8470   48.9400 Cl    901  FU5901     -0.0821
     11  C11       16.8820   -2.9930   50.1890 C.2   901  FU5901      0.1078
     12  C12       16.9730   -0.6950   49.7300 C.1   901  FU5901      0.2405
     13  C13       11.1640   -1.1710   52.6970 C.ar  901  FU5901      0.0040
     14  C14       14.8600   -2.1670   54.9020 C.3   901  FU5901      0.2057
     15  N15       17.5460   -1.9150   49.6680 N.2   901  FU5901     -0.3343
     16  C16       17.5440   -4.3600   50.1180 C.3   901  FU5901      0.0630
     17  N17       17.6570    0.4020   49.2000 N.pl3 901  FU5901     -0.0232
     18  C18       16.3060   -2.4830   55.2890 C.3   901  FU5901      0.0561
     19  C19       16.8450   -3.6090   54.3850 C.3   901  FU5901      0.1072
     20  C20       18.2970   -3.9940   54.6640 C.3   901  FU5901      0.3979
     21  F21       18.4790   -4.3110   55.9930 F     901  FU5901     -0.1700
     22  F22       18.6480   -5.0890   53.8980 F     901  FU5901     -0.1700
     23  F23       19.1400   -2.9560   54.3430 F     901  FU5901     -0.1700
@<TRIPOS>BOND
     1    10     4    1
     2    17    12    1
     3    15    12    2
     4    15    11    2
     5    12     6    2
     6    16    11    1
     7    11     5    1
     8     6     2    2
     9     4     9   ar
    10     4     1   ar
    11     5     2    1
    12     2     1    1
    13     9    13   ar
    14     1     3   ar
    15    13     7   ar
    16     3     7   ar
    17     3     8    1
    18     8    14    1
    19    22    20    1
    20    23    20    1
    21    19    20    1
    22    19    18    1
    23    20    21    1
    24    14    18    1
