@<TRIPOS>MOLECULE
3r4o_FU3_A_1.pdb
 33 36 0 0 0
SMALL
GASTEIGER

@<TRIPOS>ATOM
      1  C1         2.6080  -32.4620   52.1280 C.ar  901  FU3901      0.0484
      2  C2         2.5760  -30.1940   51.1580 C.ar  901  FU3901      0.0231
      3  C3        -4.8090  -37.4940   46.1330 C.3   901  FU3901      0.0035
      4  C4        -3.5660  -37.3770   47.0240 C.3   901  FU3901      0.0218
      5  C5        -4.1400  -36.4260   45.2390 C.3   901  FU3901      0.0218
      6  C6         0.4670  -33.5640   48.2470 C.2   901  FU3901      0.0743
      7  C7         0.6760  -34.5380   46.0190 C.3   901  FU3901      0.1597
      8  C8         2.7740  -36.6760   50.7540 C.3   901  FU3901      0.0561
      9  C9         1.4940  -36.7130   49.9000 C.3   901  FU3901      0.1072
     10  C10        2.8300  -35.3750   51.5370 C.3   901  FU3901      0.2057
     11  C11        2.5080  -31.0630   52.2810 C.ar  901  FU3901      0.0615
     12  C12        2.7650  -33.0150   50.8320 C.ar  901  FU3901      0.1426
     13  C13        2.7380  -30.7290   49.8520 C.ar  901  FU3901      0.0639
     14  C14        1.8320  -33.3660   47.7180 C.2   901  FU3901      0.0737
     15  C15        1.9760  -33.9070   46.4520 C.2   901  FU3901      0.1468
     16  C16        2.8270  -32.1410   49.6560 C.ar  901  FU3901      0.0752
     17  C17        2.9450  -32.7390   48.2860 C.2   901  FU3901      0.1522
     18  C18        4.1940  -33.2290   46.3570 C.1   901  FU3901      0.2412
     19  C19       -3.5060  -35.9190   46.5330 C.3   901  FU3901      0.0969
     20  C20       -1.5130  -34.7360   47.4220 C.2   901  FU3901      0.3273
     21  C21        1.5050  -37.8160   48.8870 C.3   901  FU3901      0.3979
     22  N22        5.4080  -33.1520   45.6790 N.pl3 901  FU3901     -0.0232
     23  N23        3.1270  -33.8650   45.7390 N.2   901  FU3901     -0.3284
     24  N24        4.1360  -32.6630   47.6160 N.2   901  FU3901     -0.3256
     25  N25       -2.1270  -35.4210   46.3760 N.am  901  FU3901     -0.1899
     26  N26       -0.2140  -34.2910   47.1910 N.am  901  FU3901     -0.2335
     27  O27       -2.0900  -34.5300   48.4990 O.2   901  FU3901     -0.2504
     28  O28        2.8660  -34.3600   50.5430 O.3   901  FU3901     -0.4753
     29  F29        1.6050  -39.0070   49.4920 F     901  FU3901     -0.1700
     30  F30        0.3670  -37.8090   48.1700 F     901  FU3901     -0.1700
     31  F31        2.5230  -37.6810   48.0180 F     901  FU3901     -0.1700
     32 CL32        2.3010  -30.4160   53.8660 Cl    901  FU3901     -0.0821
     33 CL33        2.8350  -29.6280   48.5130 Cl    901  FU3901     -0.0820
@<TRIPOS>BOND
     1     5     3    1
     2     5    19    1
     3    22    18    1
     4    23    18    2
     5    23    15    2
     6     7    15    1
     7     7    26    1
     8     3     4    1
     9    18    24    2
    10    25    19    1
    11    25    20   am
    12    15    14    1
    13    19     4    1
    14    26    20   am
    15    26     6    1
    16    20    27    2
    17    24    17    2
    18    14     6    2
    19    14    17    1
    20    31    21    1
    21    30    21    1
    22    17    16    1
    23    33    13    1
    24    21    29    1
    25    21     9    1
    26    16    13   ar
    27    16    12   ar
    28    13     2   ar
    29     9     8    1
    30    28    12    1
    31    28    10    1
    32     8    10    1
    33    12     1   ar
    34     2    11   ar
    35     1    11   ar
    36    11    32    1
