@<TRIPOS>MOLECULE
3r4p_FU7_A_1.pdb
 34 37 0 0 0
SMALL
GASTEIGER

@<TRIPOS>ATOM
      1  C1        13.7980   -1.0690   51.6670 C.ar  901  FU7901      0.0752
      2  F1        17.6490   -7.7760   54.3260 F     901  FU7901     -0.2024
      3  N1        16.3200   -4.7780   51.5020 N.am  901  FU7901     -0.2335
      4  O1        15.1890   -6.4590   52.6080 O.2   901  FU7901     -0.2504
      5 CL1        12.8200   -0.7640   49.0780 Cl    901  FU7901     -0.0820
      6  C2        13.5680   -1.1720   53.0990 C.ar  901  FU7901      0.1427
      7  F2        19.3610   -8.2000   53.0490 F     901  FU7901     -0.2024
      8  N2        17.6520   -1.7480   49.9190 N.2   901  FU7901     -0.3284
      9  O2        14.7180   -1.2760   53.8670 O.3   901  FU7901     -0.4732
     10 CL2         9.5430   -1.0160   53.3530 Cl    901  FU7901     -0.0821
     11  C3        12.2350   -1.1500   53.6100 C.ar  901  FU7901      0.0484
     12  N3        15.7850   -0.2460   50.4390 N.2   901  FU7901     -0.3256
     13  C4        11.1440   -1.0160   52.7260 C.ar  901  FU7901      0.0615
     14  N4        17.6880    0.5230   49.2410 N.pl3 901  FU7901     -0.0232
     15  C5        11.3450   -0.8830   51.3330 C.ar  901  FU7901      0.0231
     16  N5        17.2390   -6.9460   51.6660 N.am  901  FU7901     -0.1823
     17  C6        12.6590   -0.8990   50.8040 C.ar  901  FU7901      0.0639
     18  N6        16.9330   -2.3940   55.2400 N.ar  901  FU7901     -0.2455
     19  C7        15.7320   -2.5560   51.1490 C.2   901  FU7901      0.0737
     20  N7        16.7850   -3.6990   55.5360 N.ar  901  FU7901     -0.1675
     21  C8        15.2560   -3.8190   51.7680 C.2   901  FU7901      0.0743
     22  C9        17.4340   -4.1620   50.7390 C.3   901  FU7901      0.1597
     23  C10       16.9730   -2.7310   50.5580 C.2   901  FU7901      0.1468
     24  C11       17.0290   -0.5120   49.8800 C.1   901  FU7901      0.2412
     25  C12       15.1460   -1.2730   51.0700 C.2   901  FU7901      0.1522
     26  C13       16.1870   -6.0880   51.9660 C.2   901  FU7901      0.3275
     27  C14       14.6380   -1.3760   55.2950 C.3   901  FU7901      0.2316
     28  C15       16.0590   -1.4160   55.8500 C.3   901  FU7901      0.1746
     29  C16       17.9490   -2.1400   54.3610 C.ar  901  FU7901      0.0968
     30  C17       18.4970   -3.3580   54.0640 C.ar  901  FU7901      0.0427
     31  C18       17.7430   -4.2820   54.8130 C.ar  901  FU7901      0.1217
     32  C19       17.2240   -8.3480   52.0910 C.3   901  FU7901      0.1829
     33  C20       18.0880   -8.5660   53.3150 C.3   901  FU7901      0.2839
     34  C21       18.0770  -10.0030   53.7890 C.3   901  FU7901      0.0741
@<TRIPOS>BOND
     1     5    17    1
     2    14    24    1
     3    24     8    2
     4    24    12    2
     5     8    23    2
     6    12    25    2
     7    23    22    1
     8    23    19    1
     9    22     3    1
    10    17    15   ar
    11    17     1   ar
    12    25    19    1
    13    25     1    1
    14    19    21    2
    15    15    13   ar
    16     3    21    1
    17     3    26   am
    18    16    26   am
    19    16    32    1
    20     1     6   ar
    21    26     4    2
    22    32    33    1
    23    13    10    1
    24    13    11   ar
    25     7    33    1
    26     6    11   ar
    27     6     9    1
    28    33    34    1
    29    33     2    1
    30     9    27    1
    31    30    29   ar
    32    30    31   ar
    33    29    18   ar
    34    31    20   ar
    35    18    20   ar
    36    18    28    1
    37    27    28    1
