@<TRIPOS>MOLECULE
3r4s_SLB_A_1.pdb
 21 21 0 0 0
SMALL
GASTEIGER

@<TRIPOS>ATOM
      1  C1        51.3520   32.3470   98.5200 C.2   6875  SLB6875     0.4179
      2  C2        49.8990   32.7200   98.3950 C.3   6875  SLB6875     0.3155
      3  C3        49.6610   33.3470   97.0160 C.3   6875  SLB6875     0.1056
      4  C4        48.2310   33.8630   96.8890 C.3   6875  SLB6875     0.1798
      5  C5        47.9740   34.8700   97.9870 C.3   6875  SLB6875     0.1554
      6  C6        48.2260   34.2200   99.3510 C.3   6875  SLB6875     0.1734
      7  C7        48.1040   35.2940  100.4220 C.3   6875  SLB6875     0.2135
      8  C8        48.0870   34.6710  101.8270 C.3   6875  SLB6875     0.2173
      9  C9        47.9100   35.7310  102.9100 C.3   6875  SLB6875     0.2175
     10  C10       46.0190   36.3530   97.9150 C.2   6875  SLB6875     0.2420
     11  C11       44.5220   36.3920   97.8890 C.3   6875  SLB6875     0.0964
     12  N5        46.5400   35.1260   97.9510 N.am  6875  SLB6875    -0.2020
     13  O1A       52.2100   33.2370   98.7290 O.co2 6875  SLB6875    -0.2401
     14  O1B       51.6480   31.1390   98.3840 O.co2 6875  SLB6875    -0.2401
     15  O2        49.1400   31.5120   98.5050 O.3   6875  SLB6875    -0.1830
     16  O4        48.0370   34.5020   95.6230 O.3   6875  SLB6875    -0.2210
     17  O6        49.5280   33.6100   99.4600 O.3   6875  SLB6875    -0.3220
     18  O7        49.2350   36.1700  100.2540 O.3   6875  SLB6875    -0.2176
     19  O8        47.0330   33.7020  101.9340 O.3   6875  SLB6875    -0.2175
     20  O9        49.1940   36.2980  103.1960 O.3   6875  SLB6875    -0.2175
     21  O10       46.7020   37.3720   97.9000 O.2   6875  SLB6875    -0.2733
@<TRIPOS>BOND
     1    16     4    1
     2     4     3    1
     3     4     5    1
     4     3     2    1
     5    11    10    1
     6    21    10    2
     7    10    12   am
     8    12     5    1
     9     5     6    1
    10    14     1   ar
    11     2    15    1
    12     2     1    1
    13     2    17    1
    14     1    13   ar
    15     6    17    1
    16     6     7    1
    17    18     7    1
    18     7     8    1
    19     8    19    1
    20     8     9    1
    21     9    20    1
