@<TRIPOS>MOLECULE
3r4s_SIA_A_1.pdb
 21 21 0 0 0
SMALL
GASTEIGER

@<TRIPOS>ATOM
      1  C1        29.8200   36.9270   90.0830 C.2   6859  SIA6859     0.4179
      2  C2        28.3900   37.1560   90.5210 C.3   6859  SIA6859     0.3155
      3  C3        27.7860   35.9000   91.1520 C.3   6859  SIA6859     0.1056
      4  C4        28.2520   35.6450   92.5750 C.3   6859  SIA6859     0.1798
      5  C5        28.1550   36.9150   93.3990 C.3   6859  SIA6859     0.1554
      6  C6        28.9390   38.0180   92.6970 C.3   6859  SIA6859     0.1734
      7  C7        28.9680   39.3320   93.4720 C.3   6859  SIA6859     0.2135
      8  C8        29.7470   40.3880   92.6900 C.3   6859  SIA6859     0.2173
      9  C9        30.0230   41.6130   93.5560 C.3   6859  SIA6859     0.2175
     10  C10       28.2850   36.7370   95.8080 C.2   6859  SIA6859     0.2420
     11  C11       29.1300   36.4120   97.0120 C.3   6859  SIA6859     0.0964
     12  N5        28.8840   36.6200   94.6200 N.am  6859  SIA6859    -0.2020
     13  O1A       30.5640   37.9350   89.9530 O.co2 6859  SIA6859    -0.2401
     14  O1B       30.2140   35.7580   89.8530 O.co2 6859  SIA6859    -0.2401
     15  O2        27.6360   37.5080   89.3550 O.3   6859  SIA6859    -0.1830
     16  O4        27.4290   34.6400   93.1740 O.3   6859  SIA6859    -0.2210
     17  O6        28.3600   38.2700   91.4150 O.3   6859  SIA6859    -0.3220
     18  O7        27.6260   39.8000   93.6640 O.3   6859  SIA6859    -0.2176
     19  O8        30.9870   39.8360   92.2060 O.3   6859  SIA6859    -0.2175
     20  O9        31.0410   41.2560   94.4950 O.3   6859  SIA6859    -0.2175
     21  O10       27.1190   37.0920   95.9080 O.2   6859  SIA6859    -0.2733
@<TRIPOS>BOND
     1    15     2    1
     2    14     1   ar
     3    13     1   ar
     4     1     2    1
     5     2     3    1
     6     2    17    1
     7     3     4    1
     8    17     6    1
     9    19     8    1
    10     4    16    1
    11     4     5    1
    12     8     7    1
    13     8     9    1
    14     6     5    1
    15     6     7    1
    16     5    12    1
    17     7    18    1
    18     9    20    1
    19    12    10   am
    20    10    21    2
    21    10    11    1
