@<TRIPOS>MOLECULE
3r4v_GDP_A_1.pdb
 28 30 0 0 0
SMALL
GASTEIGER

@<TRIPOS>ATOM
      1  PB       -15.9700    4.3690   -5.9400 P.3   400  GDP400      0.5373
      2  O1B      -16.2350    3.2720   -4.9340 O.3   400  GDP400     -0.1143
      3  O2B      -14.4890    4.6380   -5.9630 O.2   400  GDP400     -0.2221
      4  O3B      -16.7650    5.6180   -5.5780 O.3   400  GDP400     -0.1143
      5  O3A      -16.4870    3.9140   -7.3830 O.3   400  GDP400     -0.2261
      6  PA       -16.2090    2.4990   -8.0970 P.3   400  GDP400      0.2231
      7  O1A      -16.9130    1.3400   -7.4110 O.3   400  GDP400     -0.4370
      8  O2A      -14.7340    2.2530   -8.2390 O.2   400  GDP400     -0.5169
      9  O5'      -16.8960    2.7710   -9.4920 O.3   400  GDP400     -0.3111
     10  C5'      -16.5200    3.8880  -10.3160 C.3   400  GDP400      0.1813
     11  C4'      -16.7860    3.5750  -11.7840 C.3   400  GDP400      0.1799
     12  O4'      -15.8410    2.6000  -12.2440 O.3   400  GDP400     -0.3326
     13  C3'      -18.1510    2.9530  -12.0310 C.3   400  GDP400      0.2158
     14  O3'      -19.1100    3.9600  -12.3400 O.3   400  GDP400     -0.2175
     15  C2'      -17.9080    2.0570  -13.2260 C.3   400  GDP400      0.2310
     16  O2'      -17.9590    2.8150  -14.4340 O.3   400  GDP400     -0.2158
     17  C1'      -16.4700    1.6140  -13.0790 C.3   400  GDP400      0.2293
     18  N9       -16.3260    0.3490  -12.3280 N.pl3 400  GDP400     -0.2354
     19  C8       -17.0260   -0.0550  -11.2400 C.3   400  GDP400      0.2246
     20  N7       -16.5750   -1.2560  -10.7950 N.2   400  GDP400     -0.2322
     21  C5       -15.5460   -1.6260  -11.5900 C.2   400  GDP400      0.2182
     22  C6       -14.6090   -2.7680  -11.6750 C.1   400  GDP400      0.2372
     23  O6       -14.6780   -3.7110  -10.8620 O.2   400  GDP400     -0.2069
     24  N1       -13.6880   -2.7550  -12.6570 N.2   400  GDP400     -0.2485
     25  C2       -13.5960   -1.7420  -13.5480 C.1   400  GDP400      0.2531
     26  N2       -12.6420   -1.7720  -14.5150 N.pl3 400  GDP400     -0.0226
     27  N3       -14.4180   -0.6670  -13.5220 N.2   400  GDP400     -0.3074
     28  C4       -15.3860   -0.5590  -12.5840 C.2   400  GDP400      0.2300
@<TRIPOS>BOND
     1    26    25    1
     2    16    15    1
     3    25    27    2
     4    25    24    2
     5    27    28    2
     6    15    17    1
     7    15    13    1
     8    17    18    1
     9    17    12    1
    10    24    22    2
    11    28    18    1
    12    28    21    1
    13    14    13    1
    14    18    19    1
    15    12    11    1
    16    13    11    1
    17    11    10    1
    18    22    21    1
    19    22    23    2
    20    21    20    2
    21    19    20    1
    22    10     9    1
    23     9     6    1
    24     8     6    2
    25     6     7    1
    26     6     5    1
    27     5     1    1
    28     3     1    2
    29     1     4    1
    30     1     2    1
