@<TRIPOS>MOLECULE
3r4x_HEM_A_1.pdb
 43 50 0 0 0
SMALL
GASTEIGER

@<TRIPOS>ATOM
      1  CHA        8.8400    0.0280   29.0630 C.2   605  HEM605      0.0000
      2  CHB        9.1430    4.7980   28.6700 C.2   605  HEM605      0.0000
      3  CHC       11.0630    4.4390   24.3760 C.2   605  HEM605      0.0000
      4  CHD       10.7320   -0.3740   24.6500 C.2   605  HEM605      0.0000
      5  C1A        8.7570    1.3340   29.3620 C.2   605  HEM605      0.0000
      6  C2A        8.2080    1.8980   30.6610 C.2   605  HEM605      0.0000
      7  C3A        8.3010    3.2120   30.5390 C.2   605  HEM605      0.0000
      8  C4A        8.9000    3.5130   29.2330 C.2   605  HEM605      0.0000
      9  CMA        7.8200    4.2100   31.5920 C.3   605  HEM605      0.0000
     10  CAA        7.6750    1.0250   31.7850 C.3   605  HEM605      0.0000
     11  CBA        8.8460    0.5430   32.6060 C.3   605  HEM605      0.0000
     12  CGA        8.4570   -0.4430   33.6690 C.2   605  HEM605      0.0000
     13  O1A        9.0200   -1.5570   33.7420 O.co2 605  HEM605      0.0000
     14  O2A        7.5120   -0.0610   34.4420 O.co2 605  HEM605      0.0000
     15  C1B        9.7020    5.1750   27.4410 C.ar  605  HEM605      0.0000
     16  C2B        9.7390    6.4910   26.9260 C.ar  605  HEM605      0.0000
     17  C3B       10.2760    6.3770   25.6680 C.ar  605  HEM605      0.0000
     18  C4B       10.5270    5.0050   25.4680 C.ar  605  HEM605      0.0000
     19  CMB        9.3690    7.7540   27.5800 C.3   605  HEM605      0.0000
     20  CAB       10.5890    7.5750   24.6810 C.2   605  HEM605      0.0000
     21  CBB       10.8770    8.8360   25.1380 C.2   605  HEM605      0.0000
     22  C1C       11.1400    3.0840   24.0390 C.2   605  HEM605      0.0000
     23  C2C       11.7640    2.6080   22.8880 C.2   605  HEM605      0.0000
     24  C3C       11.6640    1.2310   22.9040 C.2   605  HEM605      0.0000
     25  C4C       10.9830    0.9590   24.1520 C.2   605  HEM605      0.0000
     26  CMC       12.3280    3.5040   21.7130 C.3   605  HEM605      0.0000
     27  CAC       12.0510    0.2000   21.8150 C.2   605  HEM605      0.0000
     28  CBC       12.7780    0.4410   20.7260 C.2   605  HEM605      0.0000
     29  C1D       10.0640   -0.7060   25.8950 C.ar  605  HEM605      0.0000
     30  C2D        9.6700   -2.0410   26.1920 C.ar  605  HEM605      0.0000
     31  C3D        9.0600   -1.9320   27.5710 C.ar  605  HEM605      0.0000
     32  C4D        9.2150   -0.5370   27.8590 C.ar  605  HEM605      0.0000
     33  CMD        9.7210   -3.3820   25.5140 C.3   605  HEM605      0.0000
     34  CAD        8.3690   -3.1060   28.2670 C.3   605  HEM605      0.0000
     35  CBD        6.8760   -3.1430   27.7810 C.3   605  HEM605      0.0000
     36  CGD        6.1150   -4.1820   28.4520 C.2   605  HEM605      0.0000
     37  O1D        5.5050   -3.8440   29.5090 O.co2 605  HEM605      0.0000
     38  O2D        6.1670   -5.3860   28.0110 O.co2 605  HEM605      0.0000
     39  NA         9.1250    2.3520   28.5030 N.2   605  HEM605      0.0000
     40  NB        10.1310    4.2780   26.5390 N.ar  605  HEM605      0.0000
     41  NC        10.8030    2.0870   24.9100 N.2   605  HEM605      0.0000
     42  ND         9.8310    0.1290   26.9200 N.ar  605  HEM605      0.0000
     43 FE         10.0800    2.1780   26.7750 Fe    605  HEM605      0.0000
@<TRIPOS>BOND
     1    28    27    2
     2    26    23    1
     3    27    24    1
     4    23    24    2
     5    23    22    1
     6    24    25    1
     7    22     3    2
     8    22    41    1
     9    25     4    1
    10    25    41    2
    11     3    18    1
    12     4    29    2
    13    20    21    2
    14    20    17    1
    15    41    43    1
    16    18    17   ar
    17    18    40   ar
    18    33    30    1
    19    17    16   ar
    20    29    30   ar
    21    29    42   ar
    22    30    31   ar
    23    40    43    1
    24    40    15   ar
    25    43    42    1
    26    43    39    1
    27    42    32   ar
    28    16    15   ar
    29    16    19    1
    30    15     2    1
    31    31    32   ar
    32    31    34    1
    33    35    34    1
    34    35    36    1
    35    32     1    2
    36    38    36   ar
    37    36    37   ar
    38    39     8    1
    39    39     5    2
    40     2     8    2
    41     1     5    1
    42     8     7    1
    43     5     6    1
    44     7     6    2
    45     7     9    1
    46     6    10    1
    47    10    11    1
    48    11    12    1
    49    12    13   ar
    50    12    14   ar
