@<TRIPOS>MOLECULE
3r51_MMA_A_1.pdb
 13 13 0 0 0
SMALL
GASTEIGER

@<TRIPOS>ATOM
      1  C1        21.3580   70.2320   57.9640 C.3   200  MMA200      0.2695
      2  C2        22.4900   69.1640   57.9820 C.3   200  MMA200      0.2406
      3  C3        23.8350   69.8670   57.6170 C.3   200  MMA200      0.2198
      4  C4        23.7040   70.4860   56.2050 C.3   200  MMA200      0.2144
      5  C5        22.5370   71.5100   56.2340 C.3   200  MMA200      0.1835
      6  C6        22.3780   72.1330   54.8420 C.3   200  MMA200      0.2142
      7  C7        20.5600   72.2210   58.9930 C.3   200  MMA200      0.1769
      8  O1        21.6280   71.2510   58.9830 O.3   200  MMA200     -0.3259
      9  O2        22.1900   68.1540   56.9990 O.3   200  MMA200     -0.2149
     10  O3        24.9110   68.9150   57.6260 O.3   200  MMA200     -0.2174
     11  O4        24.9360   71.1450   55.8520 O.3   200  MMA200     -0.2176
     12  O5        21.2830   70.8430   56.6060 O.3   200  MMA200     -0.3256
     13  O6        21.8040   71.6740   53.6300 O.3   200  MMA200     -0.2176
@<TRIPOS>BOND
     1    13     6    1
     2     6     5    1
     3    11     4    1
     4     4     5    1
     5     4     3    1
     6     5    12    1
     7    12     1    1
     8     9     2    1
     9     3    10    1
    10     3     2    1
    11     1     2    1
    12     1     8    1
    13     8     7    1
