@<TRIPOS>MOLECULE
3r52_GYP_A_1.pdb
 13 13 0 0 0
SMALL
GASTEIGER

@<TRIPOS>ATOM
      1  C1        34.1160   37.6020   11.2780 C.3   200  GYP200      0.2695
      2  C2        33.0950   37.2710   12.4120 C.3   200  GYP200      0.2406
      3  C3        31.7600   37.9840   12.1240 C.3   200  GYP200      0.2198
      4  C4        32.0240   39.5060   12.0740 C.3   200  GYP200      0.2144
      5  C5        33.0500   39.7640   10.9250 C.3   200  GYP200      0.1835
      6  C6        33.3410   41.2470   10.8310 C.3   200  GYP200      0.2142
      7  C7        34.6420   37.3810    8.9890 C.3   200  GYP200      0.1769
      8  O1        33.6620   37.0800   10.0050 O.3   200  GYP200     -0.3259
      9  O2        32.8860   35.8470   12.4670 O.3   200  GYP200     -0.2149
     10  O3        30.8250   37.6890   13.1650 O.3   200  GYP200     -0.2174
     11  O4        30.7960   40.1940   11.8000 O.3   200  GYP200     -0.2176
     12  O5        34.3160   39.0580   11.2000 O.3   200  GYP200     -0.3256
     13  O6        33.9560   42.2070   11.6710 O.3   200  GYP200     -0.2176
@<TRIPOS>BOND
     1     7     8    1
     2     8     1    1
     3     6     5    1
     4     6    13    1
     5     5    12    1
     6     5     4    1
     7    12     1    1
     8     1     2    1
     9    11     4    1
    10     4     3    1
    11     3     2    1
    12     3    10    1
    13     2     9    1
