@<TRIPOS>MOLECULE
3r55_HEM_A_1.pdb
 43 50 0 0 0
SMALL
GASTEIGER

@<TRIPOS>ATOM
      1  CHA        8.7390   -0.0100   29.2150 C.2   618  HEM618      0.0000
      2  CHB        9.1800    4.8200   28.9440 C.2   618  HEM618      0.0000
      3  CHC       11.0550    4.3460   24.4930 C.2   618  HEM618      0.0000
      4  CHD       10.8520   -0.5010   24.8290 C.2   618  HEM618      0.0000
      5  C1A        8.7040    1.3220   29.5390 C.2   618  HEM618      0.0000
      6  C2A        8.2110    1.8630   30.7850 C.2   618  HEM618      0.0000
      7  C3A        8.3210    3.1950   30.7260 C.2   618  HEM618      0.0000
      8  C4A        8.8940    3.5510   29.4300 C.2   618  HEM618      0.0000
      9  CMA        7.9100    4.1770   31.8520 C.3   618  HEM618      0.0000
     10  CAA        7.6600    1.0270   31.9670 C.3   618  HEM618      0.0000
     11  CBA        8.8300    0.4770   32.7790 C.3   618  HEM618      0.0000
     12  CGA        8.3320   -0.4040   33.8970 C.2   618  HEM618      0.0000
     13  O1A        7.4790    0.0510   34.7050 O.co2 618  HEM618      0.0000
     14  O2A        8.8010   -1.5670   33.9890 O.co2 618  HEM618      0.0000
     15  C1B        9.6680    5.1360   27.6820 C.ar  618  HEM618      0.0000
     16  C2B        9.8120    6.4540   27.0740 C.ar  618  HEM618      0.0000
     17  C3B       10.3260    6.3130   25.8480 C.ar  618  HEM618      0.0000
     18  C4B       10.5320    4.9010   25.6320 C.ar  618  HEM618      0.0000
     19  CMB        9.4540    7.8110   27.7190 C.3   618  HEM618      0.0000
     20  CAB       10.6610    7.4240   24.8150 C.2   618  HEM618      0.0000
     21  CBB       10.8550    8.7150   25.1670 C.2   618  HEM618      0.0000
     22  C1C       11.1860    3.0080   24.2130 C.2   618  HEM618      0.0000
     23  C2C       11.7720    2.4700   23.0100 C.2   618  HEM618      0.0000
     24  C3C       11.7190    1.1300   23.0890 C.2   618  HEM618      0.0000
     25  C4C       11.0940    0.7790   24.3540 C.2   618  HEM618      0.0000
     26  CMC       12.3440    3.3430   21.8690 C.3   618  HEM618      0.0000
     27  CAC       12.2150    0.0880   22.0540 C.2   618  HEM618      0.0000
     28  CBC       12.7750    0.4190   20.8810 C.2   618  HEM618      0.0000
     29  C1D       10.1820   -0.8410   25.9910 C.ar  618  HEM618      0.0000
     30  C2D        9.6940   -2.1560   26.3780 C.ar  618  HEM618      0.0000
     31  C3D        9.0440   -1.9820   27.7420 C.ar  618  HEM618      0.0000
     32  C4D        9.1890   -0.5840   28.0540 C.ar  618  HEM618      0.0000
     33  CMD        9.7790   -3.5170   25.6540 C.3   618  HEM618      0.0000
     34  CAD        8.3500   -3.0860   28.5650 C.3   618  HEM618      0.0000
     35  CBD        6.9350   -3.1820   27.9940 C.3   618  HEM618      0.0000
     36  CGD        6.1610   -4.2970   28.6360 C.2   618  HEM618      0.0000
     37  O1D        6.1890   -5.4320   28.1020 O.co2 618  HEM618      0.0000
     38  O2D        5.5120   -4.0510   29.6840 O.co2 618  HEM618      0.0000
     39  NA         9.1200    2.3710   28.7450 N.2   618  HEM618      0.0000
     40  NB        10.1240    4.2160   26.7600 N.ar  618  HEM618      0.0000
     41  NC        10.7940    1.9540   25.0120 N.2   618  HEM618      0.0000
     42  ND         9.8630    0.0490   27.0140 N.ar  618  HEM618      0.0000
     43 FE          9.9660    2.1620   26.8820 Fe    618  HEM618      0.0000
@<TRIPOS>BOND
     1    28    27    2
     2    26    23    1
     3    27    24    1
     4    23    24    2
     5    23    22    1
     6    24    25    1
     7    22     3    2
     8    22    41    1
     9    25     4    1
    10    25    41    2
    11     3    18    1
    12    20    21    2
    13    20    17    1
    14     4    29    2
    15    41    43    1
    16    18    17   ar
    17    18    40   ar
    18    33    30    1
    19    17    16   ar
    20    29    30   ar
    21    29    42   ar
    22    30    31   ar
    23    40    43    1
    24    40    15   ar
    25    43    42    1
    26    43    39    1
    27    42    32   ar
    28    16    15   ar
    29    16    19    1
    30    15     2    1
    31    31    32   ar
    32    31    34    1
    33    35    34    1
    34    35    36    1
    35    32     1    2
    36    37    36   ar
    37    36    38   ar
    38    39     8    1
    39    39     5    2
    40     2     8    2
    41     1     5    1
    42     8     7    1
    43     5     6    1
    44     7     6    2
    45     7     9    1
    46     6    10    1
    47    10    11    1
    48    11    12    1
    49    12    14   ar
    50    12    13   ar
