@<TRIPOS>MOLECULE
3r56_6AI_A_1.pdb
 10 11 0 0 0
SMALL
GASTEIGER

@<TRIPOS>ATOM
      1  NAA        1.0950   15.2020   23.4640 N.pl3 302  6AI302     -0.1323
      2  CAB        2.1450   16.1990   21.6010 C.2   302  6AI302      0.0141
      3  CAC        2.0870   16.6180   20.2740 C.2   302  6AI302      0.0039
      4  CAD        0.5470   16.7060   18.3120 C.2   302  6AI302      0.1233
      5  CAE       -0.1350   15.4120   21.4670 C.3   302  6AI302      0.0923
      6  NAF       -0.7110   16.2890   18.1720 N.2   302  6AI302     -0.1467
      7  NAG       -1.1420   15.7870   19.2160 N.2   302  6AI302     -0.1519
      8  CAH        1.0380   15.5960   22.1970 C.2   302  6AI302      0.0728
      9  CAI        0.9120   16.4280   19.5530 C.2   302  6AI302      0.0366
     10  CAJ       -0.1900   15.8290   20.1420 C.2   302  6AI302      0.0878
@<TRIPOS>BOND
     1     6     4    2
     2     6     7    1
     3     4     9    1
     4     7    10    2
     5     9    10    1
     6     9     3    2
     7    10     5    1
     8     3     2    1
     9     5     8    1
    10     2     8    2
    11     8     1    1
