@<TRIPOS>MOLECULE
3r57_N3M_A_1.pdb
 11 11 0 0 0
SMALL
GASTEIGER

@<TRIPOS>ATOM
      1  CAA       -3.4720   15.2080   18.9590 C.3   302  N3M302      0.0968
      2  NAB        1.2040   15.2470   23.7510 N.pl3 302  N3M302     -0.1280
      3  OAC       -2.6720   14.8020   21.1830 O.2   302  N3M302     -0.2730
      4  CAD        2.1720   16.6370   20.5460 C.ar  302  N3M302      0.0027
      5  CAE        2.2420   16.2190   21.8740 C.ar  302  N3M302      0.0181
      6  CAF        0.9890   16.4690   19.8270 C.ar  302  N3M302      0.0167
      7  CAG       -0.0530   15.4740   21.7570 C.ar  302  N3M302      0.0346
      8  NAH       -1.2370   15.7530   19.6720 N.am  302  N3M302     -0.1792
      9  CAI       -2.4090   15.2340   20.0590 C.2   302  N3M302      0.2461
     10  CAJ        1.1310   15.6410   22.4820 C.ar  302  N3M302      0.0904
     11  CAK       -0.1300   15.8880   20.4230 C.ar  302  N3M302      0.0747
@<TRIPOS>BOND
     1     1     9    1
     2     8     9   am
     3     8    11    1
     4     6    11   ar
     5     6     4   ar
     6     9     3    2
     7    11     7   ar
     8     4     5   ar
     9     7    10   ar
    10     5    10   ar
    11    10     2    1
