@<TRIPOS>MOLECULE
3r58_NPS_A_1.pdb
 17 18 0 0 0
SMALL
GASTEIGER

@<TRIPOS>ATOM
      1  C1        -1.9320   -9.9100  -15.4680 C.ar  332  NPS332      0.1387
      2  O2        -1.9600  -11.1520  -15.9680 O.3   332  NPS332     -0.4714
      3  C2        -2.2390   -9.8910  -14.1440 C.ar  332  NPS332      0.0369
      4  C14       -1.6720   -3.7630  -12.9900 C.3   332  NPS332      0.1256
      5  C3        -2.2550   -8.7090  -13.4160 C.ar  332  NPS332      0.0031
      6  C4        -1.9680   -7.5230  -13.9880 C.ar  332  NPS332     -0.0001
      7  C5        -1.6430   -7.5400  -15.3730 C.ar  332  NPS332      0.0030
      8  C6        -1.6270   -8.7190  -16.1480 C.ar  332  NPS332      0.0369
      9  C7        -2.0010   -6.3590  -13.1550 C.ar  332  NPS332     -0.0037
     10  C8        -1.7070   -5.1260  -13.7690 C.ar  332  NPS332     -0.0118
     11  C10       -2.4060   -2.5940  -13.6800 C.3   332  NPS332      0.0166
     12  C13       -1.3650   -6.3230  -15.9400 C.ar  332  NPS332     -0.0002
     13  C11       -1.4090   -5.1620  -15.1340 C.ar  332  NPS332     -0.0037
     14  C12       -1.9130  -12.1060  -14.8210 C.3   332  NPS332      0.2525
     15  O          0.0430   -2.8520  -11.6230 O.co2 332  NPS332     -0.2453
     16  OXT        0.6480   -3.4610  -13.6620 O.co2 332  NPS332     -0.2453
     17  C15       -0.2010   -3.3350  -12.7430 C.2   332  NPS332      0.3683
@<TRIPOS>BOND
     1     8     1   ar
     2     8     7   ar
     3     2     1    1
     4     2    14    1
     5    12     7   ar
     6    12    13   ar
     7     1     3   ar
     8     7     6   ar
     9    13    10   ar
    10     3     5   ar
    11     6     5   ar
    12     6     9   ar
    13    10     9   ar
    14    10     4    1
    15    11     4    1
    16    16    17   ar
    17     4    17    1
    18    17    15   ar
