@<TRIPOS>MOLECULE
3r58_NAP_A_1.pdb
 48 52 0 0 0
SMALL
GASTEIGER

@<TRIPOS>ATOM
      1  PA         1.8730   -3.7350   -2.8670 P.3   700  NAP700      0.2189
      2  O1A        3.3390   -3.4710   -3.0160 O.2   700  NAP700     -0.5170
      3  O2A        1.4680   -5.2740   -2.7330 O.3   700  NAP700     -0.4371
      4  O5B        1.1310   -2.9330   -1.6780 O.3   700  NAP700     -0.3112
      5  C5B       -0.2490   -3.0250   -1.3300 C.3   700  NAP700      0.1813
      6  C4B       -0.5780   -2.0280   -0.1310 C.3   700  NAP700      0.1820
      7  O4B        0.4100   -2.1750    0.9290 O.3   700  NAP700     -0.3136
      8  C3B       -0.2010   -0.6740   -0.7330 C.3   700  NAP700      0.2157
      9  O3B       -1.3670   -0.1280   -1.3090 O.3   700  NAP700     -0.2175
     10  C2B        0.3300    0.1430    0.4650 C.3   700  NAP700      0.2314
     11  O2B       -0.6890    0.9860    0.9560 O.3   700  NAP700     -0.2630
     12  C1B        0.5040   -0.9050    1.5920 C.3   700  NAP700      0.3158
     13  N9A        1.7980   -0.8120    2.3010 N.pl3 700  NAP700     -0.1439
     14  C8A        3.0120   -0.4700    1.8210 C.3   700  NAP700      0.3377
     15  N7A        3.9180   -0.5400    2.7880 N.2   700  NAP700     -0.2095
     16  C5A        3.2790   -0.9100    3.8830 C.2   700  NAP700      0.2526
     17  C6A        3.6750   -1.0740    5.1970 C.2   700  NAP700      0.4393
     18  N6A        4.9500   -0.8970    5.5670 N.pl3 700  NAP700      0.2180
     19  N1A        2.7380   -1.4240    6.0890 N.2   700  NAP700      0.0021
     20  C2A        1.4380   -1.5920    5.7700 C.3   700  NAP700      0.5254
     21  N3A        1.0040   -1.4130    4.5150 N.2   700  NAP700     -0.0055
     22  C4A        1.9280   -1.0800    3.5730 C.2   700  NAP700      0.3518
     23  O3         0.9820   -3.0960   -4.0810 O.3   700  NAP700     -0.2703
     24  PN         0.9930   -3.3010   -5.6600 P.3   700  NAP700      0.2189
     25  O1N        0.6670   -2.0010   -6.2720 O.2   700  NAP700     -0.5170
     26  O2N        0.1080   -4.5120   -5.9580 O.3   700  NAP700     -0.4371
     27  O5D        2.5880   -3.8410   -5.9480 O.3   700  NAP700     -0.3112
     28  C5D        3.6300   -2.9210   -6.1000 C.3   700  NAP700      0.1813
     29  C4D        3.9200   -2.5290   -7.5440 C.3   700  NAP700      0.1799
     30  O4D        4.2100   -3.6860   -8.4600 O.3   700  NAP700     -0.3327
     31  C3D        2.8340   -1.7900   -8.2580 C.3   700  NAP700      0.2158
     32  O3D        2.7050   -0.4420   -7.7510 O.3   700  NAP700     -0.2175
     33  C2D        3.4360   -1.7730   -9.6750 C.3   700  NAP700      0.2309
     34  O2D        4.5980   -0.9920   -9.6080 O.3   700  NAP700     -0.2158
     35  C1D        3.8620   -3.2450   -9.7850 C.3   700  NAP700      0.2263
     36  N1N        2.7840   -4.1390  -10.2500 N.pl3 700  NAP700     -0.2787
     37  C2N        2.9910   -4.6930  -11.5000 C.3   700  NAP700      0.1244
     38  C3N        2.0740   -5.5700  -12.0720 C.2   700  NAP700      0.0544
     39  C7N        2.3780   -6.1590  -13.4570 C.2   700  NAP700      0.2818
     40  O7N        1.4180   -6.5490  -14.1360 O.2   700  NAP700     -0.2670
     41  N7N        3.7060   -6.1740  -13.8470 N.am  700  NAP700     -0.0839
     42  C4N        0.8780   -5.8490  -11.3910 C.2   700  NAP700      0.0033
     43  C5N        0.6750   -5.2710  -10.1160 C.2   700  NAP700      0.0157
     44  C6N        1.6320   -4.4260   -9.5340 C.2   700  NAP700      0.0633
     45  P2B       -0.3880    2.5950    1.1500 P.3   700  NAP700      0.5328
     46  O1X       -0.0890    3.3030   -0.1400 O.2   700  NAP700     -0.2224
     47  O2X       -1.7450    3.0750    1.9190 O.3   700  NAP700     -0.1145
     48  O3X        0.8970    2.5980    2.0560 O.3   700  NAP700     -0.1145
@<TRIPOS>BOND
     1    40    39    2
     2    41    39   am
     3    39    38    1
     4    38    37    1
     5    38    42    2
     6    37    36    1
     7    42    43    1
     8    36    35    1
     9    36    44    1
    10    43    44    2
    11    35    33    1
    12    35    30    1
    13    33    34    1
    14    33    31    1
    15    30    29    1
    16    31    32    1
    17    31    29    1
    18    29    28    1
    19    25    24    2
    20    28    27    1
    21    26    24    1
    22    27    24    1
    23    24    23    1
    24    23     1    1
    25     2     1    2
    26     1     3    1
    27     1     4    1
    28     4     5    1
    29     5     6    1
    30     9     8    1
    31     8     6    1
    32     8    10    1
    33    46    45    2
    34     6     7    1
    35    10    11    1
    36    10    12    1
    37     7    12    1
    38    11    45    1
    39    45    47    1
    40    45    48    1
    41    12    13    1
    42    14    13    1
    43    14    15    1
    44    13    22    1
    45    15    16    2
    46    22    16    1
    47    22    21    2
    48    16    17    1
    49    21    20    1
    50    17    18    1
    51    17    19    2
    52    20    19    1
