@<TRIPOS>MOLECULE
3r59_3AO_A_1.pdb
 10 10 0 0 0
SMALL
GASTEIGER

@<TRIPOS>ATOM
      1  CAA       -2.2270   15.9380   18.4800 C.3   301  3AO301      0.0773
      2  NAB        1.4620   15.5590   23.6530 N.pl3 301  3AO301     -0.1281
      3  OAC       -2.6410   14.9470   20.6170 O.2   301  3AO301     -0.2913
      4  CAD        1.8620   16.5960   20.0630 C.ar  301  3AO301      0.0015
      5  CAE        2.1630   16.3430   21.4090 C.ar  301  3AO301      0.0181
      6  CAF        0.5740   16.3340   19.5600 C.ar  301  3AO301      0.0029
      7  CAG       -0.1290   15.5590   21.7680 C.ar  301  3AO301      0.0209
      8  CAH       -1.8270   15.5210   19.8960 C.2   301  3AO301      0.1735
      9  CAI        1.1670   15.8230   22.2700 C.ar  301  3AO301      0.0892
     10  CAJ       -0.4360   15.8120   20.4080 C.ar  301  3AO301      0.0361
@<TRIPOS>BOND
     1     1     8    1
     2     6     4   ar
     3     6    10   ar
     4     8    10    1
     5     8     3    2
     6     4     5   ar
     7    10     7   ar
     8     5     9   ar
     9     7     9   ar
    10     9     2    1
