@<TRIPOS>MOLECULE
3r5a_P0A_A_1.pdb
 12 11 0 0 0
SMALL
GASTEIGER

@<TRIPOS>ATOM
      1  C          9.5910    5.6840   -5.6690 C.2   351  P0A351      0.3819
      2  N         11.6620    6.1840   -4.3710 N.3   351  P0A351     -0.1208
      3  O          9.1330    4.8490   -4.8560 O.co2 351  P0A351     -0.2441
      4  CA        10.5480    6.7680   -5.1370 C.3   351  P0A351      0.1943
      5  CB         9.7740    7.7760   -4.2400 C.3   351  P0A351      0.0306
      6  OAB        4.7590   10.2010   -3.3950 O.co2 351  P0A351     -0.2457
      7  OAD        6.2950   11.7950   -3.5400 O.co2 351  P0A351     -0.2457
      8  CAF        8.2690    9.8570   -4.2750 C.3   351  P0A351      0.0119
      9  CAG        8.8000    8.6350   -5.0610 C.3   351  P0A351      0.0026
     10  CAH        7.0400    9.5200   -3.4080 C.3   351  P0A351      0.1141
     11  CAJ        5.9420   10.5970   -3.4460 C.2   351  P0A351      0.3649
     12  OXT        9.3000    5.7540   -6.8830 O.co2 351  P0A351     -0.2441
@<TRIPOS>BOND
     1    12     1   ar
     2     1     4    1
     3     1     3   ar
     4     4     2    1
     5     4     5    1
     6     9     8    1
     7     9     5    1
     8     8    10    1
     9     7    11   ar
    10    11    10    1
    11    11     6   ar
