@<TRIPOS>MOLECULE
3r5b_NPI_A_1.pdb
 12 11 0 0 0
SMALL
GASTEIGER

@<TRIPOS>ATOM
      1  CA        10.1020    6.9880   -4.7820 C.3   381  NPI381      0.1943
      2  CB         8.9320    7.7950   -4.1820 C.3   381  NPI381      0.0306
      3  C4         8.9890    9.2890   -4.5370 C.3   381  NPI381      0.0026
      4  C5         8.0200   10.1330   -3.6800 C.3   381  NPI381      0.0119
      5  C6         6.5860    9.5970   -3.7200 C.3   381  NPI381      0.1141
      6  C          9.6250    6.4300   -6.1230 C.2   381  NPI381      0.3819
      7  O          9.9020    7.1050   -7.1460 O.co2 381  NPI381     -0.2441
      8  OXT        8.9680    5.3550   -6.0790 O.co2 381  NPI381     -0.2441
      9  N         11.3440    7.7820   -4.9760 N.3   381  NPI381     -0.1208
     10  C7         5.5670   10.7330   -3.9080 C.2   381  NPI381      0.3649
     11  O71        4.3470   10.4050   -4.0120 O.co2 381  NPI381     -0.2457
     12  O72        6.0300   11.9020   -3.9130 O.co2 381  NPI381     -0.2457
@<TRIPOS>BOND
     1     7     6   ar
     2     6     8   ar
     3     6     1    1
     4     9     1    1
     5     1     2    1
     6     3     2    1
     7     3     4    1
     8    11    10   ar
     9    12    10   ar
    10    10     5    1
    11     5     4    1
