@<TRIPOS>MOLECULE
3r5c_COA_A_1.pdb
 48 50 0 0 0
SMALL
GASTEIGER

@<TRIPOS>ATOM
      1  N1A      -55.0730   56.7860   19.5900 N.2   351  COA351      0.0021
      2  C2A      -55.8450   57.8660   19.5780 C.3   351  COA351      0.5254
      3  N3A      -55.9080   58.6490   18.5190 N.2   351  COA351     -0.0055
      4  C4A      -55.1910   58.3550   17.4200 C.2   351  COA351      0.3518
      5  C5A      -54.3780   57.2420   17.3990 C.2   351  COA351      0.2526
      6  C6A      -54.3290   56.4470   18.5250 C.2   351  COA351      0.4393
      7  N6A      -53.5600   55.3690   18.5430 N.pl3 351  COA351      0.2180
      8  N7A      -53.7880   57.1850   16.2160 N.2   351  COA351     -0.2095
      9  C8A      -54.2030   58.2270   15.5060 C.3   351  COA351      0.3377
     10  N9A      -55.0570   58.9460   16.2410 N.pl3 351  COA351     -0.1439
     11  C1B      -55.7790   60.1670   15.8170 C.3   351  COA351      0.3185
     12  C2B      -54.9750   61.3240   15.2530 C.3   351  COA351      0.2543
     13  O2B      -54.4880   62.1450   16.2910 O.3   351  COA351     -0.2131
     14  C3B      -56.0900   62.0640   14.5510 C.3   351  COA351      0.1928
     15  O3B      -56.9200   62.7140   15.5290 O.3   351  COA351     -0.2673
     16  P3B      -57.8860   63.9140   15.0480 P.3   351  COA351      0.5327
     17  O7A      -57.1960   64.8030   14.0820 O.2   351  COA351     -0.2224
     18  O8A      -59.1530   63.1530   14.4390 O.3   351  COA351     -0.1145
     19  O9A      -58.4150   64.6220   16.4110 O.3   351  COA351     -0.1145
     20  C4B      -56.9010   60.9260   13.9060 C.3   351  COA351      0.1795
     21  O4B      -56.5380   59.7320   14.6520 O.3   351  COA351     -0.3136
     22  C5B      -56.6320   60.8250   12.3610 C.3   351  COA351      0.1812
     23  O5B      -55.6340   59.8490   11.9750 O.3   351  COA351     -0.3112
     24  P1A      -54.2110   60.3430   11.3020 P.3   351  COA351      0.2189
     25  O1A      -53.0670   60.3710   12.2460 O.3   351  COA351     -0.4371
     26  O2A      -54.5320   61.8380   10.6990 O.2   351  COA351     -0.5170
     27  O3A      -53.9420   59.3990   10.0340 O.3   351  COA351     -0.2703
     28  P2A      -54.3630   57.8240    9.9770 P.3   351  COA351      0.2188
     29  O4A      -55.7830   57.5680   10.3500 O.3   351  COA351     -0.4371
     30  O5A      -54.0270   57.4530    8.4370 O.2   351  COA351     -0.5170
     31  O6A      -53.2780   56.9840   10.8430 O.3   351  COA351     -0.3138
     32  CBP      -52.7630   54.6150   11.3610 C.3   351  COA351      0.0645
     33  CCP      -53.6800   55.8180   11.5800 C.3   351  COA351      0.1519
     34  CDP      -53.1120   53.5920   12.4400 C.3   351  COA351      0.0056
     35  CEP      -53.0230   54.0160    9.9860 C.3   351  COA351      0.0056
     36  CAP      -51.2660   55.0530   11.4510 C.3   351  COA351      0.2312
     37  OAP      -51.0550   55.8650   12.6210 O.3   351  COA351     -0.2131
     38  C9P      -50.2970   53.8380   11.4400 C.2   351  COA351      0.2719
     39  O9P      -50.0060   53.2670   12.4920 O.2   351  COA351     -0.2706
     40  N8P      -49.8030   53.4880   10.2400 N.am  351  COA351     -0.2028
     41  C7P      -48.8840   52.3410   10.0610 C.3   351  COA351      0.1248
     42  C6P      -47.8740   52.4570    8.8880 C.3   351  COA351      0.1102
     43  C5P      -46.6840   51.4980    9.1410 C.2   351  COA351      0.2432
     44  O5P      -46.4220   51.1380   10.2840 O.2   351  COA351     -0.2733
     45  N4P      -45.9550   51.0510    8.1070 N.am  351  COA351     -0.2044
     46  C3P      -46.1410   51.3960    6.6920 C.3   351  COA351      0.1276
     47  C2P      -44.7640   51.3260    6.0100 C.3   351  COA351      0.0920
     48  S1P      -43.5010   52.3840    6.8310 S.3   351  COA351     -0.0802
@<TRIPOS>BOND
     1    47    46    1
     2    47    48    1
     3    46    45    1
     4    45    43   am
     5    30    28    2
     6    42    43    1
     7    42    41    1
     8    43    44    2
     9    28    27    1
    10    28    29    1
    11    28    31    1
    12    35    32    1
    13    27    24    1
    14    41    40    1
    15    40    38   am
    16    26    24    2
    17    31    33    1
    18    24    23    1
    19    24    25    1
    20    32    36    1
    21    32    33    1
    22    32    34    1
    23    38    36    1
    24    38    39    2
    25    36    37    1
    26    23    22    1
    27    22    20    1
    28    20    14    1
    29    20    21    1
    30    17    16    2
    31    18    16    1
    32    14    12    1
    33    14    15    1
    34    21    11    1
    35    16    15    1
    36    16    19    1
    37    12    11    1
    38    12    13    1
    39     9     8    1
    40     9    10    1
    41    11    10    1
    42     8     5    2
    43    10     4    1
    44     5     4    1
    45     5     6    1
    46     4     3    2
    47     3     2    1
    48     6     7    1
    49     6     1    2
    50     2     1    1
