@<TRIPOS>MOLECULE
3r5f_ATP_A_1.pdb
 31 33 0 0 0
SMALL
GASTEIGER

@<TRIPOS>ATOM
      1  PG        10.6850   16.6970   15.3690 P.3   368  ATP368      0.5373
      2  O1G       11.3800   17.9150   14.7780 O.2   368  ATP368     -0.2221
      3  O2G       11.6300   15.5160   15.5050 O.3   368  ATP368     -0.1143
      4  O3G        9.7750   16.9380   16.5800 O.3   368  ATP368     -0.1143
      5  PB         8.4900   15.2200   14.5080 P.3   368  ATP368      0.2277
      6  O1B        8.2960   15.0180   16.0030 O.3   368  ATP368     -0.4368
      7  O2B        8.5530   14.0010   13.6380 O.2   368  ATP368     -0.5168
      8  O3B        9.6630   16.2740   14.2070 O.3   368  ATP368     -0.2258
      9  PA         6.6400   17.4140   14.6470 P.3   368  ATP368      0.2189
     10  O1A        7.4670   18.0010   15.7740 O.3   368  ATP368     -0.4371
     11  O2A        5.2190   16.9470   14.8910 O.2   368  ATP368     -0.5170
     12  O3A        7.2770   16.1140   13.9190 O.3   368  ATP368     -0.2700
     13  O5'        6.7800   18.5670   13.5070 O.3   368  ATP368     -0.3112
     14  C5'        8.0250   19.2240   13.2380 C.3   368  ATP368      0.1813
     15  C4'        7.9300   20.7410   13.3520 C.3   368  ATP368      0.1821
     16  O4'        7.0290   21.2420   12.3610 O.3   368  ATP368     -0.3135
     17  C3'        7.3840   21.3020   14.6810 C.3   368  ATP368      0.2184
     18  O3'        8.3870   21.6110   15.6380 O.3   368  ATP368     -0.2174
     19  C2'        6.8200   22.6300   14.2480 C.3   368  ATP368      0.2570
     20  O2'        7.9150   23.5220   13.9800 O.3   368  ATP368     -0.2130
     21  C1'        6.2570   22.3310   12.8930 C.3   368  ATP368      0.3186
     22  N9         4.8530   21.9050   13.0420 N.pl3 368  ATP368     -0.1439
     23  C8         4.4080   20.6400   13.0900 C.3   368  ATP368      0.3377
     24  N7         3.0530   20.6430   13.1780 N.2   368  ATP368     -0.2095
     25  C5         2.6170   21.9050   13.2420 C.2   368  ATP368      0.2526
     26  C6         1.2910   22.5940   13.3610 C.2   368  ATP368      0.4393
     27  N6         0.1090   21.8820   13.4500 N.pl3 368  ATP368      0.2180
     28  N1         1.3420   23.9510   13.3740 N.2   368  ATP368      0.0021
     29  C2         2.4800   24.6730   13.2820 C.3   368  ATP368      0.5254
     30  N3         3.6970   24.1060   13.1770 N.2   368  ATP368     -0.0055
     31  C4         3.8240   22.7470   13.1510 C.2   368  ATP368      0.3518
@<TRIPOS>BOND
     1    16    21    1
     2    16    15    1
     3    21    22    1
     4    21    19    1
     5    22    23    1
     6    22    31    1
     7    23    24    1
     8    31    30    2
     9    31    25    1
    10    30    29    1
    11    24    25    2
    12    14    15    1
    13    14    13    1
    14    25    26    1
    15    29    28    1
    16    15    17    1
    17    26    28    2
    18    26    27    1
    19    13     9    1
    20     7     5    2
    21    12     5    1
    22    12     9    1
    23    20    19    1
    24     8     5    1
    25     8     1    1
    26    19    17    1
    27     5     6    1
    28     9    11    2
    29     9    10    1
    30    17    18    1
    31     2     1    2
    32     1     3    1
    33     1     4    1
