@<TRIPOS>MOLECULE
3r5h_ADP_A_1.pdb
 27 29 0 0 0
SMALL
GASTEIGER

@<TRIPOS>ATOM
      1  PB        -9.6460    6.1430   -9.3250 P.3   400  ADP400      0.5373
      2  O1B      -11.0910    5.8470   -9.6030 O.2   400  ADP400     -0.2221
      3  O2B       -9.4890    6.8610   -8.0200 O.3   400  ADP400     -0.1143
      4  O3B       -8.7190    4.9690   -9.5020 O.3   400  ADP400     -0.1143
      5  PA        -7.7940    7.6850  -10.9350 P.3   400  ADP400      0.2231
      6  O1A       -6.7690    7.0610  -10.0230 O.3   400  ADP400     -0.4370
      7  O2A       -7.8710    9.1850  -11.0610 O.2   400  ADP400     -0.5169
      8  O3A       -9.2690    7.1750  -10.5100 O.3   400  ADP400     -0.2261
      9  O5'       -7.5700    7.1120  -12.4180 O.3   400  ADP400     -0.3111
     10  C5'       -7.4740    5.7050  -12.6320 C.3   400  ADP400      0.1813
     11  C4'       -6.2580    5.3940  -13.4890 C.3   400  ADP400      0.1821
     12  O4'       -6.3750    6.0500  -14.7590 O.3   400  ADP400     -0.3135
     13  C3'       -4.9670    5.9030  -12.8680 C.3   400  ADP400      0.2184
     14  O3'       -4.3400    4.9010  -12.0660 O.3   400  ADP400     -0.2174
     15  C2'       -4.1170    6.2420  -14.0700 C.3   400  ADP400      0.2570
     16  O2'       -3.4530    5.0510  -14.5150 O.3   400  ADP400     -0.2130
     17  C1'       -5.1140    6.6160  -15.1420 C.3   400  ADP400      0.3186
     18  N9        -5.2250    8.0930  -15.2190 N.pl3 400  ADP400     -0.1439
     19  C8        -6.1280    8.8650  -14.5770 C.3   400  ADP400      0.3377
     20  N7        -5.9570   10.1770  -14.8690 N.2   400  ADP400     -0.2095
     21  C5        -4.9350   10.2600  -15.7280 C.2   400  ADP400      0.2526
     22  C6        -4.2280   11.3400  -16.4450 C.2   400  ADP400      0.4393
     23  N6        -4.5870   12.6450  -16.3120 N.pl3 400  ADP400      0.2180
     24  N1        -3.1880   10.9700  -17.2450 N.2   400  ADP400      0.0021
     25  C2        -2.7910    9.6960  -17.4040 C.3   400  ADP400      0.5254
     26  N3        -3.3970    8.6760  -16.7830 N.2   400  ADP400     -0.0055
     27  C4        -4.4480    8.8880  -15.9510 C.2   400  ADP400      0.3518
@<TRIPOS>BOND
     1    25    24    1
     2    25    26    1
     3    24    22    2
     4    26    27    2
     5    22    23    1
     6    22    21    1
     7    27    21    1
     8    27    18    1
     9    21    20    2
    10    18    17    1
    11    18    19    1
    12    17    12    1
    13    17    15    1
    14    20    19    1
    15    12    11    1
    16    16    15    1
    17    15    13    1
    18    11    13    1
    19    11    10    1
    20    13    14    1
    21    10     9    1
    22     9     5    1
    23     7     5    2
    24     5     8    1
    25     5     6    1
    26     8     1    1
    27     2     1    2
    28     4     1    1
    29     1     3    1
