@<TRIPOS>MOLECULE
3r5h_AIR_A_1.pdb
 19 20 0 0 0
SMALL
GASTEIGER

@<TRIPOS>ATOM
      1  N1       -12.0370    1.5280    2.0850 N.ar  401  AIR401     -0.2702
      2  C2       -12.5490    2.7110    2.4850 C.ar  401  AIR401      0.1814
      3  N3       -12.3600    3.6510    1.5200 N.ar  401  AIR401     -0.2208
      4  C4       -11.7130    3.0840    0.4730 C.ar  401  AIR401      0.1365
      5  C5       -11.5420    1.7790    0.8830 C.ar  401  AIR401      0.1735
      6  N6       -10.9230    0.8340    0.1270 N.pl3 401  AIR401     -0.1072
      7  C1'      -12.0240    0.2270    2.8160 C.3   401  AIR401      0.2408
      8  C2'      -12.6990    0.3880    4.1590 C.3   401  AIR401      0.2337
      9  C3'      -14.1290   -0.0460    3.8600 C.3   401  AIR401      0.2161
     10  C4'      -13.8890   -1.2240    2.9410 C.3   401  AIR401      0.1803
     11  O4'      -12.7890   -0.7840    2.1320 O.3   401  AIR401     -0.3306
     12  O2'      -12.0280   -0.5000    5.0590 O.3   401  AIR401     -0.2155
     13  O3'      -14.9120   -0.3820    5.0120 O.3   401  AIR401     -0.2175
     14  C5'      -15.1050   -1.5970    2.1110 C.3   401  AIR401      0.1859
     15  O5'      -14.9600   -2.9730    1.7620 O.3   401  AIR401     -0.2675
     16  P        -16.2200   -3.9040    1.3730 P.3   401  AIR401      0.5327
     17  O6       -16.8730   -3.1500    0.2370 O.2   401  AIR401     -0.2224
     18  O7       -17.0630   -3.9640    2.6290 O.3   401  AIR401     -0.1145
     19  O8       -15.5760   -5.2150    0.9960 O.3   401  AIR401     -0.1145
@<TRIPOS>BOND
     1     6     5    1
     2    17    16    2
     3     4     5   ar
     4     4     3   ar
     5     5     1   ar
     6    19    16    1
     7    16    15    1
     8    16    18    1
     9     3     2   ar
    10    15    14    1
    11     1     2   ar
    12     1     7    1
    13    14    10    1
    14    11     7    1
    15    11    10    1
    16     7     8    1
    17    10     9    1
    18     9     8    1
    19     9    13    1
    20     8    12    1
