@<TRIPOS>MOLECULE
3r5i_3R5_A_1.pdb
 17 18 0 0 0
SMALL
GASTEIGER

@<TRIPOS>ATOM
      1  C1        30.7220   27.0270   33.6290 C.3   144  3R5144      0.0343
      2  C2        32.1180   27.1350   33.1150 C.ar  144  3R5144      0.0151
      3  C3        32.4920   26.5060   31.8730 C.ar  144  3R5144      0.1352
      4  C4        33.8730   26.6340   31.3900 C.ar  144  3R5144      0.0397
      5  C5        34.8580   27.3850   32.1290 C.ar  144  3R5144      0.0400
      6  C6        34.4850   28.0270   33.3770 C.ar  144  3R5144      0.1386
      7  C7        33.0810   27.8950   33.8680 C.ar  144  3R5144      0.0356
      8  O8        35.4810   28.7530   34.0540 O.3   144  3R5144     -0.4714
      9  C9        35.0390   29.8340   34.9120 C.3   144  3R5144      0.2525
     10  O10       31.4480   25.8230   31.2240 O.3   144  3R5144     -0.4709
     11  C11       31.6560   25.1800   29.9510 C.3   144  3R5144      0.2335
     12  C12       30.3390   24.5840   29.5280 C.ar  144  3R5144      0.0403
     13  C13       30.2400   23.1850   29.2330 C.ar  144  3R5144      0.0982
     14  N14       28.9540   22.6770   28.8460 N.ar  144  3R5144     -0.2425
     15  C15       27.8200   23.5220   28.7500 C.ar  144  3R5144      0.0989
     16  C16       27.9060   24.8770   29.0300 C.ar  144  3R5144      0.0205
     17  C17       29.1680   25.4220   29.4240 C.ar  144  3R5144      0.0025
@<TRIPOS>BOND
     1    15    14   ar
     2    15    16   ar
     3    14    13   ar
     4    16    17   ar
     5    13    12   ar
     6    17    12   ar
     7    12    11    1
     8    11    10    1
     9    10     3    1
    10     4     3   ar
    11     4     5   ar
    12     3     2   ar
    13     5     6   ar
    14     2     1    1
    15     2     7   ar
    16     6     7   ar
    17     6     8    1
    18     8     9    1
