@<TRIPOS>MOLECULE
3r5i_HEM_A_1.pdb
 43 50 0 0 0
SMALL
GASTEIGER

@<TRIPOS>ATOM
      1  CHA       36.2780   33.1620   12.9900 C.2   143  HEM143      0.0000
      2  CHB       33.9240   34.0560   17.1290 C.2   143  HEM143      0.0000
      3  CHC       38.0390   33.6670   19.6790 C.2   143  HEM143      0.0000
      4  CHD       40.5170   33.1120   15.5090 C.2   143  HEM143      0.0000
      5  C1A       35.2660   33.4350   13.9160 C.2   143  HEM143      0.0000
      6  C2A       33.9570   33.8490   13.5730 C.2   143  HEM143      0.0000
      7  C3A       33.2670   34.0380   14.7180 C.2   143  HEM143      0.0000
      8  C4A       34.2090   33.8830   15.8040 C.2   143  HEM143      0.0000
      9  CMA       31.8070   34.4010   14.8430 C.3   143  HEM143      0.0000
     10  CAA       33.5780   34.4960   12.2800 C.3   143  HEM143      0.0000
     11  CBA       33.0810   33.4580   11.3290 C.3   143  HEM143      0.0000
     12  CGA       32.2000   34.0620   10.2440 C.2   143  HEM143      0.0000
     13  O1A       32.7400   34.7580    9.3650 O.co2 143  HEM143      0.0000
     14  O2A       30.9690   33.8460   10.2740 O.co2 143  HEM143      0.0000
     15  C1B       34.8510   34.0210   18.1940 C.ar  143  HEM143      0.0000
     16  C2B       34.4600   34.1790   19.5920 C.ar  143  HEM143      0.0000
     17  C3B       35.6050   34.0510   20.3260 C.ar  143  HEM143      0.0000
     18  C4B       36.6890   33.8190   19.3520 C.ar  143  HEM143      0.0000
     19  CMB       33.0390   34.5390   20.0540 C.3   143  HEM143      0.0000
     20  CAB       35.7530   34.0960   21.7420 C.3   143  HEM143      0.0000
     21  CBB       35.2850   35.0790   22.6640 C.3   143  HEM143      0.0000
     22  C1C       39.0740   33.4450   18.7670 C.2   143  HEM143      0.0000
     23  C2C       40.4960   33.4010   19.1210 C.2   143  HEM143      0.0000
     24  C3C       41.2010   33.2760   17.9360 C.2   143  HEM143      0.0000
     25  C4C       40.2110   33.2050   16.8580 C.2   143  HEM143      0.0000
     26  CMC       41.0600   33.4930   20.5350 C.3   143  HEM143      0.0000
     27  CAC       42.5730   33.4370   17.7150 C.3   143  HEM143      0.0000
     28  CBC       43.3620   34.4100   18.4070 C.3   143  HEM143      0.0000
     29  C1D       39.5640   33.1520   14.4570 C.ar  143  HEM143      0.0000
     30  C2D       39.8630   33.0150   13.0650 C.ar  143  HEM143      0.0000
     31  C3D       38.6890   32.9790   12.3800 C.ar  143  HEM143      0.0000
     32  C4D       37.6560   33.1020   13.3310 C.ar  143  HEM143      0.0000
     33  CMD       41.2720   32.9320   12.5490 C.3   143  HEM143      0.0000
     34  CAD       38.4860   33.0400   10.8760 C.3   143  HEM143      0.0000
     35  CBD       38.5580   34.4870   10.3660 C.3   143  HEM143      0.0000
     36  CGD       38.5760   34.5550    8.8510 C.2   143  HEM143      0.0000
     37  O1D       39.5250   34.0050    8.2610 O.co2 143  HEM143      0.0000
     38  O2D       37.6460   35.1380    8.2500 O.co2 143  HEM143      0.0000
     39  NA        35.4570   33.5400   15.3080 N.2   143  HEM143      0.0000
     40  NB        36.2180   33.7730   18.0730 N.ar  143  HEM143      0.0000
     41  NC        38.9130   33.3240   17.3810 N.2   143  HEM143      0.0000
     42  ND        38.1980   33.2350   14.6150 N.ar  143  HEM143      0.0000
     43 FE         37.1780   33.4160   16.3210 Fe    143  HEM143      0.0000
@<TRIPOS>BOND
     1    38    36   ar
     2    37    36   ar
     3    36    35    1
     4    13    12   ar
     5    12    14   ar
     6    12    11    1
     7    35    34    1
     8    34    31    1
     9    11    10    1
    10    10     6    1
    11    31    30   ar
    12    31    32   ar
    13    33    30    1
    14     1    32    2
    15     1     5    1
    16    30    29   ar
    17    32    42   ar
    18     6     5    1
    19     6     7    2
    20     5    39    2
    21    29    42   ar
    22    29     4    2
    23    42    43    1
    24     7     9    1
    25     7     8    1
    26    39     8    1
    27    39    43    1
    28     4    25    1
    29     8     2    2
    30    43    41    1
    31    43    40    1
    32    25    41    2
    33    25    24    1
    34     2    15    1
    35    41    22    1
    36    27    24    1
    37    27    28    1
    38    24    23    2
    39    40    15   ar
    40    40    18   ar
    41    15    16   ar
    42    22    23    1
    43    22     3    2
    44    23    26    1
    45    18     3    1
    46    18    17   ar
    47    16    19    1
    48    16    17   ar
    49    17    20    1
    50    20    21    1
