@<TRIPOS>MOLECULE
3r5j_III_E_1.pdb
 36 35 0 0 0
SMALL
GASTEIGER

@<TRIPOS>ATOM
      1  C        -29.6520   18.0510   31.2110 C.2   401  ACE401      0.2423
      2  O        -28.8540   18.8590   31.6830 O.2   401  ACE401     -0.2733
      3  CH3      -30.3510   18.3050   29.9040 C.3   401  ACE401      0.0964
      4  N        -30.0560   16.9640   31.8710 N.am  402  ALA402     -0.1978
      5  CA       -29.2360   16.2690   32.8580 C.3   402  ALA402      0.1728
      6  C        -28.6370   14.9760   32.3150 C.2   402  ALA402      0.2616
      7  O        -29.1640   14.3650   31.3770 O.2   402  ALA402     -0.2715
      8  CB       -30.0490   15.9780   34.1090 C.3   402  ALA402      0.0334
      9  N        -27.5390   14.5570   32.9370 N.am  403  ASP403     -0.1957
     10  CA       -26.8880   13.2950   32.6020 C.3   403  ASP403      0.1840
     11  C        -27.5560   12.0920   33.2850 C.2   403  ASP403      0.2622
     12  O        -27.8520   12.1310   34.4870 O.2   403  ASP403     -0.2715
     13  CB       -25.3930   13.3960   32.9190 C.3   403  ASP403      0.1450
     14  CG       -24.6830   14.4340   32.0410 C.2   403  ASP403      0.3671
     15  OD1      -24.8300   14.3640   30.8000 O.co2 403  ASP403     -0.2456
     16  OD2      -23.9580   15.3070   32.5670 O.co2 403  ASP403     -0.2456
     17  N        -27.8080   11.0400   32.4990 N.am  404  VAL404     -0.1963
     18  CA       -28.4000    9.7760   32.9750 C.3   404  VAL404      0.1727
     19  C        -27.5940    8.5670   32.4810 C.2   404  VAL404      0.2616
     20  O        -26.7190    8.7120   31.6230 O.2   404  VAL404     -0.2715
     21  CB       -29.8830    9.6050   32.5200 C.3   404  VAL404      0.0290
     22  CG1      -30.7830   10.6780   33.1450 C.3   404  VAL404      0.0023
     23  CG2      -30.0030    9.5860   30.9860 C.3   404  VAL404      0.0023
     24  N        -27.9120    7.3850   33.0120 N.am  405  ALA405     -0.1963
     25  CA       -27.1990    6.1420   32.6830 C.3   405  ALA405      0.1728
     26  C        -27.8710    5.3370   31.5630 C.2   405  ALA405      0.2616
     27  O        -29.0810    5.0940   31.5940 O.2   405  ALA405     -0.2715
     28  CB       -27.0380    5.2810   33.9300 C.3   405  ALA405      0.0334
     29  N        -27.0730    4.9240   30.5800 N.am  406  ASP406     -0.1971
     30  CA       -27.5420    4.0830   29.4730 C.3   406  ASP406      0.1709
     31  C        -27.8620    2.6450   29.9060 C.2   406  ASP406      0.2293
     32  O        -27.5510    1.6610   29.2130 O.2   406  ASP406     -0.2864
     33  CB       -26.5290    4.0990   28.3160 C.3   406  ASP406      0.1436
     34  CG       -27.0300    4.8820   27.1280 C.2   406  ASP406      0.3671
     35  OD1      -26.2190    5.2120   26.2370 O.co2 406  ASP406     -0.2456
     36  OD2      -28.2510    5.1560   27.0870 O.co2 406  ASP406     -0.2456
@<TRIPOS>BOND
     1    35    34   ar
     2    36    34   ar
     3    34    33    1
     4    33    30    1
     5    32    31    2
     6    30    31    1
     7    30    29    1
     8     3     1    1
     9    29    26   am
    10    15    14   ar
    11    23    21    1
    12     1     2    2
    13     1     4   am
    14     7     6    2
    15    26    27    2
    16    26    25    1
    17    20    19    2
    18     4     5    1
    19    14    16   ar
    20    14    13    1
    21     6     5    1
    22     6     9   am
    23    19    18    1
    24    19    24   am
    25    17    18    1
    26    17    11   am
    27    21    18    1
    28    21    22    1
    29    10    13    1
    30    10     9    1
    31    10    11    1
    32    25    24    1
    33    25    28    1
    34     5     8    1
    35    11    12    2
