@<TRIPOS>MOLECULE
3r5m_MLO_A_1.pdb
 20 21 0 0 0
SMALL
GASTEIGER

@<TRIPOS>ATOM
      1  CAA       13.6480   15.9580   21.3520 C.3     1  MLO1        0.0004
      2  CAB        8.1480   13.5200   15.3360 C.3     1  MLO1        0.0004
      3  OAC       16.6340   13.0950   15.4950 O.3     1  MLO1       -0.2866
      4  OAD       15.6120   15.5820   14.4830 O.3     1  MLO1       -0.2866
      5  CAE       14.5560   14.9270   21.1440 C.3     1  MLO1        0.0047
      6  CAF        9.5080   13.6920   14.8950 C.3     1  MLO1        0.0047
      7  CAG       17.4190   13.4560   17.7060 C.ar    1  MLO1        0.0417
      8  CAH       13.3620   15.1520   13.8910 C.ar    1  MLO1        0.0417
      9  CAI       17.2330   13.9680   18.9900 C.ar    1  MLO1       -0.0010
     10  CAJ       12.1040   14.6250   14.1880 C.ar    1  MLO1       -0.0010
     11  CAK       15.0530   14.8040   18.3060 C.ar    1  MLO1       -0.0010
     12  CAL       12.9440   13.9090   16.3200 C.ar    1  MLO1       -0.0010
     13  CAM       15.8410   15.2140   20.6960 C.3     1  MLO1        0.0264
     14  CAN       10.5260   13.3870   15.8030 C.3     1  MLO1        0.0264
     15  CAO       16.4250   13.6130   16.7300 C.ar    1  MLO1        0.1957
     16  CAP       14.4070   15.0580   14.8080 C.ar    1  MLO1        0.1957
     17  CAQ       16.0450   14.6430   19.2880 C.ar    1  MLO1       -0.0220
     18  CAR       11.8880   13.9950   15.4130 C.ar    1  MLO1       -0.0220
     19  CAS       15.2300   14.2980   17.0100 C.ar    1  MLO1        0.0417
     20  CAT       14.2120   14.4360   16.0430 C.ar    1  MLO1        0.0417
@<TRIPOS>BOND
     1     8    10   ar
     2     8    16   ar
     3    10    18   ar
     4     4    16    1
     5    16    20   ar
     6     6     2    1
     7     6    14    1
     8    18    14    1
     9    18    12   ar
    10     3    15    1
    11    20    12   ar
    12    20    19    1
    13    15    19   ar
    14    15     7   ar
    15    19    11   ar
    16     7     9   ar
    17    11    17   ar
    18     9    17   ar
    19    17    13    1
    20    13     5    1
    21     5     1    1
