@<TRIPOS>MOLECULE
3r5n_MLO_A_1.pdb
 20 21 0 0 0
SMALL
GASTEIGER

@<TRIPOS>ATOM
      1  CAA       58.3740   24.1550    5.8280 C.3     1  MLO1        0.0004
      2  CAB       60.7620   21.5720   -1.4050 C.3     1  MLO1        0.0004
      3  OAC       53.1630   22.1590    1.6200 O.3     1  MLO1       -0.2866
      4  OAD       53.6190   23.5760   -0.2160 O.3     1  MLO1       -0.2866
      5  CAE       57.0530   23.9580    6.2130 C.3     1  MLO1        0.0047
      6  CAF       59.6780   21.8450   -0.5770 C.3     1  MLO1        0.0047
      7  CAG       53.3650   22.8510    3.8690 C.ar    1  MLO1        0.0417
      8  CAH       55.6290   23.4570   -1.4350 C.ar    1  MLO1        0.0417
      9  CAI       54.0600   23.4940    4.8880 C.ar    1  MLO1       -0.0010
     10  CAJ       57.0160   23.3560   -1.5000 C.ar    1  MLO1       -0.0010
     11  CAK       55.8090   24.0430    3.3120 C.ar    1  MLO1       -0.0010
     12  CAL       57.1000   23.2870    0.9120 C.ar    1  MLO1       -0.0010
     13  CAM       56.0550   24.7970    5.7260 C.3     1  MLO1        0.0264
     14  CAN       59.2830   23.1630   -0.3790 C.3     1  MLO1        0.0264
     15  CAO       53.8870   22.8010    2.5750 C.ar    1  MLO1        0.1957
     16  CAP       54.9750   23.4760   -0.2030 C.ar    1  MLO1        0.1957
     17  CAQ       55.2860   24.0890    4.6080 C.ar    1  MLO1       -0.0220
     18  CAR       57.7540   23.2690   -0.3210 C.ar    1  MLO1       -0.0220
     19  CAS       55.1190   23.4030    2.2760 C.ar    1  MLO1        0.0417
     20  CAT       55.7060   23.3850    0.9940 C.ar    1  MLO1        0.0417
@<TRIPOS>BOND
     1    10     8   ar
     2    10    18   ar
     3     8    16   ar
     4     2     6    1
     5     6    14    1
     6    14    18    1
     7    18    12   ar
     8     4    16    1
     9    16    20   ar
    10    12    20   ar
    11    20    19    1
    12     3    15    1
    13    19    15   ar
    14    19    11   ar
    15    15     7   ar
    16    11    17   ar
    17     7     9   ar
    18    17     9   ar
    19    17    13    1
    20    13     5    1
    21     1     5    1
