@<TRIPOS>MOLECULE
3r5o_HEM_A_1.pdb
 43 50 0 0 0
SMALL
GASTEIGER

@<TRIPOS>ATOM
      1  CHA      -18.5100   -0.1640   28.2160 C.2   605  HEM605      0.0000
      2  CHB      -18.1360    4.6320   28.0740 C.2   605  HEM605      0.0000
      3  CHC      -16.3200    4.3250   23.7300 C.2   605  HEM605      0.0000
      4  CHD      -16.5020   -0.5340   23.8410 C.2   605  HEM605      0.0000
      5  C1A      -18.5720    1.1340   28.6110 C.2   605  HEM605      0.0000
      6  C2A      -19.0430    1.6330   29.9040 C.2   605  HEM605      0.0000
      7  C3A      -18.9540    2.9530   29.8660 C.2   605  HEM605      0.0000
      8  C4A      -18.4110    3.3250   28.5570 C.2   605  HEM605      0.0000
      9  CMA      -19.3300    3.9360   30.9990 C.3   605  HEM605      0.0000
     10  CAA      -19.5280    0.7280   31.0670 C.3   605  HEM605      0.0000
     11  CBA      -18.4090   -0.0770   31.6690 C.3   605  HEM605      0.0000
     12  CGA      -18.7880   -0.9600   32.8340 C.2   605  HEM605      0.0000
     13  O1A      -18.1040   -2.0360   33.0650 O.co2 605  HEM605      0.0000
     14  O2A      -19.7710   -0.5510   33.5450 O.co2 605  HEM605      0.0000
     15  C1B      -17.6610    5.0300   26.8530 C.ar  605  HEM605      0.0000
     16  C2B      -17.5020    6.3870   26.3360 C.ar  605  HEM605      0.0000
     17  C3B      -17.0190    6.2680   25.1060 C.ar  605  HEM605      0.0000
     18  C4B      -16.8360    4.8630   24.8450 C.ar  605  HEM605      0.0000
     19  CMB      -17.8170    7.7120   27.0640 C.3   605  HEM605      0.0000
     20  CAB      -16.6640    7.4010   24.0780 C.2   605  HEM605      0.0000
     21  CBB      -16.4780    8.7010   24.4620 C.2   605  HEM605      0.0000
     22  C1C      -16.1540    3.0000   23.3720 C.2   605  HEM605      0.0000
     23  C2C      -15.5130    2.5130   22.1480 C.2   605  HEM605      0.0000
     24  C3C      -15.5670    1.1460   22.1800 C.2   605  HEM605      0.0000
     25  C4C      -16.2440    0.7890   23.4230 C.2   605  HEM605      0.0000
     26  CMC      -14.8280    3.4150   21.0130 C.3   605  HEM605      0.0000
     27  CAC      -15.0390    0.0960   21.1530 C.2   605  HEM605      0.0000
     28  CBC      -14.3860    0.3570   20.0250 C.2   605  HEM605      0.0000
     29  C1D      -17.1400   -0.9120   25.0370 C.ar  605  HEM605      0.0000
     30  C2D      -17.5560   -2.2520   25.3590 C.ar  605  HEM605      0.0000
     31  C3D      -18.1780   -2.1420   26.6830 C.ar  605  HEM605      0.0000
     32  C4D      -18.0610   -0.7150   27.0310 C.ar  605  HEM605      0.0000
     33  CMD      -17.4600   -3.6060   24.6800 C.3   605  HEM605      0.0000
     34  CAD      -18.7850   -3.3800   27.3780 C.3   605  HEM605      0.0000
     35  CBD      -20.2780   -3.5110   26.9400 C.3   605  HEM605      0.0000
     36  CGD      -20.9740   -4.5440   27.7110 C.2   605  HEM605      0.0000
     37  O1D      -21.4440   -4.1890   28.8000 O.co2 605  HEM605      0.0000
     38  O2D      -21.0130   -5.7220   27.2660 O.co2 605  HEM605      0.0000
     39  NA       -18.1880    2.1750   27.8100 N.2   605  HEM605      0.0000
     40  NB       -17.2370    4.1380   25.9140 N.ar  605  HEM605      0.0000
     41  NC       -16.5940    1.9300   24.1420 N.2   605  HEM605      0.0000
     42  ND       -17.4620   -0.0460   26.0660 N.ar  605  HEM605      0.0000
     43 FE        -17.1050    1.9370   26.0750 Fe    605  HEM605      0.0000
@<TRIPOS>BOND
     1    28    27    2
     2    26    23    1
     3    27    24    1
     4    23    24    2
     5    23    22    1
     6    24    25    1
     7    22     3    2
     8    22    41    1
     9    25     4    1
    10    25    41    2
    11     3    18    1
    12     4    29    2
    13    20    21    2
    14    20    17    1
    15    41    43    1
    16    33    30    1
    17    18    17   ar
    18    18    40   ar
    19    29    30   ar
    20    29    42   ar
    21    17    16   ar
    22    30    31   ar
    23    40    43    1
    24    40    15   ar
    25    42    43    1
    26    42    32   ar
    27    43    39    1
    28    16    15   ar
    29    16    19    1
    30    31    32   ar
    31    31    34    1
    32    15     2    1
    33    35    34    1
    34    35    36    1
    35    32     1    2
    36    38    36   ar
    37    36    37   ar
    38    39     8    1
    39    39     5    2
    40     2     8    2
    41     1     5    1
    42     8     7    1
    43     5     6    1
    44     7     6    2
    45     7     9    1
    46     6    10    1
    47    10    11    1
    48    11    12    1
    49    12    13   ar
    50    12    14   ar
