@<TRIPOS>MOLECULE
3r5o_EUG_A_1.pdb
 11 11 0 0 0
SMALL
GASTEIGER

@<TRIPOS>ATOM
      1  C1       -24.5190    4.1000   29.6440 C.ar  597  EUG597      0.0032
      2  C2       -23.8260    2.9600   30.1030 C.ar  597  EUG597      0.0402
      3  C3       -22.7450    2.4800   29.3310 C.ar  597  EUG597      0.1774
      4  C4       -22.3480    3.1800   28.0460 C.ar  597  EUG597      0.2293
      5  C5       -23.0020    4.2300   27.6460 C.ar  597  EUG597      0.0452
      6  C6       -24.0640    4.6640   28.4440 C.ar  597  EUG597      0.0035
      7  C7       -25.6760    4.7120   30.3170 C.2   597  EUG597      0.0001
      8  C8       -26.7250    5.2130   29.6400 C.2   597  EUG597      0.0000
      9  C9       -22.3490    0.0030   29.2450 C.3   597  EUG597      0.2526
     10  O3       -22.0050    1.3300   29.7260 O.3   597  EUG597     -0.4682
     11  O4       -21.2670    2.7140   27.2530 O.3   597  EUG597     -0.2833
@<TRIPOS>BOND
     1    11     4    1
     2     5     4   ar
     3     5     6   ar
     4     4     3   ar
     5     6     1   ar
     6     9    10    1
     7     3    10    1
     8     3     2   ar
     9     8     7    2
    10     1     2   ar
    11     1     7    1
