@<TRIPOS>MOLECULE
3r5q_HEM_A_1.pdb
 43 50 0 0 0
SMALL
GASTEIGER

@<TRIPOS>ATOM
      1  CHA        8.5900   -0.0590   28.4640 C.2   605  HEM605      0.0000
      2  CHB        9.0000    4.8190   28.2830 C.2   605  HEM605      0.0000
      3  CHC       10.8180    4.3730   23.7160 C.2   605  HEM605      0.0000
      4  CHD       10.6130   -0.5440   23.9660 C.2   605  HEM605      0.0000
      5  C1A        8.5860    1.2470   28.7750 C.2   605  HEM605      0.0000
      6  C2A        8.0870    1.7880   30.1490 C.2   605  HEM605      0.0000
      7  C3A        8.2150    3.0860   30.0720 C.2   605  HEM605      0.0000
      8  C4A        8.7520    3.5280   28.7350 C.2   605  HEM605      0.0000
      9  CMA        7.8600    4.0220   31.2060 C.3   605  HEM605      0.0000
     10  CAA        7.5890    0.8680   31.2570 C.3   605  HEM605      0.0000
     11  CBA        8.7510    0.2750   32.0390 C.3   605  HEM605      0.0000
     12  CGA        8.2070   -0.6410   33.0860 C.2   605  HEM605      0.0000
     13  O1A        7.2560   -0.3200   33.8160 O.co2 605  HEM605      0.0000
     14  O2A        8.8480   -1.7930   33.1590 O.co2 605  HEM605      0.0000
     15  C1B        9.5260    5.1370   26.9400 C.ar  605  HEM605      0.0000
     16  C2B        9.7860    6.4660   26.4000 C.ar  605  HEM605      0.0000
     17  C3B       10.2880    6.2960   25.1040 C.ar  605  HEM605      0.0000
     18  C4B       10.3410    4.8940   24.8790 C.ar  605  HEM605      0.0000
     19  CMB        9.5370    7.8180   27.1530 C.3   605  HEM605      0.0000
     20  CAB       10.7370    7.3650   24.0300 C.3   605  HEM605      0.0000
     21  CBB       10.7710    8.7300   24.2940 C.3   605  HEM605      0.0000
     22  C1C       10.9290    3.0580   23.4670 C.2   605  HEM605      0.0000
     23  C2C       11.5130    2.5280   22.2840 C.2   605  HEM605      0.0000
     24  C3C       11.4840    1.1760   22.3190 C.2   605  HEM605      0.0000
     25  C4C       10.8420    0.7470   23.5570 C.2   605  HEM605      0.0000
     26  CMC       12.0970    3.5590   21.1630 C.3   605  HEM605      0.0000
     27  CAC       11.9740    0.1040   21.3260 C.3   605  HEM605      0.0000
     28  CBC       12.6110    0.3380   20.1100 C.3   605  HEM605      0.0000
     29  C1D        9.9510   -0.8090   25.2160 C.ar  605  HEM605      0.0000
     30  C2D        9.4810   -2.1380   25.6230 C.ar  605  HEM605      0.0000
     31  C3D        8.8630   -1.9770   26.9690 C.ar  605  HEM605      0.0000
     32  C4D        9.0380   -0.5990   27.2990 C.ar  605  HEM605      0.0000
     33  CMD        9.5110   -3.5080   24.9380 C.3   605  HEM605      0.0000
     34  CAD        8.2170   -3.1210   27.7790 C.3   605  HEM605      0.0000
     35  CBD        6.7500   -3.0730   27.2500 C.3   605  HEM605      0.0000
     36  CGD        5.9220   -4.2110   27.9680 C.2   605  HEM605      0.0000
     37  O1D        5.9400   -5.3630   27.3440 O.co2 605  HEM605      0.0000
     38  O2D        5.2710   -3.9770   29.0700 O.co2 605  HEM605      0.0000
     39  NA         8.9360    2.3490   28.0820 N.2   605  HEM605      0.0000
     40  NB         9.8840    4.2440   25.9800 N.ar  605  HEM605      0.0000
     41  NC        10.5290    1.9490   24.2280 N.2   605  HEM605      0.0000
     42  ND         9.6600    0.1070   26.2520 N.ar  605  HEM605      0.0000
     43 FE          9.8680    2.1430   26.2670 Fe    605  HEM605      0.0000
@<TRIPOS>BOND
     1    28    27    1
     2    26    23    1
     3    27    24    1
     4    23    24    2
     5    23    22    1
     6    24    25    1
     7    22     3    2
     8    22    41    1
     9    25     4    1
    10    25    41    2
    11     3    18    1
    12     4    29    2
    13    20    21    1
    14    20    17    1
    15    41    43    1
    16    18    17   ar
    17    18    40   ar
    18    33    30    1
    19    17    16   ar
    20    29    30   ar
    21    29    42   ar
    22    30    31   ar
    23    40    43    1
    24    40    15   ar
    25    42    43    1
    26    42    32   ar
    27    43    39    1
    28    16    15   ar
    29    16    19    1
    30    15     2    1
    31    31    32   ar
    32    31    34    1
    33    35    34    1
    34    35    36    1
    35    32     1    2
    36    37    36   ar
    37    36    38   ar
    38    39     8    1
    39    39     5    2
    40     2     8    2
    41     1     5    1
    42     8     7    1
    43     5     6    1
    44     7     6    2
    45     7     9    1
    46     6    10    1
    47    10    11    1
    48    11    12    1
    49    12    14   ar
    50    12    13   ar
