@<TRIPOS>MOLECULE
3r5x_ATP_A_1.pdb
 31 33 0 0 0
SMALL
GASTEIGER

@<TRIPOS>ATOM
      1  PG        84.6590   78.1810   -8.5370 P.3   311  ATP311      0.5373
      2  O1G       85.3400   77.6010   -7.3290 O.3   311  ATP311     -0.1143
      3  O2G       83.8090   79.3840   -8.1970 O.3   311  ATP311     -0.1143
      4  O3G       83.9560   77.1640   -9.4190 O.2   311  ATP311     -0.2221
      5  PB        86.5050   78.0610  -10.7730 P.3   311  ATP311      0.2277
      6  O1B       85.6960   78.5570  -11.9530 O.2   311  ATP311     -0.5168
      7  O2B       86.6850   76.5520  -10.5570 O.3   311  ATP311     -0.4368
      8  O3B       85.8790   78.7610   -9.4450 O.3   311  ATP311     -0.2258
      9  PA        89.3410   78.0470  -11.1990 P.3   311  ATP311      0.2189
     10  O1A       90.4440   78.8900  -10.5960 O.3   311  ATP311     -0.4371
     11  O2A       89.2440   76.6130  -10.6910 O.2   311  ATP311     -0.5170
     12  O3A       87.9340   78.8020  -10.9490 O.3   311  ATP311     -0.2700
     13  O5'       89.6300   78.0000  -12.7970 O.3   311  ATP311     -0.3112
     14  C5'       88.8510   77.1850  -13.6760 C.3   311  ATP311      0.1813
     15  C4'       89.7140   76.3820  -14.6550 C.3   311  ATP311      0.1821
     16  O4'       90.5380   77.2300  -15.4630 O.3   311  ATP311     -0.3135
     17  C3'       90.6740   75.4070  -13.9850 C.3   311  ATP311      0.2184
     18  O3'       90.0330   74.1590  -13.7400 O.3   311  ATP311     -0.2174
     19  C2'       91.7920   75.2700  -14.9980 C.3   311  ATP311      0.2570
     20  O2'       91.4060   74.3130  -15.9860 O.3   311  ATP311     -0.2130
     21  C1'       91.8150   76.6140  -15.6920 C.3   311  ATP311      0.3186
     22  N9        92.8210   77.4800  -15.0340 N.pl3 311  ATP311     -0.1439
     23  C8        92.5530   78.2190  -13.9350 C.3   311  ATP311      0.3377
     24  N7        93.6350   78.9200  -13.5400 N.2   311  ATP311     -0.2095
     25  C5        94.6310   78.6280  -14.3910 C.2   311  ATP311      0.2526
     26  C6        96.0340   79.0610  -14.5010 C.2   311  ATP311      0.4393
     27  N6        96.5650   79.9530  -13.6070 N.pl3 311  ATP311      0.2180
     28  N1        96.7330   78.5310  -15.5120 N.2   311  ATP311      0.0021
     29  C2        96.1840   77.6600  -16.4010 C.3   311  ATP311      0.5254
     30  N3        94.9150   77.2210  -16.3590 N.2   311  ATP311     -0.0055
     31  C4        94.0960   77.6720  -15.3790 C.2   311  ATP311      0.3518
@<TRIPOS>BOND
     1    29    30    1
     2    29    28    1
     3    30    31    2
     4    20    19    1
     5    21    16    1
     6    21    22    1
     7    21    19    1
     8    28    26    2
     9    16    15    1
    10    31    22    1
    11    31    25    1
    12    22    23    1
    13    19    17    1
    14    15    17    1
    15    15    14    1
    16    26    25    1
    17    26    27    1
    18    25    24    2
    19    17    18    1
    20    23    24    1
    21    14    13    1
    22    13     9    1
    23     6     5    2
    24     9    12    1
    25     9    11    2
    26     9    10    1
    27    12     5    1
    28     5     7    1
    29     5     8    1
    30     8     1    1
    31     4     1    2
    32     1     3    1
    33     1     2    1
