@<TRIPOS>MOLECULE
3r6c_17N_A_1.pdb
 25 28 0 0 0
SMALL
GASTEIGER

@<TRIPOS>ATOM
      1  CAA       10.3760   -6.1330   24.6970 C.3   404  17N404      0.2525
      2  OAB        2.6230   -4.8880   30.0280 O.co2 404  17N404     -0.2406
      3  OAC        4.1220   -4.1620   27.6140 O.co2 404  17N404     -0.2406
      4  OAD        2.8150   -6.6300   28.6580 O.co2 404  17N404     -0.2406
      5  OAE        4.3780   -5.9230   25.9140 O.co2 404  17N404     -0.2406
      6  CAF       10.5520   -7.1870   28.7120 C.ar  404  17N404      0.0031
      7  CAG       10.5110   -6.7710   27.3790 C.ar  404  17N404      0.0369
      8  CAH        9.4060   -7.1530   29.5060 C.ar  404  17N404      0.0003
      9  CAI        4.7010   -6.6210   31.2930 C.ar  404  17N404      0.0468
     10  CAJ        6.9980   -5.8390   27.0790 C.ar  404  17N404      0.0096
     11  CAK        7.5680   -7.2840   33.2050 C.3   404  17N404      0.4294
     12  OAL        9.2160   -5.8790   25.5240 O.3   404  17N404     -0.4714
     13  OAM        6.1660   -7.5030   33.0910 O.3   404  17N404     -0.4346
     14  OAN        8.0440   -7.5620   31.8670 O.3   404  17N404     -0.4346
     15  CAO        3.2760   -5.8030   29.4990 C.2   404  17N404      0.3879
     16  CAP        5.8870   -7.0600   31.8450 C.ar  404  17N404      0.1766
     17  CAQ        9.3170   -6.3130   26.8290 C.ar  404  17N404      0.1386
     18  CAR        4.6620   -6.1910   29.9830 C.ar  404  17N404      0.0832
     19  CAS        5.8260   -5.8060   27.8130 C.ar  404  17N404      0.0802
     20  CAT        7.0390   -7.0930   31.0760 C.ar  404  17N404      0.1763
     21  CAU        8.1780   -6.2880   27.6360 C.ar  404  17N404      0.0343
     22  CAV        8.1990   -6.7000   28.9710 C.ar  404  17N404      0.0059
     23  CAW        5.8130   -6.2150   29.1690 C.ar  404  17N404      0.0159
     24  CAX        7.0200   -6.6620   29.7410 C.ar  404  17N404      0.0377
     25  CAY        4.7720   -5.3390   27.1420 C.2   404  17N404      0.3878
@<TRIPOS>BOND
     1     1    12    1
     2    12    17    1
     3     5    25   ar
     4    17     7   ar
     5    17    21   ar
     6    10    21   ar
     7    10    19   ar
     8    25     3   ar
     9    25    19    1
    10     7     6   ar
    11    21    22   ar
    12    19    23   ar
    13     4    15   ar
    14     6     8   ar
    15    22     8   ar
    16    22    24   ar
    17    23    24   ar
    18    23    18   ar
    19    15    18    1
    20    15     2   ar
    21    24    20   ar
    22    18     9   ar
    23    20    16   ar
    24    20    14    1
    25     9    16   ar
    26    16    13    1
    27    14    11    1
    28    13    11    1
