@<TRIPOS>MOLECULE
3r6c_PRP_A_1.pdb
 22 22 0 0 0
SMALL
GASTEIGER

@<TRIPOS>ATOM
      1  C1         1.8220    2.2450   31.6510 C.3   401  PRP401      0.2742
      2  C2         2.5070    1.5150   30.4970 C.3   401  PRP401      0.2408
      3  C3         2.8230    2.6590   29.5180 C.3   401  PRP401      0.2167
      4  C4         1.7560    3.7150   29.8480 C.3   401  PRP401      0.1808
      5  C5         0.7310    3.7580   28.7130 C.3   401  PRP401      0.1859
      6  O1         2.8820    2.8960   32.2970 O.3   401  PRP401     -0.2857
      7  O2         3.7090    0.8770   30.9400 O.3   401  PRP401     -0.2149
      8  O3         4.1250    3.2080   29.7600 O.3   401  PRP401     -0.2175
      9  O4         1.0140    3.2140   30.9770 O.3   401  PRP401     -0.3255
     10  O5         0.3600    2.4300   28.3620 O.3   401  PRP401     -0.2675
     11  P         -0.5040    2.1880   27.0360 P.3   401  PRP401      0.5327
     12  O1P        0.4240    2.5120   25.7850 O.2   401  PRP401     -0.2224
     13  O2P       -0.7870    0.6110   27.0020 O.3   401  PRP401     -0.1145
     14  O3P       -1.7770    2.9620   27.0300 O.3   401  PRP401     -0.1145
     15  PA         2.8470    3.7810   33.6590 P.3   401  PRP401      0.2249
     16  O1A        1.5370    3.6560   34.4640 O.3   401  PRP401     -0.4370
     17  O2A        4.0460    3.3710   34.4460 O.2   401  PRP401     -0.5169
     18  O3A        2.8300    5.2880   33.5900 O.3   401  PRP401     -0.2260
     19  PB         2.5730    6.5650   32.6800 P.3   401  PRP401      0.5373
     20  O1B        1.4610    6.9880   31.5920 O.2   401  PRP401     -0.2221
     21  O2B        3.0940    7.7060   33.6280 O.3   401  PRP401     -0.1143
     22  O3B        1.3150    6.6080   33.4800 O.3   401  PRP401     -0.1143
@<TRIPOS>BOND
     1    12    11    2
     2    13    11    1
     3    14    11    1
     4    11    10    1
     5    10     5    1
     6     5     4    1
     7     3     8    1
     8     3     4    1
     9     3     2    1
    10     4     9    1
    11     2     7    1
    12     2     1    1
    13     9     1    1
    14    20    19    2
    15     1     6    1
    16     6    15    1
    17    19    22    1
    18    19    18    1
    19    19    21    1
    20    18    15    1
    21    15    17    2
    22    15    16    1
