@<TRIPOS>MOLECULE
3r6g_III_E_1.pdb
 38 37 0 0 0
SMALL
GASTEIGER

@<TRIPOS>ATOM
      1  C        -13.2770   -6.3160   42.7570 C.2   401  ACE401      0.2423
      2  O        -12.6340   -7.0220   43.5370 O.2   401  ACE401     -0.2733
      3  CH3      -13.8290   -4.9800   43.1880 C.3   401  ACE401      0.0964
      4  N        -13.7050   -6.7720   41.5800 N.am  402  VAL402     -0.1978
      5  CA       -13.0180   -7.8550   40.8730 C.3   402  VAL402      0.1726
      6  C        -12.4230   -7.4290   39.5220 C.2   402  VAL402      0.2616
      7  O        -12.8720   -6.4580   38.9150 O.2   402  VAL402     -0.2715
      8  CB       -13.9300   -9.0960   40.6700 C.3   402  VAL402      0.0290
      9  CG1      -14.5220   -9.5700   42.0260 C.3   402  VAL402      0.0023
     10  CG2      -15.0140   -8.8380   39.6260 C.3   402  VAL402      0.0023
     11  N        -11.4340   -8.2000   39.0680 N.am  403  ASP403     -0.1957
     12  CA       -10.7450   -7.9630   37.7970 C.3   403  ASP403      0.1840
     13  C        -11.4420   -8.6030   36.5890 C.2   403  ASP403      0.2622
     14  O        -11.7840   -9.7870   36.6230 O.2   403  ASP403     -0.2715
     15  CB        -9.2900   -8.3880   37.9470 C.3   403  ASP403      0.1450
     16  CG        -8.5230   -7.4380   38.8240 C.2   403  ASP403      0.3671
     17  OD1       -8.8210   -6.2350   38.6890 O.co2 403  ASP403     -0.2456
     18  OD2       -7.6400   -7.8430   39.6340 O.co2 403  ASP403     -0.2456
     19  N        -11.6880   -7.8250   35.5430 N.am  404  VAL404     -0.1963
     20  CA       -12.2980   -8.3430   34.2960 C.3   404  VAL404      0.1727
     21  C        -11.5600   -7.8390   33.0520 C.2   404  VAL404      0.2616
     22  O        -10.7530   -6.9090   33.1410 O.2   404  VAL404     -0.2715
     23  CB       -13.8230   -7.9960   34.1620 C.3   404  VAL404      0.0290
     24  CG1      -14.6360   -8.4880   35.3870 C.3   404  VAL404      0.0023
     25  CG2      -14.0580   -6.4960   33.8830 C.3   404  VAL404      0.0023
     26  N        -11.8570   -8.4410   31.9010 N.am  405  ALA405     -0.1963
     27  CA       -11.2070   -8.1140   30.6100 C.3   405  ALA405      0.1728
     28  C        -11.8300   -6.9550   29.8180 C.2   405  ALA405      0.2616
     29  O        -13.0450   -6.9190   29.6210 O.2   405  ALA405     -0.2715
     30  CB       -11.1700   -9.3590   29.7110 C.3   405  ALA405      0.0334
     31  N        -10.9840   -6.0520   29.3130 N.am  406  ASP406     -0.1971
     32  CA       -11.4130   -5.0080   28.3720 C.3   406  ASP406      0.1709
     33  C        -11.6080   -5.5140   26.9430 C.2   406  ASP406      0.2293
     34  O        -11.5000   -4.7610   25.9630 O.2   406  ASP406     -0.2864
     35  CB       -10.4380   -3.8240   28.3840 C.3   406  ASP406      0.1436
     36  CG       -10.9660   -2.6570   29.1980 C.2   406  ASP406      0.3671
     37  OD1      -10.1440   -1.8150   29.6120 O.co2 406  ASP406     -0.2456
     38  OD2      -12.2060   -2.6150   29.4200 O.co2 406  ASP406     -0.2456
@<TRIPOS>BOND
     1    34    33    2
     2    33    32    1
     3    32    35    1
     4    32    31    1
     5    35    36    1
     6    36    38   ar
     7    36    37   ar
     8    31    28   am
     9    29    28    2
    10    30    27    1
    11    28    27    1
    12    27    26    1
    13    26    21   am
    14    21    22    2
    15    21    20    1
    16    25    23    1
    17    23    20    1
    18    23    24    1
    19    20    19    1
    20    19    13   am
    21    13    14    2
    22    13    12    1
    23    12    15    1
    24    12    11    1
    25    15    16    1
    26    17    16   ar
    27    16    18   ar
    28     7     6    2
    29    11     6   am
    30     6     5    1
    31    10     8    1
    32     8     5    1
    33     8     9    1
    34     5     4    1
    35     4     1   am
    36     1     3    1
    37     1     2    2
