@<TRIPOS>MOLECULE
3r6i_JMS_A_1.pdb
 19 20 0 0 0
SMALL
GASTEIGER

@<TRIPOS>ATOM
      1  OXT        0.2280   -2.6140  -11.6490 O.co2 332  JMS332     -0.2405
      2  C7        -0.0910   -3.1820  -12.7100 C.2   332  JMS332      0.3890
      3  OH         0.7260   -3.4230  -13.5890 O.co2 332  JMS332     -0.2405
      4  C1        -1.5680   -3.4330  -12.9170 C.ar  332  JMS332      0.0950
      5  C6        -2.4420   -2.4550  -12.3740 C.ar  332  JMS332      0.0079
      6  C5        -3.8540   -2.6110  -12.4710 C.ar  332  JMS332      0.0003
      7  C4        -4.3540   -3.7660  -13.1240 C.ar  332  JMS332      0.0013
      8  C3        -3.4740   -4.7550  -13.6390 C.ar  332  JMS332      0.0167
      9  C2        -2.0540   -4.5820  -13.5680 C.ar  332  JMS332      0.0769
     10  N         -1.2210   -5.5600  -14.0460 N.pl3 332  JMS332     -0.2106
     11  C1B       -1.5910   -6.7950  -14.5870 C.ar  332  JMS332      0.0912
     12  C2B       -1.9850   -7.9470  -13.8880 C.ar  332  JMS332      0.0697
     13 CL1        -2.1040   -7.7460  -12.1740 Cl    332  JMS332     -0.0812
     14  C3B       -2.2820   -9.1340  -14.6310 C.ar  332  JMS332     -0.0099
     15  C7B       -2.7430  -10.4830  -14.1360 C.3   332  JMS332      0.0320
     16  C4B       -2.1870   -9.2120  -15.9940 C.ar  332  JMS332     -0.0025
     17  C5B       -1.8280   -8.1210  -16.6930 C.ar  332  JMS332      0.0124
     18  C6B       -1.4990   -6.9870  -15.9530 C.ar  332  JMS332      0.0737
     19 CL2        -1.0720   -5.7050  -16.9030 Cl    332  JMS332     -0.0809
@<TRIPOS>BOND
     1    19    18    1
     2    17    16   ar
     3    17    18   ar
     4    16    14   ar
     5    18    11   ar
     6    14    15    1
     7    14    12   ar
     8    11    10    1
     9    11    12   ar
    10    10     9    1
    11    12    13    1
    12     8     9   ar
    13     8     7   ar
    14     3     2   ar
    15     9     4   ar
    16     7     6   ar
    17     4     2    1
    18     4     5   ar
    19     2     1   ar
    20     6     5   ar
