@<TRIPOS>MOLECULE
3r6i_NAP_A_1.pdb
 48 52 0 0 0
SMALL
GASTEIGER

@<TRIPOS>ATOM
      1  PA         1.6920   -3.7460   -2.9040 P.3   700  NAP700      0.2189
      2  O1A        3.1620   -3.5950   -2.9510 O.2   700  NAP700     -0.5170
      3  O2A        1.1450   -5.1670   -2.7340 O.3   700  NAP700     -0.4371
      4  O5B        0.9620   -2.8960   -1.6980 O.3   700  NAP700     -0.3112
      5  C5B       -0.3810   -3.0890   -1.3850 C.3   700  NAP700      0.1813
      6  C4B       -0.8000   -2.0390   -0.2720 C.3   700  NAP700      0.1820
      7  O4B        0.1970   -2.2020    0.7340 O.3   700  NAP700     -0.3136
      8  C3B       -0.4470   -0.6790   -0.7870 C.3   700  NAP700      0.2157
      9  O3B       -1.5700   -0.1580   -1.4180 O.3   700  NAP700     -0.2175
     10  C2B       -0.0500    0.1210    0.4710 C.3   700  NAP700      0.2314
     11  O2B       -1.0700    1.0570    0.9100 O.3   700  NAP700     -0.2630
     12  C1B        0.1020   -0.9370    1.4680 C.3   700  NAP700      0.3158
     13  N9A        1.4240   -0.8030    2.2110 N.pl3 700  NAP700     -0.1439
     14  C8A        2.6480   -0.4720    1.7280 C.3   700  NAP700      0.3377
     15  N7A        3.5430   -0.5430    2.6970 N.2   700  NAP700     -0.2095
     16  C5A        2.8940   -0.9170    3.8010 C.2   700  NAP700      0.2526
     17  C6A        3.2870   -1.0430    5.1290 C.2   700  NAP700      0.4393
     18  N6A        4.5850   -0.8680    5.4950 N.pl3 700  NAP700      0.2180
     19  N1A        2.3490   -1.3980    6.0180 N.2   700  NAP700      0.0021
     20  C2A        1.0300   -1.6030    5.6750 C.3   700  NAP700      0.5254
     21  N3A        0.6000   -1.4330    4.4360 N.2   700  NAP700     -0.0055
     22  C4A        1.5240   -1.0730    3.4960 C.2   700  NAP700      0.3518
     23  O3         0.9310   -3.1660   -4.2400 O.3   700  NAP700     -0.2703
     24  PN         0.7930   -3.4790   -5.7940 P.3   700  NAP700      0.2189
     25  O1N        0.4620   -2.1450   -6.3190 O.2   700  NAP700     -0.5170
     26  O2N       -0.0920   -4.6890   -6.0110 O.3   700  NAP700     -0.4371
     27  O5D        2.2910   -3.9630   -6.1770 O.3   700  NAP700     -0.3112
     28  C5D        3.4220   -2.9470   -6.1350 C.3   700  NAP700      0.1813
     29  C4D        3.8930   -2.4930   -7.4900 C.3   700  NAP700      0.1799
     30  O4D        4.1030   -3.6510   -8.2970 O.3   700  NAP700     -0.3327
     31  C3D        2.7910   -1.7540   -8.2960 C.3   700  NAP700      0.2158
     32  O3D        2.6200   -0.4360   -7.6970 O.3   700  NAP700     -0.2175
     33  C2D        3.4380   -1.7430   -9.6700 C.3   700  NAP700      0.2309
     34  O2D        4.6030   -0.8970   -9.6200 O.3   700  NAP700     -0.2158
     35  C1D        3.9400   -3.2430   -9.7260 C.3   700  NAP700      0.2263
     36  N1N        2.8640   -4.1460  -10.2060 N.pl3 700  NAP700     -0.2787
     37  C2N        3.0720   -4.6570  -11.4780 C.3   700  NAP700      0.1244
     38  C3N        2.1090   -5.5380  -12.0220 C.2   700  NAP700      0.0544
     39  C7N        2.3850   -6.1320  -13.4030 C.2   700  NAP700      0.2818
     40  O7N        1.4510   -6.5560  -14.1160 O.2   700  NAP700     -0.2670
     41  N7N        3.7190   -6.3170  -13.6970 N.am  700  NAP700     -0.0839
     42  C4N        0.9440   -5.8230  -11.3000 C.2   700  NAP700      0.0033
     43  C5N        0.7530   -5.2800   -9.9880 C.2   700  NAP700      0.0157
     44  C6N        1.7110   -4.4150   -9.4380 C.2   700  NAP700      0.0633
     45  P2B       -0.5890    2.6720    1.1200 P.3   700  NAP700      0.5328
     46  O1X       -0.3050    3.2450   -0.2440 O.2   700  NAP700     -0.2224
     47  O2X       -1.7970    3.2690    1.8760 O.3   700  NAP700     -0.1145
     48  O3X        0.6570    2.5590    2.0410 O.3   700  NAP700     -0.1145
@<TRIPOS>BOND
     1    40    39    2
     2    41    39   am
     3    39    38    1
     4    38    37    1
     5    38    42    2
     6    37    36    1
     7    42    43    1
     8    36    35    1
     9    36    44    1
    10    43    44    2
    11    35    33    1
    12    35    30    1
    13    33    34    1
    14    33    31    1
    15    30    29    1
    16    31    32    1
    17    31    29    1
    18    29    28    1
    19    25    24    2
    20    27    28    1
    21    27    24    1
    22    26    24    1
    23    24    23    1
    24    23     1    1
    25     2     1    2
    26     1     3    1
    27     1     4    1
    28     4     5    1
    29     9     8    1
    30     5     6    1
    31     8     6    1
    32     8    10    1
    33     6     7    1
    34    46    45    2
    35    10    11    1
    36    10    12    1
    37     7    12    1
    38    11    45    1
    39    45    47    1
    40    45    48    1
    41    12    13    1
    42    14    13    1
    43    14    15    1
    44    13    22    1
    45    15    16    2
    46    22    16    1
    47    22    21    2
    48    16    17    1
    49    21    20    1
    50    17    18    1
    51    17    19    2
    52    20    19    1
