@<TRIPOS>MOLECULE
3r6k_FUC_A_1.pdb
 10 10 0 0 0
SMALL
GASTEIGER

@<TRIPOS>ATOM
      1  C1         2.4170  -52.1860  -34.0770 C.3     1  FUC1        0.1776
      2  C2         3.7530  -51.9440  -33.3780 C.3     1  FUC1        0.2141
      3  C3         4.9190  -52.3480  -34.2690 C.3     1  FUC1        0.2172
      4  C4         4.8030  -51.6670  -35.6230 C.3     1  FUC1        0.2116
      5  C5         3.4130  -51.8740  -36.2100 C.3     1  FUC1        0.1483
      6  C6         3.2610  -51.1000  -37.5120 C.3     1  FUC1        0.0349
      7  O2         3.8070  -52.7110  -32.1930 O.3     1  FUC1       -0.2176
      8  O3         6.1420  -51.9590  -33.6750 O.3     1  FUC1       -0.2175
      9  O4         5.0820  -50.2930  -35.4860 O.3     1  FUC1       -0.2177
     10  O5         2.4070  -51.4620  -35.2960 O.3     1  FUC1       -0.3508
@<TRIPOS>BOND
     1     6     5    1
     2     5     4    1
     3     5    10    1
     4     4     9    1
     5     4     3    1
     6    10     1    1
     7     3     8    1
     8     3     2    1
     9     1     2    1
    10     2     7    1
