@<TRIPOS>MOLECULE
3r6l_III_E_1.pdb
 38 37 0 0 0
SMALL
GASTEIGER

@<TRIPOS>ATOM
      1  C        -29.4310   18.1440   31.1940 C.2   401  ACE401      0.2423
      2  O        -28.3040   18.5440   31.4950 O.2   401  ACE401     -0.2733
      3  CH3      -30.1150   18.5760   29.9230 C.3   401  ACE401      0.0964
      4  N        -30.0240   17.1540   31.8670 N.am  402  VAL402     -0.1978
      5  CA       -29.2720   16.3970   32.8590 C.3   402  VAL402      0.1726
      6  C        -28.7280   15.0760   32.3160 C.2   402  VAL402      0.2616
      7  O        -29.3070   14.4550   31.4150 O.2   402  VAL402     -0.2715
      8  CB       -30.0670   16.1840   34.1890 C.3   402  VAL402      0.0290
      9  CG1      -30.6400   17.5190   34.6790 C.3   402  VAL402      0.0023
     10  CG2      -31.1660   15.1360   34.0350 C.3   402  VAL402      0.0023
     11  N        -27.6020   14.6640   32.8870 N.am  403  ASP403     -0.1957
     12  CA       -26.9510   13.4100   32.5300 C.3   403  ASP403      0.1840
     13  C        -27.6250   12.2070   33.1870 C.2   403  ASP403      0.2622
     14  O        -27.9600   12.2350   34.3750 O.2   403  ASP403     -0.2715
     15  CB       -25.4650   13.4980   32.8760 C.3   403  ASP403      0.1450
     16  CG       -24.7340   14.5160   32.0110 C.2   403  ASP403      0.3671
     17  OD1      -24.9040   14.4610   30.7730 O.co2 403  ASP403     -0.2456
     18  OD2      -23.9860   15.3620   32.5500 O.co2 403  ASP403     -0.2456
     19  N        -27.8410   11.1570   32.3980 N.am  404  VAL404     -0.1963
     20  CA       -28.4730    9.9180   32.8740 C.3   404  VAL404      0.1727
     21  C        -27.6900    8.6880   32.3860 C.2   404  VAL404      0.2616
     22  O        -26.8910    8.7930   31.4580 O.2   404  VAL404     -0.2715
     23  CB       -29.9660    9.8090   32.4180 C.3   404  VAL404      0.0290
     24  CG1      -30.8320   10.8850   33.1010 C.3   404  VAL404      0.0023
     25  CG2      -30.0970    9.8980   30.8900 C.3   404  VAL404      0.0023
     26  N        -27.9460    7.5380   33.0120 N.am  405  ALA405     -0.1963
     27  CA       -27.2880    6.2630   32.6780 C.3   405  ALA405      0.1728
     28  C        -27.8770    5.5080   31.4700 C.2   405  ALA405      0.2616
     29  O        -29.0950    5.2890   31.3640 O.2   405  ALA405     -0.2715
     30  CB       -27.2800    5.3490   33.8910 C.3   405  ALA405      0.0334
     31  N        -26.9880    5.0890   30.5770 N.am  406  ASP406     -0.1971
     32  CA       -27.3500    4.2810   29.4250 C.3   406  ASP406      0.1709
     33  C        -27.5310    2.8000   29.8130 C.2   406  ASP406      0.2293
     34  O        -27.2660    1.8650   29.0300 O.2   406  ASP406     -0.2864
     35  CB       -26.2960    4.4480   28.3200 C.3   406  ASP406      0.1436
     36  CG       -26.9150    4.8400   27.0020 C.2   406  ASP406      0.3671
     37  OD1      -26.1600    5.1450   26.0490 O.co2 406  ASP406     -0.2456
     38  OD2      -28.1720    4.8580   26.9390 O.co2 406  ASP406     -0.2456
@<TRIPOS>BOND
     1    37    36   ar
     2    38    36   ar
     3    36    35    1
     4    35    32    1
     5    34    33    2
     6    32    33    1
     7    32    31    1
     8     3     1    1
     9    31    28   am
    10    17    16   ar
    11    25    23    1
    12     1     2    2
    13     1     4   am
    14    29    28    2
    15     7     6    2
    16    22    21    2
    17    28    27    1
    18     4     5    1
    19    16    18   ar
    20    16    15    1
    21     6     5    1
    22     6    11   am
    23    21    20    1
    24    21    26   am
    25    19    20    1
    26    19    13   am
    27    23    20    1
    28    23    24    1
    29    12    15    1
    30    12    11    1
    31    12    13    1
    32    27    26    1
    33    27    30    1
    34     5     8    1
    35    13    14    2
    36    10     8    1
    37     8     9    1
