@<TRIPOS>MOLECULE
3r6p_A8S_A_1.pdb
 19 19 0 0 0
SMALL
GASTEIGER

@<TRIPOS>ATOM
      1  C1       -22.3690   25.6640  -11.4950 C.2   192  A8S192      0.3652
      2  C2       -22.9780   26.2300  -12.7790 C.3   192  A8S192      0.1184
      3  C3       -22.7930   27.7360  -12.9730 C.3   192  A8S192      0.0330
      4  C4       -22.0440   28.5570  -11.9220 C.2   192  A8S192     -0.0277
      5  C5       -21.9260   30.0510  -12.2310 C.2   192  A8S192      0.0026
      6  C6       -23.3580   28.4220  -14.2190 C.3   192  A8S192      0.0052
      7  C7       -21.2450   30.7970  -11.2760 C.3   192  A8S192      0.1602
      8  O7       -20.8730   29.9500  -10.1860 O.3   192  A8S192     -0.2170
      9  C8       -20.1030   31.3480  -11.8460 C.2   192  A8S192     -0.0101
     10  C9       -20.1490   32.6050  -12.4390 C.2   192  A8S192      0.0316
     11  C10      -21.3270   33.3440  -12.4810 C.2   192  A8S192      0.1727
     12  O10      -21.3250   34.4520  -13.0150 O.2   192  A8S192     -0.2914
     13  C11      -22.4930   32.8310  -11.9240 C.3   192  A8S192      0.0721
     14  O11      -22.4650   24.4430  -11.2420 O.co2 192  A8S192     -0.2456
     15  C12      -22.1430   31.9100  -10.7700 C.3   192  A8S192      0.0401
     16  O12      -21.7740   26.4220  -10.6980 O.co2 192  A8S192     -0.2456
     17  C13      -18.9080   30.6380  -11.8220 C.3   192  A8S192      0.0292
     18  C14      -21.4120   32.7030   -9.6850 C.3   192  A8S192      0.0036
     19  C15      -23.4240   31.3080  -10.1880 C.3   192  A8S192      0.0036
@<TRIPOS>BOND
     1     6     3    1
     2    12    11    2
     3     3     2    1
     4     3     4    1
     5     2     1    1
     6    11    10    1
     7    11    13    1
     8    10     9    2
     9     5     4    2
    10     5     7    1
    11    13    15    1
    12     9    17    1
    13     9     7    1
    14     1    14   ar
    15     1    16   ar
    16     7    15    1
    17     7     8    1
    18    15    19    1
    19    15    18    1
