@<TRIPOS>MOLECULE
3r6s_CMP_A_1.pdb
 22 25 0 0 0
SMALL
GASTEIGER

@<TRIPOS>ATOM
      1  P        -23.0150   33.5050  -12.1220 P.3   301  CMP301      0.2141
      2  O1P      -22.5130   32.1420  -12.1570 O.3   301  CMP301     -0.4373
      3  O2P      -22.4760   34.5280  -13.0270 O.2   301  CMP301     -0.5172
      4  O5'      -24.6620   33.3630  -12.3810 O.3   301  CMP301     -0.3114
      5  C5'      -25.4770   32.6680  -11.3980 C.3   301  CMP301      0.1812
      6  C4'      -25.2510   33.3400  -10.0890 C.3   301  CMP301      0.1793
      7  O4'      -25.7960   32.5960   -9.0970 O.3   301  CMP301     -0.3136
      8  C3'      -23.7590   33.1790   -9.7430 C.3   301  CMP301      0.1884
      9  O3'      -22.9430   33.9920  -10.6120 O.3   301  CMP301     -0.3111
     10  C2'      -23.7850   33.5970   -8.2770 C.3   301  CMP301      0.2541
     11  O2'      -23.8680   34.9980   -8.0990 O.3   301  CMP301     -0.2131
     12  C1'      -25.0890   32.9630   -7.8270 C.3   301  CMP301      0.3185
     13  N9       -24.8020   31.6460   -7.1420 N.pl3 301  CMP301     -0.1439
     14  C8       -24.3290   30.5480   -7.7780 C.3   301  CMP301      0.3377
     15  N7       -24.2210   29.5620   -6.8860 N.2   301  CMP301     -0.2095
     16  C5       -24.6430   29.9910   -5.6920 C.2   301  CMP301      0.2526
     17  C6       -24.7270   29.4120   -4.4090 C.2   301  CMP301      0.4393
     18  N6       -24.3690   28.1290   -4.1240 N.pl3 301  CMP301      0.2180
     19  N1       -25.1970   30.1830   -3.4170 N.2   301  CMP301      0.0021
     20  C2       -25.5640   31.4480   -3.6230 C.3   301  CMP301      0.5254
     21  N3       -25.4470   31.9890   -4.8310 N.2   301  CMP301     -0.0055
     22  C4       -24.9970   31.3170   -5.8710 C.2   301  CMP301      0.3518
@<TRIPOS>BOND
     1     3     1    2
     2     4     1    1
     3     4     5    1
     4     2     1    1
     5     1     9    1
     6     5     6    1
     7     9     8    1
     8     6     8    1
     9     6     7    1
    10     8    10    1
    11     7    12    1
    12    10    11    1
    13    10    12    1
    14    12    13    1
    15    14    13    1
    16    14    15    1
    17    13    22    1
    18    15    16    2
    19    22    16    1
    20    22    21    2
    21    16    17    1
    22    21    20    1
    23    17    18    1
    24    17    19    2
    25    20    19    1
