@<TRIPOS>MOLECULE
3r6t_LU1_A_1.pdb
 37 41 0 0 0
SMALL
GASTEIGER

@<TRIPOS>ATOM
      1  O14       -2.9410   13.6250   24.6430 O.2   307  LU1307     -0.2682
      2  C6        -1.8930   13.0690   24.8990 C.2   307  LU1307      0.2683
      3  C2        -0.5610   13.7280   24.7390 C.ar  307  LU1307      0.0971
      4  C3         0.6500   13.1970   25.2320 C.ar  307  LU1307      0.2386
      5  O20        0.7370   12.0850   25.9710 O.3   307  LU1307     -0.2830
      6  C9         1.8390   13.9070   24.9680 C.ar  307  LU1307      0.2344
      7  O21        2.9820   13.3870   25.4530 O.3   307  LU1307     -0.2831
      8  C10        1.8010   15.0910   24.2490 C.ar  307  LU1307      0.0454
      9  C4        -0.5740   14.9170   24.0170 C.ar  307  LU1307      0.0080
     10  C7         0.5840   15.6400   23.7580 C.ar  307  LU1307      0.0035
     11  C13        0.5720   16.9080   22.9840 C.ar  307  LU1307      0.0002
     12  C17        1.4130   17.9580   23.3660 C.ar  307  LU1307      0.0023
     13  C24        1.4020   19.1640   22.6400 C.ar  307  LU1307      0.0296
     14  C18       -0.2800   17.0910   21.8930 C.ar  307  LU1307      0.0023
     15  C25       -0.2900   18.2420   21.1690 C.ar  307  LU1307      0.0296
     16  C23        0.5570   19.2690   21.5520 C.ar  307  LU1307      0.1401
     17  F26        0.5590   20.4000   20.8580 F     307  LU1307     -0.2042
     18  N16       -1.8850   11.8160   25.3220 N.am  307  LU1307     -0.1967
     19  C27       -3.1380   11.0530   25.3910 C.3   307  LU1307      0.1413
     20  C19       -2.7850    9.5900   25.3230 C.2   307  LU1307     -0.0050
     21  C15       -3.3800    8.6950   24.5850 C.2   307  LU1307      0.0002
     22  C12       -3.0380    7.2430   24.5690 C.3   307  LU1307      0.1438
     23  C11       -3.6600    6.5470   23.3660 C.3   307  LU1307      0.0742
     24  C8        -5.0690    6.2780   23.9180 C.3   307  LU1307      0.2272
     25  O22       -5.8120    5.3300   23.1790 O.3   307  LU1307     -0.2158
     26  C1        -4.7010    5.8100   25.3370 C.3   307  LU1307      0.3161
     27  O5        -3.5700    6.5650   25.7400 O.3   307  LU1307     -0.3144
     28  N28       -5.7750    6.0210   26.3210 N.pl3 307  LU1307     -0.1442
     29  C29       -6.2340    5.1340   27.2270 C.2   307  LU1307      0.3426
     30  C30       -7.1700    5.8580   28.0110 C.2   307  LU1307      0.1750
     31  N31       -7.2010    7.1570   27.6100 N.2   307  LU1307     -0.2152
     32  C32       -6.3500    7.2450   26.6210 C.3   307  LU1307      0.3376
     33  N33       -5.9680    3.8220   27.3650 N.2   307  LU1307     -0.0349
     34  C36       -6.6490    3.2500   28.3570 C.3   307  LU1307      0.3916
     35  N35       -7.5950    3.8350   29.1210 N.2   307  LU1307     -0.2213
     36  C34       -7.8840    5.1440   28.9360 C.2   307  LU1307      0.0831
     37  C37       -8.9640    5.7630   29.7380 C.3   307  LU1307      0.0537
@<TRIPOS>BOND
     1    17    16    1
     2    15    16   ar
     3    15    14   ar
     4    16    13   ar
     5    14    11   ar
     6    13    12   ar
     7    11    12   ar
     8    11    10    1
     9    25    24    1
    10    23    24    1
    11    23    22    1
    12    10     9   ar
    13    10     8   ar
    14    24    26    1
    15     9     3   ar
    16     8     6   ar
    17    22    21    1
    18    22    27    1
    19    21    20    2
    20     1     2    2
    21     3     2    1
    22     3     4   ar
    23     2    18   am
    24     6     4   ar
    25     6     7    1
    26     4     5    1
    27    18    19    1
    28    20    19    1
    29    26    27    1
    30    26    28    1
    31    28    32    1
    32    28    29    1
    33    32    31    1
    34    29    33    2
    35    29    30    1
    36    33    34    1
    37    31    30    2
    38    30    36    1
    39    34    35    1
    40    36    35    2
    41    36    37    1
