@<TRIPOS>MOLECULE
3r6w_FMN_A_1.pdb
 31 33 0 0 0
SMALL
GASTEIGER

@<TRIPOS>ATOM
      1  N1        61.3010  -13.0410   15.5930 N.2   1213  FMN1213    -0.2887
      2  C2        61.4340  -14.4180   15.6500 C.1   1213  FMN1213     0.3669
      3  O2        61.0680  -15.1130   14.6960 O.2   1213  FMN1213    -0.1744
      4  N3        61.9700  -15.0180   16.7770 N.2   1213  FMN1213    -0.2300
      5  C4        62.3680  -14.2560   17.8520 C.1   1213  FMN1213     0.2513
      6  O4        62.8330  -14.8030   18.8570 O.2   1213  FMN1213    -0.2057
      7  C4A       62.2560  -12.8680   17.7970 C.2   1213  FMN1213     0.2706
      8  N5        62.6700  -12.1000   18.8720 N.2   1213  FMN1213    -0.3841
      9  C5A       62.5410  -10.7230   18.8210 C.2   1213  FMN1213     0.1452
     10  C6        62.9410   -9.9520   19.9070 C.2   1213  FMN1213     0.0252
     11  C7        62.8160   -8.5680   19.8630 C.2   1213  FMN1213    -0.0375
     12  C7M       63.2620   -7.7510   21.0410 C.3   1213  FMN1213     0.0268
     13  C8        62.2770   -7.9540   18.7320 C.3   1213  FMN1213     0.0417
     14  C8M       62.1310   -6.4560   18.6690 C.3   1213  FMN1213     0.0091
     15  C9        61.8680   -8.7300   17.6450 C.2   1213  FMN1213    -0.0049
     16  C9A       61.9940  -10.1130   17.6900 C.2   1213  FMN1213     0.0795
     17  N10       61.5890  -10.8860   16.6100 N.pl3 1213  FMN1213    -0.2545
     18  C10       61.7130  -12.2630   16.6630 C.2   1213  FMN1213     0.2449
     19  C1'       60.9930  -10.2300   15.4020 C.3   1213  FMN1213     0.1336
     20  C2'       59.5460   -9.8950   15.7880 C.3   1213  FMN1213     0.2048
     21  O2'       58.8810  -11.0420   16.2860 O.3   1213  FMN1213    -0.2185
     22  C3'       58.7300   -9.2970   14.6490 C.3   1213  FMN1213     0.2165
     23  O3'       59.2770   -8.0720   14.2040 O.3   1213  FMN1213    -0.2175
     24  C4'       57.2770   -9.0890   15.0880 C.3   1213  FMN1213     0.2147
     25  O4'       56.5130   -8.6610   13.9790 O.3   1213  FMN1213    -0.2176
     26  C5'       57.1150   -8.0590   16.1980 C.3   1213  FMN1213     0.1892
     27  O5'       55.7380   -7.9900   16.4840 O.3   1213  FMN1213    -0.2674
     28  P         54.8960   -6.6490   16.2100 P.3   1213  FMN1213     0.5327
     29  O1P       55.0290   -6.3200   14.7450 O.2   1213  FMN1213    -0.2224
     30  O2P       55.4540   -5.5040   17.0200 O.3   1213  FMN1213    -0.1145
     31  O3P       53.4320   -6.8300   16.5190 O.3   1213  FMN1213    -0.1145
@<TRIPOS>BOND
     1    25    24    1
     2    23    22    1
     3    22    24    1
     4    22    20    1
     5     3     2    2
     6    29    28    2
     7    24    26    1
     8    19    20    1
     9    19    17    1
    10     1     2    2
    11     1    18    2
    12     2     4    2
    13    20    21    1
    14    26    27    1
    15    28    27    1
    16    28    31    1
    17    28    30    1
    18    17    18    1
    19    17    16    1
    20    18     7    1
    21     4     5    2
    22    15    16    2
    23    15    13    1
    24    16     9    1
    25     7     5    1
    26     7     8    2
    27     5     6    2
    28    14    13    1
    29    13    11    1
    30     9     8    2
    31     9    10    1
    32    11    10    2
    33    11    12    1
