@<TRIPOS>MOLECULE
3r6w_NFZ_A_1.pdb
 14 14 0 0 0
SMALL
GASTEIGER

@<TRIPOS>ATOM
      1  O4        65.2420  -17.8500   12.8220 O.2   213  NFZ213     -0.2459
      2  C6        65.0270  -17.0550   13.7330 C.2   213  NFZ213      0.3754
      3  N4        65.4320  -17.3560   15.0720 N.am  213  NFZ213     -0.0667
      4  N3        64.3650  -15.8040   13.4630 N.am  213  NFZ213     -0.0912
      5  N2        64.1390  -14.9430   14.5030 N.3   213  NFZ213     -0.0988
      6  C5        64.8540  -13.8410   14.6140 C.3   213  NFZ213      0.1776
      7  C3        65.2230  -13.3240   15.9820 C.ar  213  NFZ213      0.1444
      8  C4        65.5170  -14.1010   17.1080 C.ar  213  NFZ213      0.0395
      9  C2        65.8090  -13.2170   18.1590 C.ar  213  NFZ213      0.0657
     10  O3        65.3380  -12.0250   16.3430 O.2   213  NFZ213     -0.4358
     11  C1        65.6900  -11.9250   17.6510 C.ar  213  NFZ213      0.2886
     12  N1        65.8970  -10.7070   18.3640 N.pl3 213  NFZ213      0.0932
     13  O1        65.7210   -9.6480   17.7860 O.2   213  NFZ213     -0.1230
     14  O2        66.2680  -10.7130   19.5990 O.2   213  NFZ213     -0.1230
@<TRIPOS>BOND
     1     1     2    2
     2     4     2   am
     3     4     5    1
     4     2     3   am
     5     5     6    1
     6     6     7    1
     7     7    10   ar
     8     7     8   ar
     9    10    11   ar
    10     8     9   ar
    11    11     9   ar
    12    11    12    1
    13    13    12    2
    14    12    14    2
