@<TRIPOS>MOLECULE
3r6x_X84_A_1.pdb
 25 26 0 0 0
SMALL
GASTEIGER

@<TRIPOS>ATOM
      1  N01      -64.0990  -10.1890   23.9820 N.pl3 778  X84778     -0.2326
      2  N02      -66.9810   -9.9660   21.0520 N.am  778  X84778     -0.0837
      3  N03      -62.0250  -11.5060   28.1300 N.ar  778  X84778     -0.2426
      4  N04      -67.0420   -8.1800   27.1150 N.pl3 778  X84778     -0.2358
      5  N05      -69.1280   -8.3490   25.2680 N.pl3 778  X84778      0.0590
      6  C06      -67.6680   -9.3470   23.7110 C.ar  778  X84778      0.0313
      7  C07      -66.3700   -9.8340   23.3530 C.ar  778  X84778      0.0732
      8  C08      -65.2870   -9.7470   24.3030 C.ar  778  X84778      0.0715
      9  C09      -65.5440   -9.1720   25.5900 C.ar  778  X84778      0.0340
     10  C10      -66.8450   -8.6860   25.9470 C.ar  778  X84778      0.0890
     11  C11      -67.9280   -8.7730   24.9930 C.ar  778  X84778      0.1578
     12  C12      -66.1930  -10.3770   22.0970 C.2   778  X84778      0.2855
     13  C13      -62.8520   -9.9280   24.7480 C.3   778  X84778      0.1401
     14  C14      -62.6420  -10.9760   25.8230 C.ar  778  X84778      0.0185
     15  C15      -62.2290  -10.6010   27.1090 C.ar  778  X84778      0.0963
     16  C16      -62.2460  -12.8410   27.8590 C.ar  778  X84778      0.0989
     17  C17      -62.6620  -13.3130   26.6030 C.ar  778  X84778      0.0204
     18  C18      -62.8600  -12.3620   25.5750 C.ar  778  X84778      0.0006
     19  C19      -66.0120   -7.3640   27.8110 C.3   778  X84778      0.1150
     20  C20      -65.7790   -7.9410   29.2030 C.3   778  X84778      0.0588
     21  C21      -64.2950   -8.2040   29.4020 C.3   778  X84778      0.1839
     22  O22      -65.3490  -11.2190   21.8990 O.2   778  X84778     -0.2666
     23  O23      -64.1250   -9.3500   30.2010 O.3   778  X84778     -0.2204
     24  O24      -69.3920   -7.7350   26.3950 O.2   778  X84778     -0.1261
     25  O25      -70.1200   -8.5340   24.4170 O.2   778  X84778     -0.1261
@<TRIPOS>BOND
     1     2    12   am
     2    22    12    2
     3    12     7    1
     4     7     6   ar
     5     7     8   ar
     6     6    11   ar
     7     1     8    1
     8     1    13    1
     9     8     9   ar
    10    25     5    2
    11    13    14    1
    12    11     5    1
    13    11    10   ar
    14     5    24    2
    15    18    14   ar
    16    18    17   ar
    17     9    10   ar
    18    14    15   ar
    19    10     4    1
    20    17    16   ar
    21    15     3   ar
    22     4    19    1
    23    19    20    1
    24    16     3   ar
    25    20    21    1
    26    21    23    1
