@<TRIPOS>MOLECULE
3r71_X86_A_1.pdb
 26 27 0 0 0
SMALL
GASTEIGER

@<TRIPOS>ATOM
      1  N01       63.8720   46.2490  -12.0820 N.pl3 800  X86800     -0.2326
      2  N02       67.1370   46.2470  -14.6060 N.am  800  X86800     -0.0837
      3  N03       62.6390   49.3940   -9.3040 N.ar  800  X86800     -0.2426
      4  N04       66.4190   44.0230   -8.7130 N.pl3 800  X86800     -0.2358
      5  N05       68.6770   44.3680  -10.2290 N.pl3 800  X86800      0.0590
      6  C06       67.4470   45.4530  -11.9220 C.ar  800  X86800      0.0313
      7  C07       66.2050   45.9520  -12.4310 C.ar  800  X86800      0.0732
      8  C08       65.0200   45.7940  -11.6420 C.ar  800  X86800      0.0715
      9  C09       65.1180   45.1230  -10.3640 C.ar  800  X86800      0.0340
     10  C10       66.3530   44.6250   -9.8660 C.ar  800  X86800      0.0890
     11  C11       67.5350   44.7940  -10.6460 C.ar  800  X86800      0.1578
     12  C12       66.1850   46.5670  -13.6730 C.2   800  X86800      0.2855
     13  C13       62.5670   46.1400  -11.3430 C.3   800  X86800      0.1401
     14  C14       62.4760   47.1180  -10.1800 C.ar  800  X86800      0.0185
     15  C15       62.7140   48.5030  -10.3430 C.ar  800  X86800      0.0963
     16  C16       62.3180   48.9100   -8.0640 C.ar  800  X86800      0.0989
     17  C17       62.0650   47.5520   -7.8050 C.ar  800  X86800      0.0204
     18  C18       62.1500   46.6560   -8.8850 C.ar  800  X86800      0.0006
     19  C19       65.2490   43.8610   -7.8040 C.3   800  X86800      0.1148
     20  C20       65.6100   42.8740   -6.6970 C.3   800  X86800      0.0554
     21  C21       66.4760   43.5820   -5.6610 C.3   800  X86800      0.1441
     22  C22       68.6320   44.6800   -5.7820 C.3   800  X86800      0.1741
     23  O23       65.3170   47.3730  -13.9760 O.2   800  X86800     -0.2666
     24  O24       68.8160   43.8060   -9.0580 O.2   800  X86800     -0.1261
     25  O25       69.7560   44.5240  -10.9670 O.2   800  X86800     -0.1261
     26  O26       67.7970   43.6110   -6.1170 O.3   800  X86800     -0.3510
@<TRIPOS>BOND
     1     2    12   am
     2    23    12    2
     3    12     7    1
     4     7     6   ar
     5     7     8   ar
     6     1     8    1
     7     1    13    1
     8     6    11   ar
     9     8     9   ar
    10    13    14    1
    11    25     5    2
    12    11     5    1
    13    11    10   ar
    14     9    10   ar
    15    15    14   ar
    16    15     3   ar
    17     5    24    2
    18    14    18   ar
    19    10     4    1
    20     3    16   ar
    21    18    17   ar
    22     4    19    1
    23    16    17   ar
    24    19    20    1
    25    20    21    1
    26    26    22    1
    27    26    21    1
