@<TRIPOS>MOLECULE
3r72_NBB_A_1.pdb
 29 29 0 0 0
SMALL
GASTEIGER

@<TRIPOS>ATOM
      1  O1S       30.4810   -0.0420   22.2940 O.2     1  NBB1       -0.1531
      2  S         31.6540   -0.1780   23.0760 S.O2    1  NBB1        0.0584
      3  O2S       31.8930    0.8720   24.0280 O.2     1  NBB1       -0.1531
      4  N10       32.8840   -0.2350   22.0540 N.3     1  NBB1       -0.1900
      5  C11       32.9050   -1.2080   20.9820 C.3     1  NBB1        0.0174
      6  C12       34.3070   -1.7170   20.7060 C.3     1  NBB1       -0.0391
      7  C13       34.8770   -2.5950   21.8200 C.3     1  NBB1       -0.0547
      8  C14       34.1850   -3.9410   21.8560 C.3     1  NBB1       -0.0652
      9  C4        31.6000   -1.6130   23.8670 C.ar    1  NBB1        0.1052
     10  C5        32.6430   -1.9390   24.7370 C.ar    1  NBB1       -0.0354
     11  C6        32.6480   -3.1580   25.4310 C.ar    1  NBB1       -0.0599
     12  C1        31.6180   -4.0720   25.2780 C.ar    1  NBB1       -0.0616
     13  C2        30.5710   -3.7610   24.4420 C.ar    1  NBB1       -0.0599
     14  C3        30.5570   -2.5560   23.7420 C.ar    1  NBB1       -0.0354
     15  H10       33.6580    0.4070   22.1480 H       1  NBB1        0.1480
     16 H111       32.5130   -0.7430   20.0750 H       1  NBB1        0.0441
     17 H112       32.2520   -2.0490   21.2240 H       1  NBB1        0.0441
     18 H121       34.9700   -0.8620   20.5550 H       1  NBB1        0.0278
     19 H122       34.2970   -2.2880   19.7760 H       1  NBB1        0.0278
     20 H131       34.7510   -2.0940   22.7820 H       1  NBB1        0.0263
     21 H132       35.9470   -2.7410   21.6570 H       1  NBB1        0.0263
     22 H141       33.7500   -4.1090   22.8630 H       1  NBB1        0.0230
     23 H142       34.9020   -4.7530   21.7440 H       1  NBB1        0.0230
     24 H143       33.4540   -4.0050   21.1630 H       1  NBB1        0.0230
     25  H5        33.4690   -1.2490   24.8640 H       1  NBB1        0.0637
     26  H6        33.4680   -3.3950   26.0910 H       1  NBB1        0.0618
     27  H1        31.6250   -5.0040   25.8290 H       1  NBB1        0.0618
     28  H2        29.7570   -4.4640   24.3160 H       1  NBB1        0.0618
     29  H3        29.7250   -2.3460   23.0810 H       1  NBB1        0.0637
@<TRIPOS>BOND
     1    19     6    1
     2    16     5    1
     3    18     6    1
     4     6     5    1
     5     6     7    1
     6     5    17    1
     7     5     4    1
     8    24     8    1
     9    21     7    1
    10    23     8    1
    11     7     8    1
    12     7    20    1
    13     8    22    1
    14     4    15    1
    15     4     2    1
    16     1     2    2
    17     2     9    1
    18     2     3    2
    19    29    14    1
    20    14     9   ar
    21    14    13   ar
    22     9    10   ar
    23    28    13    1
    24    13    12   ar
    25    10    25    1
    26    10    11   ar
    27    12    11   ar
    28    12    27    1
    29    11    26    1
