@<TRIPOS>MOLECULE
3r73_X87_A_1.pdb
 25 26 0 0 0
SMALL
GASTEIGER

@<TRIPOS>ATOM
      1  N01       63.8200   45.8970  -12.3280 N.pl3 920  X87920     -0.2326
      2  N02       66.8240   45.6130  -15.1170 N.am  920  X87920     -0.0837
      3  N03       61.9330   47.2870   -8.1200 N.ar  920  X87920     -0.2426
      4  N04       66.4590   43.6780   -9.0750 N.pl3 920  X87920     -0.2358
      5  N05       66.2930   42.0990   -4.9430 N.3   920  X87920     -0.1313
      6  N06       68.6460   43.8270  -10.7670 N.pl3 920  X87920      0.0590
      7  C07       67.3640   44.9260  -12.4000 C.ar  920  X87920      0.0313
      8  C08       66.1120   45.4740  -12.8330 C.ar  920  X87920      0.0732
      9  C09       64.9730   45.4000  -11.9550 C.ar  920  X87920      0.0715
     10  C10       65.1230   44.7740  -10.6690 C.ar  920  X87920      0.0340
     11  C11       66.3640   44.2310  -10.2420 C.ar  920  X87920      0.0890
     12  C12       67.5050   44.3050  -11.1150 C.ar  920  X87920      0.1578
     13  C13       66.0310   46.0610  -14.0920 C.2   920  X87920      0.2855
     14  C14       62.5470   45.7320  -11.5620 C.3   920  X87920      0.1401
     15  C15       62.4250   46.7710  -10.4650 C.ar  920  X87920      0.0185
     16  C16       62.0580   46.3910   -9.1590 C.ar  920  X87920      0.0963
     17  C17       62.1850   48.6200   -8.3880 C.ar  920  X87920      0.0989
     18  C18       62.5580   49.0930   -9.6590 C.ar  920  X87920      0.0204
     19  C19       62.6770   48.1480  -10.7090 C.ar  920  X87920      0.0006
     20  C20       65.3830   42.8230   -8.5130 C.3   920  X87920      0.1138
     21  C21       65.3460   42.9800   -6.9970 C.3   920  X87920      0.0438
     22  C22       66.1280   41.8400   -6.3510 C.3   920  X87920      0.1111
     23  O23       65.2530   46.9620  -14.3120 O.2   920  X87920     -0.2666
     24  O24       68.7310   42.7890   -9.9570 O.2   920  X87920     -0.1261
     25  O25       69.7600   44.3660  -11.2230 O.2   920  X87920     -0.1261
@<TRIPOS>BOND
     1     2    13   am
     2    23    13    2
     3    13     8    1
     4     8     7   ar
     5     8     9   ar
     6     7    12   ar
     7     1     9    1
     8     1    14    1
     9     9    10   ar
    10    14    15    1
    11    25     6    2
    12    12     6    1
    13    12    11   ar
    14     6    24    2
    15    19    15   ar
    16    19    18   ar
    17    10    11   ar
    18    15    16   ar
    19    11     4    1
    20    18    17   ar
    21    16     3   ar
    22     4    20    1
    23    20    21    1
    24    17     3   ar
    25    21    22    1
    26    22     5    1
