@<TRIPOS>MOLECULE
3r77_QLI_A_1.pdb
 16 16 0 0 0
SMALL
GASTEIGER

@<TRIPOS>ATOM
      1  CAA       95.3820   53.0660   10.2310 C.2   500  QLI500      0.0471
      2  NAB       90.5230   50.4580    8.0170 N.3   500  QLI500     -0.1282
      3  OAC       92.6790   51.5780   11.9600 O.co2 500  QLI500     -0.2371
      4  OAD       91.8670   49.7750    5.6330 O.co2 500  QLI500     -0.2452
      5  OAE       93.5840   53.4920   12.3420 O.co2 500  QLI500     -0.2371
      6  OAF       92.2400   51.4210    4.2580 O.co2 500  QLI500     -0.2452
      7  CAG       91.9490   54.0140    7.6710 C.2   500  QLI500     -0.0263
      8  CAH       92.0440   53.2590    6.5360 C.2   500  QLI500     -0.0181
      9  CAI       91.7550   53.3410    8.8670 C.3   500  QLI500      0.0707
     10  OAJ       93.6000   51.5660    9.5010 O.2   500  QLI500     -0.4710
     11  CAK       94.2280   52.3460   10.4210 C.2   500  QLI500      0.2182
     12  CAL       93.4610   52.4850   11.6930 C.2   500  QLI500      0.4211
     13  CAM       92.0030   50.9740    5.4050 C.2   500  QLI500      0.3699
     14  CAN       92.0120   51.8750    6.6470 C.3   500  QLI500      0.1461
     15  CAO       91.8510   51.1110    7.9560 C.3   500  QLI500      0.1466
     16  CAP       92.0210   51.9960    9.1360 C.3   500  QLI500      0.1887
@<TRIPOS>BOND
     1     6    13   ar
     2    13     4   ar
     3    13    14    1
     4     8    14    1
     5     8     7    2
     6    14    15    1
     7     7     9    1
     8    15     2    1
     9    15    16    1
    10     9    16    1
    11    16    10    1
    12    10    11    1
    13     1    11    2
    14    11    12    1
    15    12     3   ar
    16    12     5   ar
