@<TRIPOS>MOLECULE
3r79_PLP_B_1.pdb
 15 15 0 0 0
SMALL
GASTEIGER

@<TRIPOS>ATOM
      1  N1        16.2400  137.8000  -11.8270 N.ar  258  PLP258     -0.2452
      2  C2        15.3340  137.4800  -12.7890 C.ar  258  PLP258      0.0978
      3  C2A       15.7200  137.6960  -14.2720 C.3   258  PLP258      0.0555
      4  C3        14.0580  137.0800  -12.4240 C.ar  258  PLP258      0.2049
      5  O3        13.0890  136.8530  -13.4040 O.3   258  PLP258     -0.2857
      6  C4        13.7300  136.9720  -11.0770 C.ar  258  PLP258      0.0182
      7  C4A       12.3020  136.5610  -10.6600 C.3   258  PLP258      0.0342
      8  C5        14.6990  137.2880  -10.1160 C.ar  258  PLP258      0.0261
      9  C6        15.9020  137.7230  -10.5160 C.ar  258  PLP258      0.0965
     10  C5A       14.4720  137.1220   -8.5870 C.3   258  PLP258      0.1815
     11  O4P       14.6780  135.7530   -8.1550 O.3   258  PLP258     -0.2653
     12  P         14.6240  135.5310   -6.5450 P.3   258  PLP258      0.5329
     13  O1P       15.1900  134.1400   -6.5480 O.2   258  PLP258     -0.2224
     14  O2P       13.2300  135.4970   -6.0620 O.3   258  PLP258     -0.1145
     15  O3P       15.6470  136.4040   -5.9120 O.3   258  PLP258     -0.1145
@<TRIPOS>BOND
     1     3     2    1
     2     5     4    1
     3     2     4   ar
     4     2     1   ar
     5     4     6   ar
     6     1     9   ar
     7     6     7    1
     8     6     8   ar
     9     9     8   ar
    10     8    10    1
    11    10    11    1
    12    11    12    1
    13    13    12    2
    14    12    14    1
    15    12    15    1
