@<TRIPOS>MOLECULE
3r7b_III_F_1.pdb
 31 30 0 0 0
SMALL
GASTEIGER

@<TRIPOS>ATOM
      1  C          5.1070   27.4120   28.5460 C.2   402  ACE402      0.2423
      2  O          5.2410   27.0350   27.3770 O.2   402  ACE402     -0.2733
      3  CH3        6.0190   28.4490   29.1600 C.3   402  ACE402      0.0964
      4  N          4.0790   27.0000   29.2820 N.am  403  ASP403     -0.1972
      5  CA         3.1470   25.9940   28.7640 C.3   403  ASP403      0.1839
      6  C          2.0840   26.6540   27.8940 C.2   403  ASP403      0.2622
      7  O          1.5480   27.7050   28.2540 O.2   403  ASP403     -0.2715
      8  CB         2.5180   25.1930   29.9150 C.3   403  ASP403      0.1450
      9  CG         3.5360   24.3390   30.6440 C.2   403  ASP403      0.3671
     10  OD1        4.2870   23.5980   29.9640 O.co2 403  ASP403     -0.2456
     11  OD2        3.5900   24.3900   31.8980 O.co2 403  ASP403     -0.2456
     12  N          1.8130   26.0540   26.7320 N.am  404  VAL404     -0.1963
     13  CA         0.7870   26.5370   25.8000 C.3   404  VAL404      0.1727
     14  C         -0.0220   25.3310   25.2800 C.2   404  VAL404      0.2616
     15  O          0.4060   24.1880   25.4540 O.2   404  VAL404     -0.2715
     16  CB         1.4060   27.3230   24.5970 C.3   404  VAL404      0.0290
     17  CG1        2.2480   28.5330   25.0830 C.3   404  VAL404      0.0023
     18  CG2        2.2590   26.4290   23.7440 C.3   404  VAL404      0.0023
     19  N         -1.1500   25.5890   24.6090 N.am  405  ALA405     -0.1963
     20  CA        -2.0060   24.5030   24.0770 C.3   405  ALA405      0.1728
     21  C         -1.7110   24.1080   22.6330 C.2   405  ALA405      0.2616
     22  O         -1.4690   24.9700   21.7880 O.2   405  ALA405     -0.2715
     23  CB        -3.4790   24.8890   24.2040 C.3   405  ALA405      0.0334
     24  N         -1.7690   22.8070   22.3490 N.am  406  ASP406     -0.1971
     25  CA        -1.7000   22.2840   20.9790 C.3   406  ASP406      0.1709
     26  C         -3.0250   22.3640   20.2070 C.2   406  ASP406      0.2293
     27  O         -3.3800   21.4530   19.4140 O.2   406  ASP406     -0.2864
     28  CB        -1.2020   20.8400   20.9870 C.3   406  ASP406      0.1436
     29  CG         0.2450   20.7340   20.5920 C.2   406  ASP406      0.3671
     30  OD1        0.8660   19.7140   20.9550 O.co2 406  ASP406     -0.2456
     31  OD2        0.7390   21.6790   19.9210 O.co2 406  ASP406     -0.2456
@<TRIPOS>BOND
     1    27    26    2
     2    31    29   ar
     3    26    25    1
     4    29    30   ar
     5    29    28    1
     6    25    28    1
     7    25    24    1
     8    22    21    2
     9    24    21   am
    10    21    20    1
    11    18    16    1
    12    20    23    1
    13    20    19    1
    14    16    17    1
    15    16    13    1
    16    19    14   am
    17    14    15    2
    18    14    13    1
    19    13    12    1
    20    12     6   am
    21     2     1    2
    22     6     7    2
    23     6     5    1
    24     1     3    1
    25     1     4   am
    26     5     4    1
    27     5     8    1
    28     8     9    1
    29    10     9   ar
    30     9    11   ar
