@<TRIPOS>MOLECULE
3r7e_X88_A_1.pdb
 20 21 0 0 0
SMALL
GASTEIGER

@<TRIPOS>ATOM
      1  C1        65.4230   45.1700  -46.3670 C.ar  919  X88919      0.0179
      2  C2        66.7090   44.7350  -45.9590 C.ar  919  X88919      0.0254
      3  C3        67.8450   44.8320  -46.8280 C.ar  919  X88919      0.1431
      4  C4        67.6310   45.3970  -48.1410 C.ar  919  X88919      0.0300
      5  C5        66.3320   45.8590  -48.6080 C.ar  919  X88919      0.0731
      6  C6        65.1760   45.7390  -47.6880 C.ar  919  X88919      0.0703
      7  N7        63.9530   46.1300  -48.0730 N.pl3 919  X88919     -0.2310
      8  C8        66.2310   46.3570  -49.9150 C.2   919  X88919      0.2855
      9  N9        67.0760   45.9770  -50.9240 N.am  919  X88919     -0.0837
     10  O10       65.2630   47.2340  -50.2420 O.2   919  X88919     -0.2666
     11  N11       69.0720   44.4090  -46.4370 N.pl3 919  X88919      0.0577
     12  O12       70.1450   44.4930  -47.2500 O.2   919  X88919     -0.1261
     13  O13       69.2600   43.9320  -45.3310 O.2   919  X88919     -0.1261
     14  C14       62.6990   46.0640  -47.2880 C.3   919  X88919      0.1591
     15  C15       61.9820   49.4530  -44.6710 C.ar  919  X88919      0.1195
     16  N16       62.8680   49.5620  -45.7240 N.ar  919  X88919     -0.2394
     17  C17       63.1330   48.5190  -46.5870 C.ar  919  X88919      0.1153
     18  C18       62.4680   47.2730  -46.3860 C.ar  919  X88919      0.0999
     19  N19       61.5760   47.1740  -45.3210 N.ar  919  X88919     -0.2432
     20  C20       61.3170   48.2260  -44.4620 C.ar  919  X88919      0.1192
@<TRIPOS>BOND
     1     9     8   am
     2    10     8    2
     3     8     5    1
     4     5     4   ar
     5     5     6   ar
     6     4     3   ar
     7     7     6    1
     8     7    14    1
     9     6     1   ar
    10    14    18    1
    11    12    11    2
    12     3    11    1
    13     3     2   ar
    14    17    18   ar
    15    17    16   ar
    16    11    13    2
    17    18    19   ar
    18     1     2   ar
    19    16    15   ar
    20    19    20   ar
    21    15    20   ar
