@<TRIPOS>MOLECULE
3r7i_X9I_A_1.pdb
 23 24 0 0 0
SMALL
GASTEIGER

@<TRIPOS>ATOM
      1  C1        94.8780   80.5520  -47.6560 C.ar  505  X9I505      0.1431
      2  N1        96.1730   80.1160  -47.3920 N.pl3 505  X9I505      0.0577
      3  O1        96.4830   79.5410  -46.2230 O.2   505  X9I505     -0.1261
      4  C2        94.5640   81.1620  -48.9120 C.ar  505  X9I505      0.0300
      5  N2        93.7320   81.7890  -51.6320 N.am  505  X9I505     -0.0837
      6  O2        97.1470   80.2600  -48.3020 O.2   505  X9I505     -0.1261
      7  C3        93.2420   81.6130  -49.2140 C.ar  505  X9I505      0.0731
      8  N3        90.9340   81.8800  -48.5380 N.pl3 505  X9I505     -0.2327
      9  O3        92.0890   83.1530  -50.7040 O.2   505  X9I505     -0.2666
     10  C4        92.1670   81.4600  -48.2370 C.ar  505  X9I505      0.0702
     11  C5        92.5170   80.8360  -46.9590 C.ar  505  X9I505      0.0179
     12  C6        93.8400   80.3990  -46.6890 C.ar  505  X9I505      0.0254
     13  C7        93.0270   82.2130  -50.5560 C.2   505  X9I505      0.2855
     14  C8        89.7200   81.7520  -47.7270 C.3   505  X9I505      0.1385
     15  C9        89.5870   82.7530  -46.6180 C.ar  505  X9I505     -0.0007
     16  C10       89.4420   82.2920  -45.2820 C.ar  505  X9I505     -0.0023
     17  C11       89.3030   83.2150  -44.2170 C.ar  505  X9I505      0.0063
     18  C12       89.3030   84.6290  -44.4620 C.ar  505  X9I505      0.0798
     19  C13       89.4520   85.0920  -45.8250 C.ar  505  X9I505      0.0063
     20  C14       89.5920   84.1580  -46.8880 C.ar  505  X9I505     -0.0023
     21  C15       89.1480   85.5290  -43.3080 C.2   505  X9I505      0.3878
     22  O16       89.0240   85.0410  -42.1530 O.co2 505  X9I505     -0.2406
     23  O17       89.1450   86.7580  -43.5240 O.co2 505  X9I505     -0.2406
@<TRIPOS>BOND
     1     5    13   am
     2     9    13    2
     3    13     7    1
     4     7     4   ar
     5     7    10   ar
     6     4     1   ar
     7     8    10    1
     8     8    14    1
     9     6     2    2
    10    10    11   ar
    11    14    15    1
    12     1     2    1
    13     1    12   ar
    14     2     3    2
    15    11    12   ar
    16    20    15   ar
    17    20    19   ar
    18    15    16   ar
    19    19    18   ar
    20    16    17   ar
    21    18    17   ar
    22    18    21    1
    23    23    21   ar
    24    21    22   ar
