@<TRIPOS>MOLECULE
3r7l_PAL_A_1.pdb
 16 15 0 0 0
SMALL
GASTEIGER

@<TRIPOS>ATOM
      1  P         40.2080   57.3100   74.8220 P.3   311  PAL311      0.1264
      2  O1P       41.6750   57.8840   74.3400 O.3   311  PAL311     -0.3568
      3  O2P       39.3200   56.8230   73.5220 O.2   311  PAL311     -0.4596
      4  O3P       39.5020   58.3620   75.5430 O.3   311  PAL311     -0.3568
      5  C1P       40.4340   55.8590   75.9560 C.3   311  PAL311      0.1454
      6  C1        41.5870   55.9210   76.9500 C.2   311  PAL311      0.2492
      7  O1        41.4620   56.4910   77.9830 O.2   311  PAL311     -0.2728
      8  N2        42.8560   55.3410   76.5700 N.am  311  PAL311     -0.1946
      9  C2        43.9600   55.2610   77.5030 C.3   311  PAL311      0.2090
     10  C4        44.6140   56.6150   77.7870 C.2   311  PAL311      0.3848
     11  O2        45.5830   56.6680   78.4640 O.co2 311  PAL311     -0.2437
     12  O3        44.1660   57.7710   77.1340 O.co2 311  PAL311     -0.2437
     13  C3        44.9570   54.1990   77.0570 C.3   311  PAL311      0.1472
     14  C5        45.5780   54.3820   75.6730 C.2   311  PAL311      0.3672
     15  O4        45.8240   53.4300   75.0170 O.co2 311  PAL311     -0.2456
     16  O5        45.4590   55.6260   75.0410 O.co2 311  PAL311     -0.2456
@<TRIPOS>BOND
     1     3     1    2
     2     2     1    1
     3     1     4    1
     4     1     5    1
     5    15    14   ar
     6    16    14   ar
     7    14    13    1
     8     5     6    1
     9     8     6   am
    10     8     9    1
    11     6     7    2
    12    13     9    1
    13    12    10   ar
    14     9    10    1
    15    10    11   ar
