@<TRIPOS>MOLECULE
3r7m_SUZ_A_1.pdb
 25 27 0 0 0
SMALL
GASTEIGER

@<TRIPOS>ATOM
      1  C20        6.8190   -3.1360   18.9230 C.ar  332  SUZ332      0.0083
      2  C19        6.0570   -2.6800   17.8400 C.ar  332  SUZ332     -0.0034
      3  C5         5.9910   -3.4350   16.6700 C.ar  332  SUZ332     -0.0178
      4  C6         5.2780   -2.9730   15.5630 C.3   332  SUZ332      0.0523
      5  C7         4.1290   -3.6390   15.0580 C.2   332  SUZ332     -0.0223
      6  C18        3.3810   -4.7030   15.6130 C.2   332  SUZ332     -0.0078
      7  C17        3.5360   -5.5050   16.7460 C.2   332  SUZ332      0.0014
      8  C16        2.5980   -6.5070   17.0340 C.2   332  SUZ332      0.0255
      9  C15        1.5200   -6.7010   16.1880 C.2   332  SUZ332      0.1220
     10  F          0.6300   -7.6680   16.4430 F     332  SUZ332     -0.2085
     11  C14        1.3510   -5.9120   15.0400 C.3   332  SUZ332      0.0825
     12  C13        2.2680   -4.9170   14.7490 C.2   332  SUZ332     -0.0195
     13  C10        2.3140   -3.9870   13.6930 C.2   332  SUZ332     -0.0188
     14  C11        1.4020   -3.9340   12.4670 C.3   332  SUZ332      0.1397
     15  C12        0.0610   -3.2280   12.5790 C.2   332  SUZ332      0.3692
     16  O3        -0.6150   -3.4170   13.6110 O.co2 332  SUZ332     -0.2453
     17  O2        -0.2690   -2.5470   11.5610 O.co2 332  SUZ332     -0.2453
     18  C8         3.4600   -3.2190   13.8870 C.2   332  SUZ332     -0.0292
     19  C9         3.8950   -2.0660   12.9340 C.3   332  SUZ332      0.0304
     20  C4         6.7370   -4.6150   16.5650 C.ar  332  SUZ332     -0.0034
     21  C3         7.4820   -5.0910   17.6370 C.ar  332  SUZ332      0.0083
     22  C2         7.5260   -4.3330   18.8170 C.ar  332  SUZ332      0.0562
     23  S          8.4680   -4.9110   20.2330 S.O   332  SUZ332      0.0658
     24  O1         8.0360   -6.3380   20.4700 O.2   332  SUZ332     -0.2514
     25  C1        10.2040   -4.7490   19.8610 C.3   332  SUZ332      0.1110
@<TRIPOS>BOND
     1    17    15   ar
     2    14    15    1
     3    14    13    1
     4    15    16   ar
     5    19    18    1
     6    13    18    1
     7    13    12    2
     8    18     5    2
     9    12    11    1
    10    12     6    1
    11    11     9    1
    12     5     4    1
    13     5     6    1
    14     4     3    1
    15     6     7    2
    16     9    10    1
    17     9     8    2
    18    20     3   ar
    19    20    21   ar
    20     3     2   ar
    21     7     8    1
    22    21    22   ar
    23     2     1   ar
    24    22     1   ar
    25    22    23    1
    26    25    23    1
    27    23    24    2
