@<TRIPOS>MOLECULE
3r7m_NAP_A_1.pdb
 48 52 0 0 0
SMALL
GASTEIGER

@<TRIPOS>ATOM
      1  PA        -1.7760   -3.6880    3.1400 P.3   700  NAP700      0.2189
      2  O1A       -3.1910   -3.5100    3.3550 O.3   700  NAP700     -0.4371
      3  O2A       -1.3560   -5.1940    2.9350 O.2   700  NAP700     -0.5170
      4  O5B       -1.1450   -2.8400    1.8970 O.3   700  NAP700     -0.3112
      5  C5B        0.2460   -3.1170    1.4610 C.3   700  NAP700      0.1813
      6  C4B        0.6600   -1.9120    0.4980 C.3   700  NAP700      0.1820
      7  O4B       -0.3990   -2.0630   -0.5070 O.3   700  NAP700     -0.3136
      8  C3B        0.2750   -0.5950    1.0950 C.3   700  NAP700      0.2157
      9  O3B        1.3810    0.0570    1.7420 O.3   700  NAP700     -0.2175
     10  C2B       -0.2130    0.1890   -0.1440 C.3   700  NAP700      0.2314
     11  O2B        0.7980    1.1580   -0.6260 O.3   700  NAP700     -0.2630
     12  C1B       -0.3540   -0.8310   -1.2080 C.3   700  NAP700      0.3158
     13  N9A       -1.6870   -0.6420   -1.9020 N.pl3 700  NAP700     -0.1439
     14  C8A       -2.8710   -0.2340   -1.3820 C.3   700  NAP700      0.3377
     15  N7A       -3.7740   -0.2650   -2.3560 N.2   700  NAP700     -0.2095
     16  C5A       -3.1530   -0.6490   -3.4740 C.2   700  NAP700      0.2526
     17  C6A       -3.5790   -0.8050   -4.7900 C.2   700  NAP700      0.4393
     18  N6A       -4.8860   -0.5980   -5.1460 N.pl3 700  NAP700      0.2180
     19  N1A       -2.6690   -1.2250   -5.6930 N.2   700  NAP700      0.0021
     20  C2A       -1.3520   -1.4480   -5.3850 C.3   700  NAP700      0.5254
     21  N3A       -0.9040   -1.3000   -4.1300 N.2   700  NAP700     -0.0055
     22  C4A       -1.8200   -0.8950   -3.1830 C.2   700  NAP700      0.3518
     23  O3        -1.0480   -3.0780    4.4430 O.3   700  NAP700     -0.2703
     24  PN        -0.8250   -3.4920    5.9710 P.3   700  NAP700      0.2189
     25  O1N       -0.5520   -2.1560    6.5570 O.3   700  NAP700     -0.4371
     26  O2N        0.0780   -4.6720    6.2320 O.2   700  NAP700     -0.5170
     27  O5D       -2.4090   -3.9740    6.3830 O.3   700  NAP700     -0.3112
     28  C5D       -3.4920   -2.9670    6.3920 C.3   700  NAP700      0.1813
     29  C4D       -3.9480   -2.5710    7.8180 C.3   700  NAP700      0.1799
     30  O4D       -4.1950   -3.7390    8.6210 O.3   700  NAP700     -0.3327
     31  C3D       -2.8040   -2.0580    8.6140 C.3   700  NAP700      0.2158
     32  O3D       -2.6100   -0.7070    8.1540 O.3   700  NAP700     -0.2175
     33  C2D       -3.3900   -1.9070    9.9830 C.3   700  NAP700      0.2309
     34  O2D       -4.5270   -0.9980    9.9290 O.3   700  NAP700     -0.2158
     35  C1D       -3.9060   -3.3160   10.0160 C.3   700  NAP700      0.2263
     36  N1N       -2.8460   -4.2570   10.3760 N.pl3 700  NAP700     -0.2787
     37  C2N       -3.0200   -4.8180   11.6480 C.3   700  NAP700      0.1244
     38  C3N       -2.0790   -5.7310   12.1100 C.2   700  NAP700      0.0544
     39  C7N       -2.3450   -6.3790   13.4740 C.2   700  NAP700      0.2818
     40  O7N       -1.4090   -6.9160   14.0570 O.2   700  NAP700     -0.2670
     41  N7N       -3.6740   -6.4780   13.8660 N.am  700  NAP700     -0.0839
     42  C4N       -0.9430   -6.0590   11.3460 C.2   700  NAP700      0.0033
     43  C5N       -0.7640   -5.4800   10.0760 C.2   700  NAP700      0.0157
     44  C6N       -1.7150   -4.5810    9.5930 C.2   700  NAP700      0.0633
     45  P2B        0.3480    2.7460   -0.7020 P.3   700  NAP700      0.5328
     46  O1X        0.1180    3.3850    0.6630 O.3   700  NAP700     -0.1145
     47  O2X        1.6250    3.3030   -1.4990 O.3   700  NAP700     -0.1145
     48  O3X       -0.9210    2.7550   -1.7000 O.2   700  NAP700     -0.2224
@<TRIPOS>BOND
     1    19    20    1
     2    19    17    2
     3    20    21    1
     4    18    17    1
     5    17    16    1
     6    21    22    2
     7    16    22    1
     8    16    15    2
     9    22    13    1
    10    15    14    1
    11    13    14    1
    12    13    12    1
    13    48    45    2
    14    47    45    1
    15    12     7    1
    16    12    10    1
    17    45    11    1
    18    45    46    1
    19    11    10    1
    20     7     6    1
    21    10     8    1
    22     6     8    1
    23     6     5    1
    24     8     9    1
    25     5     4    1
    26     4     1    1
    27     3     1    2
    28     1     2    1
    29     1    23    1
    30    23    24    1
    31    24    26    2
    32    24    27    1
    33    24    25    1
    34    27    28    1
    35    28    29    1
    36    29    31    1
    37    29    30    1
    38    32    31    1
    39    31    33    1
    40    30    35    1
    41    44    43    2
    42    44    36    1
    43    34    33    1
    44    33    35    1
    45    35    36    1
    46    43    42    1
    47    36    37    1
    48    42    38    2
    49    37    38    1
    50    38    39    1
    51    39    41   am
    52    39    40    2
