@<TRIPOS>MOLECULE
3r7n_III_E_1.pdb
 31 30 0 0 0
SMALL
GASTEIGER

@<TRIPOS>ATOM
      1  C        -28.7920   15.0160   32.0030 C.2   402  ACE402      0.2423
      2  O        -29.2680   14.3810   31.0390 O.2   402  ACE402     -0.2733
      3  CH3      -29.2510   16.4060   32.4220 C.3   402  ACE402      0.0964
      4  N        -27.6810   14.6040   32.6120 N.am  403  ASP403     -0.1972
      5  CA       -27.0230   13.3240   32.3280 C.3   403  ASP403      0.1839
      6  C        -27.7040   12.1660   33.0230 C.2   403  ASP403      0.2622
      7  O        -28.0940   12.2740   34.1920 O.2   403  ASP403     -0.2715
      8  CB       -25.5470   13.4460   32.7080 C.3   403  ASP403      0.1450
      9  CG       -24.8280   14.4150   31.8180 C.2   403  ASP403      0.3671
     10  OD1      -24.9970   14.3120   30.5730 O.co2 403  ASP403     -0.2456
     11  OD2      -24.1120   15.2880   32.3310 O.co2 403  ASP403     -0.2456
     12  N        -27.8750   11.0630   32.2940 N.am  404  VAL404     -0.1963
     13  CA       -28.4440    9.8150   32.8210 C.3   404  VAL404      0.1727
     14  C        -27.6250    8.6490   32.2760 C.2   404  VAL404      0.2616
     15  O        -26.7860    8.8270   31.3990 O.2   404  VAL404     -0.2715
     16  CB       -29.9600    9.5970   32.4170 C.3   404  VAL404      0.0290
     17  CG1      -30.9190   10.6030   33.1370 C.3   404  VAL404      0.0023
     18  CG2      -30.1860    9.5770   30.8770 C.3   404  VAL404      0.0023
     19  N        -27.9050    7.4460   32.7670 N.am  405  ALA405     -0.1963
     20  CA       -27.2230    6.2110   32.3480 C.3   405  ALA405      0.1728
     21  C        -27.8770    5.4150   31.1760 C.2   405  ALA405      0.2616
     22  O        -29.1090    5.3010   31.0810 O.2   405  ALA405     -0.2715
     23  CB       -27.0870    5.3140   33.5620 C.3   405  ALA405      0.0334
     24  N        -27.0370    4.8560   30.2960 N.am  406  ASP406     -0.1971
     25  CA       -27.4640    3.8400   29.2910 C.3   406  ASP406      0.1709
     26  C        -27.6260    2.3880   29.8350 C.2   406  ASP406      0.2293
     27  O        -27.3870    1.3600   29.1320 O.2   406  ASP406     -0.2864
     28  CB       -26.5520    3.8790   28.0440 C.3   406  ASP406      0.1436
     29  CG       -27.0720    4.8220   26.9700 C.2   406  ASP406      0.3671
     30  OD1      -26.2350    5.3480   26.2140 O.co2 406  ASP406     -0.2456
     31  OD2      -28.3110    5.0280   26.8730 O.co2 406  ASP406     -0.2456
@<TRIPOS>BOND
     1    30    29   ar
     2    31    29   ar
     3    29    28    1
     4    28    25    1
     5    27    26    2
     6    25    26    1
     7    25    24    1
     8    24    21   am
     9    10     9   ar
    10    18    16    1
    11     2     1    2
    12    22    21    2
    13    21    20    1
    14    15    14    2
    15     9    11   ar
    16     9     8    1
    17     1     3    1
    18     1     4   am
    19    14    19   am
    20    14    13    1
    21    12    13    1
    22    12     6   am
    23     5     4    1
    24     5     8    1
    25     5     6    1
    26    20    19    1
    27    20    23    1
    28    16    13    1
    29    16    17    1
    30     6     7    2
