@<TRIPOS>MOLECULE
3r7o_M61_A_1.pdb
 40 45 0 0 0
SMALL
GASTEIGER

@<TRIPOS>ATOM
      1  C         -4.4430   -8.3610  -16.5550 C.ar    1  M611        0.0223
      2  N         -6.7760   -8.9240  -16.6650 N.ar    1  M611       -0.2437
      3  O         -5.1400   -6.4670  -13.1050 O.2     1  M611       -0.2865
      4  S         -6.2770   -2.0310  -10.9750 S.O2    1  M611        0.1326
      5  C1        -5.5090   -9.0640  -17.0730 C.ar    1  M611        0.0989
      6  C2        -7.0070   -8.0380  -15.6860 C.ar    1  M611        0.0844
      7  C3        -5.9850   -7.3520  -15.0460 C.ar    1  M611        0.0566
      8  C4        -4.6860   -7.5210  -15.4870 C.ar    1  M611        0.0063
      9  C5        -8.4250   -7.9680  -15.3950 C.ar    1  M611        0.0192
     10  C6        -9.0930   -7.1100  -14.6220 C.ar    1  M611        0.0016
     11  C7        -8.6030   -5.9960  -13.8360 C.ar    1  M611        0.0032
     12  C8        -7.2920   -5.7020  -13.4960 C.ar    1  M611        0.0403
     13  C9        -6.1140   -6.5080  -13.8510 C.ar    1  M611        0.1970
     14  C10       -9.6010   -5.1370  -13.4290 C.ar    1  M611        0.0015
     15  C11       -9.3140   -4.0300  -12.6710 C.ar    1  M611        0.0181
     16  C12       -8.0170   -3.7730  -12.2890 C.ar    1  M611        0.0922
     17  C13       -7.0050   -4.6030  -12.7100 C.ar    1  M611        0.0213
     18  C14       -3.1130   -8.5120  -17.0850 C.ar    1  M611        0.0411
     19  C15       -6.5970   -0.5990  -13.2700 C.3     1  M611        0.1164
     20  N16       -5.6540   -1.3440  -12.4150 N.3     1  M611       -0.1372
     21  C17       -4.6650   -2.1180  -13.1930 C.3     1  M611        0.1293
     22  O18       -6.6320   -0.9440  -10.0820 O.2     1  M611       -0.1362
     23  O19       -5.3800   -3.0730  -10.5170 O.2     1  M611       -0.1362
     24  N20       -7.8160   -2.6250  -11.4540 N.pl3   1  M611       -0.0857
     25  C21       -3.3450   -1.3780  -13.1320 C.3     1  M611        0.1625
     26  C22       -2.9840   -0.8320  -14.5000 C.3     1  M611        0.1731
     27  O23       -1.7540   -0.1220  -14.4000 O.3     1  M611       -0.3485
     28  C24       -0.7300   -1.0250  -13.9920 C.3     1  M611        0.1742
     29  C25       -1.0880   -1.5880  -12.6290 C.3     1  M611        0.1742
     30  O26       -2.3250   -2.2860  -12.7230 O.3     1  M611       -0.3495
     31  C27       -2.7970   -9.2170  -18.2240 C.ar    1  M611        0.0966
     32  N28       -1.4530   -9.0340  -18.3850 N.ar    1  M611       -0.2512
     33  N29       -0.8810   -8.2550  -17.4490 N.ar    1  M611       -0.1677
     34  C30       -1.8950   -7.9380  -16.6440 C.ar    1  M611        0.1217
     35  C31       -0.6500   -9.5710  -19.4710 C.3     1  M611        0.1081
     36  C32        0.3900  -10.5390  -18.9270 C.3     1  M611        0.0432
     37  C33        1.4170  -10.9410  -19.9690 C.3     1  M611        0.0907
     38  N34        2.0040   -9.7070  -20.5480 N.3     1  M611       -0.2179
     39  C35        0.9780   -8.8970  -21.2600 C.3     1  M611        0.0907
     40  C36       -0.0140   -8.4150  -20.2220 C.3     1  M611        0.0432
@<TRIPOS>BOND
     1    39    38    1
     2    39    40    1
     3    38    37    1
     4    40    35    1
     5    37    36    1
     6    35    36    1
     7    35    32    1
     8    32    31   ar
     9    32    33   ar
    10    31    18   ar
    11    33    34   ar
    12    18    34   ar
    13    18     1    1
    14     5     2   ar
    15     5     1   ar
    16     2     6   ar
    17     1     8   ar
    18     6     9   ar
    19     6     7   ar
    20     8     7   ar
    21     9    10   ar
    22     7    13   ar
    23    10    11   ar
    24    26    27    1
    25    26    25    1
    26    27    28    1
    27    28    29    1
    28    13    12   ar
    29    13     3    2
    30    11    12   ar
    31    11    14   ar
    32    12    17   ar
    33    14    15   ar
    34    19    20    1
    35    21    25    1
    36    21    20    1
    37    25    30    1
    38    30    29    1
    39    17    16   ar
    40    15    16   ar
    41    20     4    1
    42    16    24    1
    43    24     4    1
    44     4    23    2
    45     4    22    2
