@<TRIPOS>MOLECULE
3r7q_FAV_A_1.pdb
 24 27 0 0 0
SMALL
GASTEIGER

@<TRIPOS>ATOM
      1  C1        16.4880   62.5540   21.2420 C.ar    1  FAV1        0.0002
      2  N1        24.2440   61.2120   19.6840 N.am    1  FAV1       -0.2522
      3  O1        18.4190   59.6390   23.5710 O.3     1  FAV1       -0.4706
      4  S1        20.9950   61.5420   20.4410 S.2     1  FAV1       -0.0825
      5  C2        15.7930   61.8340   22.2120 C.ar    1  FAV1        0.0031
      6  O2        24.5250   60.0650   21.5540 O.2     1  FAV1       -0.2690
      7  C3        16.4320   60.8670   22.9930 C.ar    1  FAV1        0.0369
      8  C4        17.7800   60.5830   22.8150 C.ar    1  FAV1        0.1394
      9  C5        18.4640   61.2910   21.8220 C.ar    1  FAV1        0.0398
     10  C6        17.8330   62.2720   21.0520 C.ar    1  FAV1        0.0035
     11  C7        19.8340   59.6090   23.8160 C.3     1  FAV1        0.2325
     12  C8        20.5780   60.2060   22.6310 C.ar    1  FAV1        0.0279
     13  C9        19.9010   60.9850   21.6840 C.ar    1  FAV1        0.0320
     14  C10       21.9080   60.0590   22.3540 C.ar    1  FAV1        0.0109
     15  C11       22.3460   60.6860   21.2200 C.ar    1  FAV1        0.0831
     16  C12       23.7540   60.6320   20.8070 C.2     1  FAV1        0.2588
     17  C13       23.4440   61.9340   18.7800 C.ar    1  FAV1        0.0647
     18  C14       23.4060   63.3200   18.9340 C.ar    1  FAV1        0.0158
     19  C15       22.6490   64.1270   18.0930 C.ar    1  FAV1        0.0013
     20  C16       21.9180   63.5470   17.0750 C.ar    1  FAV1        0.0009
     21  C17       21.9480   62.1650   16.8980 C.ar    1  FAV1        0.0127
     22  C18       22.7020   61.3480   17.7390 C.ar    1  FAV1        0.0713
     23  C19       25.6770   61.1030   19.4190 C.3     1  FAV1        0.1204
     24 CL1        22.6890   59.6350   17.4680 Cl      1  FAV1       -0.0809
@<TRIPOS>BOND
     1    21    20   ar
     2    21    22   ar
     3    20    19   ar
     4    24    22    1
     5    22    17   ar
     6    19    18   ar
     7    17    18   ar
     8    17     2    1
     9    23     2    1
    10     2    16   am
    11     4    15   ar
    12     4    13   ar
    13    16    15    1
    14    16     6    2
    15    10     1   ar
    16    10     9   ar
    17    15    14   ar
    18     1     5   ar
    19    13     9    1
    20    13    12   ar
    21     9     8   ar
    22     5     7   ar
    23    14    12   ar
    24    12    11    1
    25     8     7   ar
    26     8     3    1
    27     3    11    1
