@<TRIPOS>MOLECULE
3r7r_FAZ_A_1.pdb
 29 32 0 0 0
SMALL
GASTEIGER

@<TRIPOS>ATOM
      1  C1        17.4960   62.8130   22.3220 C.ar    1  FAZ1        0.0764
      2  N1        25.8180   61.7890   20.5530 N.am    1  FAZ1       -0.2522
      3  O1        19.2330   60.2410   24.0950 O.3     1  FAZ1       -0.4750
      4  S1        22.6460   62.0630   21.3280 S.2     1  FAZ1       -0.0826
      5  C2        18.4950   63.4000   21.5640 C.ar    1  FAZ1        0.0168
      6  N2        16.1810   63.2540   22.2660 N.am    1  FAZ1       -0.1791
      7  O2        26.1110   60.3600   22.1660 O.2     1  FAZ1       -0.2690
      8  C3        19.7780   62.9280   21.6530 C.ar    1  FAZ1        0.0048
      9  O3        16.7630   65.3540   21.8460 O.2     1  FAZ1       -0.2730
     10  C4        20.0950   61.8660   22.4760 C.ar    1  FAZ1        0.0398
     11  C5        19.0650   61.2660   23.2460 C.ar    1  FAZ1        0.1402
     12  C6        17.7910   61.7540   23.1500 C.ar    1  FAZ1        0.0535
     13  C7        21.5060   61.4510   22.4680 C.ar    1  FAZ1        0.0287
     14  C8        22.1460   60.5790   23.3110 C.ar    1  FAZ1       -0.0117
     15  C9        21.4670   59.8660   24.4370 C.3     1  FAZ1        0.0742
     16  C10       20.2120   59.2570   23.8630 C.3     1  FAZ1        0.2101
     17  C11       23.9540   61.1240   22.0030 C.ar    1  FAZ1        0.0830
     18  C12       23.4680   60.4110   23.0360 C.ar    1  FAZ1        0.0074
     19  C13       25.3370   61.0780   21.5740 C.2     1  FAZ1        0.2588
     20  C14       25.0190   62.6470   19.8230 C.ar    1  FAZ1        0.0647
     21  C15       24.9780   63.9920   20.1220 C.ar    1  FAZ1        0.0158
     22  C16       24.1690   64.8150   19.3650 C.ar    1  FAZ1        0.0013
     23  C17       23.4020   64.3040   18.3170 C.ar    1  FAZ1        0.0009
     24  C18       23.4480   62.9650   18.0240 C.ar    1  FAZ1        0.0127
     25  C19       24.2630   62.1610   18.7830 C.ar    1  FAZ1        0.0713
     26  C20       15.8860   64.5370   22.0200 C.2     1  FAZ1        0.2461
     27  C21       14.4420   64.9390   21.9760 C.3     1  FAZ1        0.0968
     28  C22       27.2280   61.6590   20.2350 C.3     1  FAZ1        0.1204
     29 CL1        24.3410   60.4850   18.4390 Cl      1  FAZ1       -0.0809
@<TRIPOS>BOND
     1    24    23   ar
     2    24    25   ar
     3    23    22   ar
     4    29    25    1
     5    25    20   ar
     6    22    21   ar
     7    20    21   ar
     8    20     2    1
     9    28     2    1
    10     2    19   am
    11     4    17   ar
    12     4    13   ar
    13     5     8   ar
    14     5     1   ar
    15    19    17    1
    16    19     7    2
    17     8    10   ar
    18     9    26    2
    19    27    26    1
    20    17    18   ar
    21    26     6   am
    22     6     1    1
    23     1    12   ar
    24    13    10    1
    25    13    14   ar
    26    10    11   ar
    27    18    14   ar
    28    12    11   ar
    29    11     3    1
    30    14    15    1
    31    16     3    1
    32    16    15    1
