@<TRIPOS>MOLECULE
3r7u_X96_A_1.pdb
 22 23 0 0 0
SMALL
GASTEIGER

@<TRIPOS>ATOM
      1  C1        94.7070   80.5750  -47.1130 C.ar  523  X96523      0.1431
      2  N1        95.9710   80.1460  -46.7200 N.pl3 523  X96523      0.0577
      3  O1        96.1770   79.6330  -45.5000 O.2   523  X96523     -0.1261
      4  C2        94.4950   81.1220  -48.4130 C.ar  523  X96523      0.0300
      5  N2        93.9150   81.6570  -51.2160 N.am  523  X96523     -0.0837
      6  O2        97.0150   80.2310  -47.5480 O.2   523  X96523     -0.1261
      7  C3        93.2020   81.5670  -48.8410 C.ar  523  X96523      0.0731
      8  N3        90.8530   81.8660  -48.3380 N.pl3 523  X96523     -0.2327
      9  O3        92.2140   83.0530  -50.5130 O.2   523  X96523     -0.2666
     10  C4        92.0580   81.4630  -47.9420 C.ar  523  X96523      0.0702
     11  N4        87.3540   86.2530  -43.4540 N.3   523  X96523     -0.1262
     12  C5        92.3090   80.9020  -46.6200 C.ar  523  X96523      0.0179
     13  C6        93.5980   80.4770  -46.2300 C.ar  523  X96523      0.0254
     14  C7        93.1120   82.1120  -50.2310 C.2   523  X96523      0.2855
     15  C8        89.5730   81.7880  -47.5870 C.3   523  X96523      0.1385
     16  C9        89.3730   82.8990  -46.5850 C.ar  523  X96523     -0.0007
     17  C10       88.8780   82.5870  -45.2800 C.ar  523  X96523     -0.0028
     18  C11       88.6820   83.6080  -44.3180 C.ar  523  X96523     -0.0031
     19  C12       88.9750   84.9770  -44.6330 C.ar  523  X96523     -0.0032
     20  C13       89.4710   85.2850  -45.9500 C.ar  523  X96523     -0.0031
     21  C14       89.6660   84.2570  -46.9110 C.ar  523  X96523     -0.0028
     22  C15       88.7690   85.9360  -43.6560 C.3   523  X96523      0.1356
@<TRIPOS>BOND
     1     5    14   am
     2     9    14    2
     3    14     7    1
     4     7     4   ar
     5     7    10   ar
     6     4     1   ar
     7     8    10    1
     8     8    15    1
     9    10    12   ar
    10    15    16    1
    11     6     2    2
    12     1     2    1
    13     1    13   ar
    14    21    16   ar
    15    21    20   ar
    16     2     3    2
    17    12    13   ar
    18    16    17   ar
    19    20    19   ar
    20    17    18   ar
    21    19    18   ar
    22    19    22    1
    23    22    11    1
