@<TRIPOS>MOLECULE
3r7v_Z02_A_1.pdb
 20 21 0 0 0
SMALL
GASTEIGER

@<TRIPOS>ATOM
      1  N01      -94.9740  -44.4010  -82.0990 N.pl3 490  Z02490      0.0577
      2  N02      -93.0660  -45.8490  -86.5060 N.am  490  Z02490     -0.0837
      3  N03      -90.0750  -46.3300  -83.6460 N.pl3 490  Z02490     -0.2310
      4  N04      -87.6670  -47.1130  -80.8680 N.ar  490  Z02490     -0.2464
      5  C05      -93.6200  -45.3620  -83.7850 C.ar  490  Z02490      0.0300
      6  C06      -92.3520  -45.8700  -84.2150 C.ar  490  Z02490      0.0731
      7  C07      -91.2400  -45.8710  -83.2810 C.ar  490  Z02490      0.0703
      8  C08      -91.4530  -45.3570  -81.9480 C.ar  490  Z02490      0.0179
      9  C09      -92.7230  -44.8590  -81.5500 C.ar  490  Z02490      0.0254
     10  C10      -93.8180  -44.8560  -82.4620 C.ar  490  Z02490      0.1431
     11  C11      -92.2350  -46.3390  -85.5220 C.2   490  Z02490      0.2855
     12  C12      -88.8070  -46.1390  -82.8570 C.3   490  Z02490      0.1575
     13  C13      -88.5040  -47.3250  -81.9470 C.ar  490  Z02490      0.0808
     14  C14      -87.3930  -48.1840  -80.0440 C.ar  490  Z02490      0.0985
     15  C15      -87.9260  -49.4780  -80.2490 C.ar  490  Z02490      0.0207
     16  C16      -88.7790  -49.6670  -81.3590 C.ar  490  Z02490      0.0029
     17  C17      -89.0790  -48.5870  -82.2270 C.ar  490  Z02490      0.0165
     18  O18      -91.4080  -47.1640  -85.8270 O.2   490  Z02490     -0.2666
     19  O19      -95.9550  -44.2190  -82.9820 O.2   490  Z02490     -0.1261
     20  O20      -95.2050  -44.1080  -80.8360 O.2   490  Z02490     -0.1261
@<TRIPOS>BOND
     1     2    11   am
     2    18    11    2
     3    11     6    1
     4     6     5   ar
     5     6     7   ar
     6     5    10   ar
     7     3     7    1
     8     3    12    1
     9     7     8   ar
    10    19     1    2
    11    12    13    1
    12    10     1    1
    13    10     9   ar
    14    17    13   ar
    15    17    16   ar
    16     1    20    2
    17     8     9   ar
    18    13     4   ar
    19    16    15   ar
    20     4    14   ar
    21    15    14   ar
