@<TRIPOS>MOLECULE
3r7w_GNP_A_1.pdb
 32 34 0 0 0
SMALL
GASTEIGER

@<TRIPOS>ATOM
      1  PG        16.6750  109.9360   97.6080 P.3   500  GNP500      0.4884
      2  O1G       18.1780  109.7740   97.5380 O.3   500  GNP500     -0.1240
      3  O2G       16.1900  109.5960   98.9850 O.3   500  GNP500     -0.1240
      4  O3G       16.2620  111.3440   97.2660 O.2   500  GNP500     -0.2331
      5  N3B       16.1190  108.9620   96.4420 N.3   500  GNP500     -0.0163
      6  PB        16.3150  109.3340   94.8820 P.3   500  GNP500      0.4669
      7  O1B       15.5760  110.5940   94.6210 O.2   500  GNP500     -0.2351
      8  O2B       17.7990  109.3830   94.6930 O.3   500  GNP500     -0.1253
      9  O3A       15.8000  108.2930   93.8430 O.3   500  GNP500     -0.2360
     10  PA        16.7120  107.1870   93.2440 P.3   500  GNP500      0.2220
     11  O1A       16.9350  107.5110   91.8200 O.2   500  GNP500     -0.5170
     12  O2A       17.8570  106.9900   94.1530 O.3   500  GNP500     -0.4370
     13  O5'       16.0320  105.7520   93.1910 O.3   500  GNP500     -0.3111
     14  C5'       14.6420  105.7440   92.9380 C.3   500  GNP500      0.1813
     15  C4'       14.1830  104.4770   92.2760 C.3   500  GNP500      0.1799
     16  O4'       13.3890  104.8050   91.1160 O.3   500  GNP500     -0.3326
     17  C3'       15.2600  103.5680   91.7560 C.3   500  GNP500      0.2158
     18  O3'       14.6890  102.3190   91.9230 O.3   500  GNP500     -0.2175
     19  C2'       15.3890  103.9210   90.2670 C.3   500  GNP500      0.2310
     20  O2'       15.7280  102.8290   89.4450 O.3   500  GNP500     -0.2158
     21  C1'       13.9640  104.2620   89.9230 C.3   500  GNP500      0.2293
     22  N9        13.7500  105.2690   88.8900 N.pl3 500  GNP500     -0.2354
     23  C8        14.3590  106.4870   88.7280 C.3   500  GNP500      0.2246
     24  N7        13.8710  107.1700   87.7320 N.2   500  GNP500     -0.2322
     25  C5        12.8720  106.3610   87.2140 C.2   500  GNP500      0.2182
     26  C6        11.9790  106.5530   86.1280 C.1   500  GNP500      0.2372
     27  O6        11.8790  107.5030   85.3410 O.2   500  GNP500     -0.2069
     28  N1        11.1120  105.4800   85.9620 N.2   500  GNP500     -0.2485
     29  C2        11.1050  104.3500   86.7280 C.1   500  GNP500      0.2531
     30  N2        10.1940  103.4400   86.3650 N.pl3 500  GNP500     -0.0226
     31  N3        11.9300  104.1490   87.7480 N.2   500  GNP500     -0.3074
     32  C4        12.7760  105.1930   87.9300 C.2   500  GNP500      0.2300
@<TRIPOS>BOND
     1    27    26    2
     2    28    26    2
     3    28    29    2
     4    26    25    1
     5    30    29    1
     6    29    31    2
     7    25    24    2
     8    25    32    1
     9    24    23    1
    10    31    32    2
    11    32    22    1
    12    23    22    1
    13    22    21    1
    14    20    19    1
    15    21    19    1
    16    21    16    1
    17    19    17    1
    18    16    15    1
    19    17    18    1
    20    17    15    1
    21    11    10    2
    22    15    14    1
    23    14    13    1
    24    13    10    1
    25    10     9    1
    26    10    12    1
    27     9     6    1
    28     7     6    2
    29     8     6    1
    30     6     5    1
    31     5     1    1
    32     4     1    2
    33     2     1    1
    34     1     3    1
