@<TRIPOS>MOLECULE
3r7x_QSN_A_1.pdb
 25 27 0 0 0
SMALL
GASTEIGER

@<TRIPOS>ATOM
      1  N1        31.1310   -0.9900  -13.4800 N.pl3 264  QSN264      0.0592
      2  O2        30.3060   -1.8790  -13.5590 O.2   264  QSN264     -0.1261
      3  O3        32.1090   -1.0970  -12.4700 O.2   264  QSN264     -0.1261
      4  C4        31.1050    0.0630  -14.3420 C.2   264  QSN264      0.1608
      5  C5        31.9140    1.2160  -14.1720 C.2   264  QSN264      0.0846
      6  C6        31.8360    2.2550  -15.0980 C.2   264  QSN264      0.0091
      7  C8        30.9700    2.1680  -16.1840 C.3   264  QSN264      0.1556
      8  C9        30.1680    1.0300  -16.3760 C.2   264  QSN264      0.1374
      9  C10       30.2340   -0.0220  -15.4520 C.2   264  QSN264      0.0549
     10  N12       29.3130    0.9710  -17.5010 N.2   264  QSN264     -0.3235
     11  C14       29.2560    1.9930  -18.3930 C.1   264  QSN264      0.2909
     12  N15       30.0290    3.1110  -18.2290 N.am  264  QSN264     -0.0767
     13  C16       30.8760    3.2820  -17.1900 C.2   264  QSN264      0.2659
     14  O17       31.5860    4.2830  -17.0460 O.2   264  QSN264     -0.2716
     15  N18       29.9330    4.2020  -19.1750 N.3   264  QSN264      0.0320
     16  S20       28.7980    5.3560  -18.8770 S.O2  264  QSN264      0.0770
     17  O21       28.6570    6.2180  -20.0300 O.2   264  QSN264     -0.1546
     18  O22       27.6310    4.6290  -18.4280 O.2   264  QSN264     -0.1546
     19  C23       29.3850    6.3480  -17.4770 C.3   264  QSN264      0.1994
     20  O27       28.4980    1.8860  -19.3530 O.2   264  QSN264     -0.1912
     21  N28       32.7860    1.4340  -13.1500 N.ar  264  QSN264     -0.2851
     22  C29       32.4880    2.0310  -12.0360 C.ar  264  QSN264      0.1829
     23  N31       33.5050    2.0910  -11.3140 N.ar  264  QSN264     -0.2220
     24  C32       34.6330    1.4980  -11.9860 C.ar  264  QSN264      0.1196
     25  C34       34.0630    1.1140  -13.1510 C.ar  264  QSN264      0.1023
@<TRIPOS>BOND
     1    17    16    2
     2    20    11    2
     3    15    16    1
     4    15    12    1
     5    16    18    2
     6    16    19    1
     7    11    12   am
     8    11    10    2
     9    12    13   am
    10    10     8    2
    11    13    14    2
    12    13     7    1
    13     8     7    1
    14     8     9    1
    15     7     6    1
    16     9     4    2
    17     6     5    2
    18     4     5    1
    19     4     1    1
    20     5    21    1
    21     2     1    2
    22     1     3    2
    23    25    21   ar
    24    25    24   ar
    25    21    22   ar
    26    22    23   ar
    27    24    23   ar
