@<TRIPOS>MOLECULE
3r7x_GLU_B_1.pdb
 10 9 0 0 0
SMALL
GASTEIGER

@<TRIPOS>ATOM
      1  N          1.1550   -1.9230  -16.0080 N.3   264  GLU264     -0.1208
      2  CA         0.4450   -3.2240  -16.1500 C.3   264  GLU264      0.1949
      3  C          0.3230   -3.5690  -17.6170 C.2   264  GLU264      0.3819
      4  O         -0.2530   -4.5920  -17.9610 O.co2 264  GLU264     -0.2441
      5  CB        -0.9550   -3.1860  -15.5150 C.3   264  GLU264      0.0424
      6  CG        -0.9740   -3.1710  -13.9770 C.3   264  GLU264      0.1161
      7  CD        -0.8410   -4.5630  -13.3290 C.2   264  GLU264      0.3649
      8  OE1       -0.6050   -4.6230  -12.1080 O.co2 264  GLU264     -0.2457
      9  OE2       -0.9640   -5.5920  -14.0190 O.co2 264  GLU264     -0.2457
     10  OXT        0.8000   -2.8300  -18.4830 O.co2 264  GLU264     -0.2441
@<TRIPOS>BOND
     1    10     3   ar
     2     4     3   ar
     3     3     2    1
     4     2     1    1
     5     2     5    1
     6     5     6    1
     7     9     7   ar
     8     6     7    1
     9     7     8   ar
