@<TRIPOS>MOLECULE
3r7y_Z04_A_1.pdb
 27 29 0 0 0
SMALL
GASTEIGER

@<TRIPOS>ATOM
      1  N01      117.8460   46.5360  -47.9180 N.pl3 484  Z04484     -0.2328
      2  N02      120.9910   46.3070  -50.6090 N.am  484  Z04484     -0.0837
      3  N03      116.3160   49.3660  -45.0830 N.2   484  Z04484     -0.1783
      4  N04      115.8450   47.4260  -43.7120 N.2   484  Z04484     -0.2007
      5  N05      120.3060   44.3060  -44.5470 N.pl3 484  Z04484     -0.3014
      6  N06      115.8770   49.5240  -42.8820 N.pl3 484  Z04484     -0.0461
      7  N07      122.6650   44.3940  -46.3330 N.pl3 484  Z04484      0.0589
      8  C08      121.3610   45.5210  -47.9200 C.ar  484  Z04484      0.0313
      9  C09      120.1380   46.0880  -48.3710 C.ar  484  Z04484      0.0732
     10  C11      118.9820   46.0290  -47.5160 C.ar  484  Z04484      0.0715
     11  C12      119.1040   45.4100  -46.2260 C.ar  484  Z04484      0.0324
     12  C13      120.3210   44.8410  -45.7520 C.ar  484  Z04484      0.0720
     13  C14      121.4990   44.8900  -46.6350 C.ar  484  Z04484      0.1563
     14  C15      120.0960   46.6790  -49.6390 C.2   484  Z04484      0.2855
     15  C16      116.5110   46.2550  -47.2950 C.3   484  Z04484      0.1378
     16  C17      116.3190   47.1480  -46.0890 C.2   484  Z04484      0.0222
     17  C18      116.4640   48.5390  -46.1540 C.2   484  Z04484      0.1060
     18  C19      116.0130   48.7680  -43.9000 C.1   484  Z04484      0.1286
     19  C20      116.0050   46.6420  -44.8220 C.3   484  Z04484      0.1630
     20  C21      119.2720   43.2640  -44.2200 C.3   484  Z04484      0.1231
     21  C22      119.0680   43.0780  -42.7090 C.3   484  Z04484      0.1636
     22  C23      121.2660   44.7920  -43.4860 C.3   484  Z04484      0.1231
     23  C24      120.8130   44.4310  -42.0660 C.3   484  Z04484      0.1636
     24  O25      119.2790   47.5370  -49.9050 O.2   484  Z04484     -0.2666
     25  O26      120.3430   43.1000  -42.0880 O.3   484  Z04484     -0.3501
     26  O27      122.8170   43.5200  -45.3760 O.2   484  Z04484     -0.1261
     27  O28      123.7440   44.7320  -47.0330 O.2   484  Z04484     -0.1261
@<TRIPOS>BOND
     1     2    14   am
     2    24    14    2
     3    14     9    1
     4     9     8   ar
     5     9    10   ar
     6     8    13   ar
     7     1    10    1
     8     1    15    1
     9    10    11   ar
    10    15    16    1
    11    27     7    2
    12    13     7    1
    13    13    12   ar
    14     7    26    2
    15    11    12   ar
    16    17    16    2
    17    17     3    1
    18    16    19    1
    19    12     5    1
    20     3    18    2
    21    19     4    1
    22     5    20    1
    23     5    22    1
    24    20    21    1
    25    18     4    2
    26    18     6    1
    27    22    23    1
    28    21    25    1
    29    25    23    1
