@<TRIPOS>MOLECULE
3r83_Z14_A_1.pdb
 28 30 0 0 0
SMALL
GASTEIGER

@<TRIPOS>ATOM
      1  N01      -78.2500  102.9630    7.3090 N.pl3 589  Z14589     -0.2328
      2  N02      -81.3430  105.7040    7.5340 N.am  589  Z14589     -0.0837
      3  N03      -76.2700   98.7360    6.3040 N.2   589  Z14589     -0.2007
      4  N04      -76.6850  100.1690    4.3930 N.2   589  Z14589     -0.1783
      5  N05      -80.8410   99.6130    9.5140 N.pl3 589  Z14589     -0.3061
      6  N06      -81.3590   95.8790   11.5400 N.3   589  Z14589     -0.1328
      7  N07      -76.2590   97.9640    4.1870 N.pl3 589  Z14589     -0.0461
      8  N08      -83.1490  101.4630    9.3950 N.pl3 589  Z14589      0.0589
      9  C09      -81.7990  103.0160    8.2860 C.ar  589  Z14589      0.0313
     10  C10      -80.5520  103.4460    7.7310 C.ar  589  Z14589      0.0732
     11  C11      -79.4090  102.5750    7.8110 C.ar  589  Z14589      0.0715
     12  C12      -79.5690  101.2840    8.4340 C.ar  589  Z14589      0.0324
     13  C13      -80.8130  100.8340    8.9870 C.ar  589  Z14589      0.0719
     14  C14      -81.9700  101.7410    8.9190 C.ar  589  Z14589      0.1563
     15  C15      -80.4880  104.7060    7.1300 C.2   589  Z14589      0.2855
     16  C16      -76.9230  102.2970    7.5790 C.3   589  Z14589      0.1378
     17  C17      -76.7300  101.1180    6.6440 C.2   589  Z14589      0.0222
     18  C18      -76.4380   99.8310    7.1170 C.3   589  Z14589      0.1630
     19  C19      -76.4050   98.9610    4.9650 C.1   589  Z14589      0.1286
     20  C20      -76.8420  101.2270    5.2540 C.2   589  Z14589      0.1060
     21  C21      -81.8630   98.6290    8.9880 C.3   589  Z14589      0.0923
     22  C22      -82.2330   97.5270    9.9910 C.3   589  Z14589      0.0405
     23  C23      -79.7620   99.1510   10.4520 C.3   589  Z14589      0.0923
     24  C24      -80.1900   98.0000   11.3740 C.3   589  Z14589      0.0405
     25  C25      -80.9730   96.9280   10.6100 C.3   589  Z14589      0.0952
     26  O26      -79.6950  104.9480    6.2270 O.2   589  Z14589     -0.2666
     27  O27      -83.3080  100.6740   10.4230 O.2   589  Z14589     -0.1261
     28  O28      -84.2210  102.0440    8.8980 O.2   589  Z14589     -0.1261
@<TRIPOS>BOND
     1     7    19    1
     2     4    19    2
     3     4    20    1
     4    19     3    2
     5    20    17    2
     6    26    15    2
     7     3    18    1
     8    17    18    1
     9    17    16    1
    10    15     2   am
    11    15    10    1
    12     1    16    1
    13     1    11    1
    14    10    11   ar
    15    10     9   ar
    16    11    12   ar
    17     9    14   ar
    18    12    13   ar
    19    28     8    2
    20    14    13   ar
    21    14     8    1
    22    13     5    1
    23    21     5    1
    24    21    22    1
    25     8    27    2
    26     5    23    1
    27    22    25    1
    28    23    24    1
    29    25    24    1
    30    25     6    1
