@<TRIPOS>MOLECULE
3r88_PRP_A_1.pdb
 22 22 0 0 0
SMALL
GASTEIGER

@<TRIPOS>ATOM
      1  C1         1.9780    2.1360   32.0250 C.3   401  PRP401      0.2742
      2  C2         2.7460    1.6560   30.7910 C.3   401  PRP401      0.2408
      3  C3         2.7510    2.9270   29.9300 C.3   401  PRP401      0.2167
      4  C4         1.3910    3.5100   30.3370 C.3   401  PRP401      0.1808
      5  C5         0.4730    3.6300   29.1490 C.3   401  PRP401      0.1859
      6  O1         2.2820    3.4660   32.4920 O.3   401  PRP401     -0.2857
      7  O2         4.0530    1.1550   31.0840 O.3   401  PRP401     -0.2149
      8  O3         3.7880    3.8600   30.3260 O.3   401  PRP401     -0.2175
      9  O4         0.8530    2.5370   31.2710 O.3   401  PRP401     -0.3255
     10  O5         0.5470    2.4380   28.4100 O.3   401  PRP401     -0.2675
     11  P         -0.4300    2.2700   27.1610 P.3   401  PRP401      0.5327
     12  O1P       -1.8030    2.9490   27.5490 O.3   401  PRP401     -0.1145
     13  O2P        0.2580    3.0750   25.9840 O.2   401  PRP401     -0.2224
     14  O3P       -0.6270    0.8510   26.7700 O.3   401  PRP401     -0.1145
     15  PA         2.7600    4.0490   33.9270 P.3   401  PRP401      0.2249
     16  O1A        1.5390    4.0450   34.8910 O.3   401  PRP401     -0.4370
     17  O2A        3.9440    3.3230   34.4430 O.2   401  PRP401     -0.5169
     18  O3A        3.1610    5.6080   33.6590 O.3   401  PRP401     -0.2260
     19  PB         2.2030    6.8750   33.3940 P.3   401  PRP401      0.5373
     20  O1B        3.0890    8.0190   33.9890 O.3   401  PRP401     -0.1143
     21  O2B        2.1860    7.0060   31.7980 O.2   401  PRP401     -0.2221
     22  O3B        0.8820    6.7880   34.0740 O.3   401  PRP401     -0.1143
@<TRIPOS>BOND
     1    13    11    2
     2    14    11    1
     3    11    12    1
     4    11    10    1
     5    10     5    1
     6     5     4    1
     7     3     8    1
     8     3     4    1
     9     3     2    1
    10     4     9    1
    11     2     7    1
    12     2     1    1
    13     9     1    1
    14    21    19    2
    15     1     6    1
    16     6    15    1
    17    19    18    1
    18    19    20    1
    19    19    22    1
    20    18    15    1
    21    15    17    2
    22    15    16    1
