@<TRIPOS>MOLECULE
3r88_14F_B_1.pdb
 14 14 0 0 0
SMALL
GASTEIGER

@<TRIPOS>ATOM
      1  CAA       -8.2390  -29.4020    5.7910 C.3   404  14F404      0.2526
      2  CAB       -4.4180  -32.1130    8.8800 C.3   404  14F404      0.2526
      3  NAC       -3.5570  -28.2310    4.2100 N.pl3 404  14F404     -0.1277
      4  OAD       -0.9460  -30.0760    6.8140 O.co2 404  14F404     -0.2405
      5  OAE       -1.2310  -28.6930    5.1150 O.co2 404  14F404     -0.2405
      6  CAF       -5.4140  -29.2270    5.2580 C.ar  404  14F404      0.0583
      7  CAG       -3.6750  -30.4740    7.0460 C.ar  404  14F404      0.0480
      8  OAH       -7.2800  -30.2860    6.4060 O.3   404  14F404     -0.4683
      9  OAI       -5.5040  -31.4810    8.1340 O.3   404  14F404     -0.4684
     10  CAJ       -1.6660  -29.4580    5.9960 C.2   404  14F404      0.3892
     11  CAK       -4.0370  -29.0200    5.1620 C.ar  404  14F404      0.0987
     12  CAL       -5.9350  -30.0490    6.2630 C.ar  404  14F404      0.1737
     13  CAM       -5.0460  -30.6670    7.1570 C.ar  404  14F404      0.1727
     14  CAN       -3.1690  -29.6440    6.0670 C.ar  404  14F404      0.0997
@<TRIPOS>BOND
     1     3    11    1
     2     5    10   ar
     3    11     6   ar
     4    11    14   ar
     5     6    12   ar
     6     1     8    1
     7    10    14    1
     8    10     4   ar
     9    14     7   ar
    10    12     8    1
    11    12    13   ar
    12     7    13   ar
    13    13     9    1
    14     9     2    1
