@<TRIPOS>MOLECULE
3r8a_HIG_A_1.pdb
 33 38 0 0 0
SMALL
GASTEIGER

@<TRIPOS>ATOM
      1  N1        16.9910   16.8560   11.3160 N.pl3   1  HIG1       -0.2373
      2  C2        18.2240   17.0930   10.4840 C.3     1  HIG1        0.1040
      3  C3        17.1530   16.6360   12.5950 C.2     1  HIG1        0.2178
      4  C4        15.6680   16.8480   11.0130 C.2     1  HIG1        0.1658
      5  C5        18.0460   18.4200    9.8200 C.ar    1  HIG1       -0.0078
      6  C6        18.5410   16.1130    9.3430 C.3     1  HIG1        0.0294
      7  C7        15.8870   16.4720   13.1870 C.2     1  HIG1        0.1726
      8  N8        18.3280   16.5670   13.3090 N.2     1  HIG1       -0.3883
      9  N9        14.9930   16.6040   12.1700 N.2     1  HIG1       -0.3875
     10  C10       15.0800   17.0720    9.6090 C.3     1  HIG1        0.0752
     11  C11       18.6110   18.3820    8.5720 C.ar    1  HIG1       -0.0245
     12  C12       17.3940   19.5830   10.3040 C.ar    1  HIG1       -0.0030
     13  C13       19.2270   17.0000    8.2980 C.3     1  HIG1        0.0282
     14  C14       15.8240   16.2220   14.6130 C.2     1  HIG1        0.0139
     15  C15       18.3000   16.3350   14.6720 C.2     1  HIG1        0.1109
     16  C16       13.6940   16.5480    9.4380 C.3     1  HIG1        0.0093
     17  C17       18.5650   19.5290    7.7420 C.ar    1  HIG1       -0.0045
     18  C18       17.3460   20.7290    9.4640 C.ar    1  HIG1       -0.0003
     19  C19       17.0510   16.1570   15.3500 C.2     1  HIG1        0.0260
     20  C20       14.5180   16.0320   15.3730 C.3     1  HIG1        0.0339
     21  C21       19.6120   16.2820   15.3990 C.3     1  HIG1        0.0665
     22  C22       17.9210   20.7150    8.1730 C.ar    1  HIG1        0.0003
     23  C23       17.8910   21.9010    7.2220 C.ar    1  HIG1        0.0095
     24  C24       16.7300   22.6690    6.9080 C.ar    1  HIG1        0.0659
     25  C25       19.0980   22.2780    6.5720 C.ar    1  HIG1        0.0007
     26  C26       15.4150   22.4040    7.5050 C.1     1  HIG1        0.0806
     27  C27       16.7720   23.7520    6.0080 C.ar    1  HIG1        0.0101
     28  C28       19.1450   23.3650    5.6600 C.ar    1  HIG1        0.0000
     29  N29       14.6700   23.3540    8.1280 N.2     1  HIG1       -0.0711
     30  N30       14.7790   21.1970    7.5370 N.2     1  HIG1       -0.0711
     31  C31       17.9750   24.1040    5.3840 C.ar    1  HIG1        0.0007
     32  N32       13.5140   22.6940    8.5570 N.2     1  HIG1       -0.0129
     33  N33       13.5860   21.4250    8.2100 N.2     1  HIG1       -0.0129
@<TRIPOS>BOND
     1    31    28   ar
     2    31    27   ar
     3    28    25   ar
     4    27    24   ar
     5    25    23   ar
     6    24    23   ar
     7    24    26    1
     8    23    22    1
     9    26    30    2
    10    26    29    2
    11    30    33    1
    12    17    22   ar
    13    17    11   ar
    14    29    32    1
    15    22    18   ar
    16    33    32    2
    17    13    11    1
    18    13     6    1
    19    11     5   ar
    20     6     2    1
    21    16    10    1
    22    18    12   ar
    23    10     4    1
    24     5    12   ar
    25     5     2    1
    26     2     1    1
    27     4     1    1
    28     4     9    2
    29     1     3    1
    30     9     7    2
    31     3     7    1
    32     3     8    2
    33     7    14    1
    34     8    15    2
    35    14    19    2
    36    14    20    1
    37    15    19    1
    38    15    21    1
