@<TRIPOS>MOLECULE
3r8d_PNU_A_1.pdb
 20 22 0 0 0
SMALL
GASTEIGER

@<TRIPOS>ATOM
      1  C1       -13.2950   -9.4100  -22.8920 C.1     1  PNU1        0.1700
      2  N2       -12.2660  -10.2390  -23.1310 N.2     1  PNU1       -0.3205
      3  C3       -11.0240   -9.9130  -22.7470 C.2     1  PNU1        0.2174
      4  C4       -10.8010   -8.7110  -22.0940 C.3     1  PNU1        0.1509
      5  C5       -11.8830   -7.8720  -21.8560 C.2     1  PNU1        0.1874
      6  N6       -13.1050   -8.2410  -22.2610 N.2     1  PNU1       -0.3272
      7  C7       -20.0410   -9.3400  -23.5470 C.ar    1  PNU1        0.1438
      8  C8       -19.3590   -9.1780  -22.3480 C.3     1  PNU1        0.1883
      9  N9       -18.0740   -8.8640  -22.3470 N.2     1  PNU1       -0.2696
     10  C10      -17.3920   -8.6940  -23.4900 C.2     1  PNU1        0.0472
     11  C11      -18.0250   -8.8440  -24.7200 C.3     1  PNU1        0.0710
     12  C12      -19.3720   -9.1720  -24.7470 C.ar    1  PNU1        0.0189
     13  C13      -20.2370   -9.3800  -25.7380 C.ar    1  PNU1        0.0395
     14  O14      -21.3330   -9.6540  -23.8500 O.2     1  PNU1       -0.4530
     15  C15      -21.4290   -9.6720  -25.2180 C.ar    1  PNU1        0.1789
     16  C16      -15.9070   -8.3320  -23.4420 C.3     1  PNU1        0.0992
     17  S17      -14.9050   -9.8630  -23.4060 S.3     1  PNU1       -0.0133
     18  N18      -10.0100  -10.7410  -22.9900 N.pl3   1  PNU1       -0.0965
     19 CL19      -11.6510   -6.3630  -21.0460 Cl      1  PNU1       -0.0511
     20  C21      -15.5500   -7.4720  -24.6570 C.3     1  PNU1        0.0188
@<TRIPOS>BOND
     1    13    15   ar
     2    13    12   ar
     3    15    14   ar
     4    12    11    1
     5    12     7   ar
     6    11    10    1
     7    20    16    1
     8    14     7   ar
     9     7     8    1
    10    10    16    1
    11    10     9    2
    12    16    17    1
    13    17     1    1
    14     2     1    2
    15     2     3    2
    16    18     3    1
    17     1     6    2
    18     3     4    1
    19     8     9    1
    20     6     5    2
    21     4     5    1
    22     5    19    1
