@<TRIPOS>MOLECULE
3r8f_ACP_A_1.pdb
 31 33 0 0 0
SMALL
GASTEIGER

@<TRIPOS>ATOM
      1  PG        -8.3480  -28.0090   16.3170 P.3   700  ACP700      0.1295
      2  O1G       -7.0040  -28.5900   16.0010 O.2   700  ACP700     -0.4595
      3  O2G       -8.9520  -28.7470   17.4710 O.3   700  ACP700     -0.3567
      4  O3G       -8.1950  -26.5650   16.6730 O.3   700  ACP700     -0.3567
      5  PB        -9.3320  -26.6420   13.8560 P.3   700  ACP700      0.3815
      6  O1B      -10.6970  -26.2180   13.4120 O.2   700  ACP700     -0.2547
      7  O2B       -8.6920  -25.5440   14.6460 O.3   700  ACP700     -0.1391
      8  C3B       -9.4360  -28.1650   14.8580 C.3   700  ACP700      0.1768
      9  PA        -7.8970  -25.8670   11.7150 P.3   700  ACP700      0.2209
     10  O1A       -8.9370  -24.8090   11.5150 O.2   700  ACP700     -0.5170
     11  O2A       -6.6720  -25.2640   12.3290 O.3   700  ACP700     -0.4371
     12  O3A       -8.4510  -27.0050   12.6230 O.3   700  ACP700     -0.2483
     13  O5'       -7.5440  -26.5430   10.3570 O.3   700  ACP700     -0.3111
     14  C5'       -6.3460  -27.2120   10.2230 C.3   700  ACP700      0.1813
     15  C4'       -5.7830  -26.9540    8.8680 C.3   700  ACP700      0.1821
     16  O4'       -6.6430  -27.4470    7.8980 O.3   700  ACP700     -0.3135
     17  C3'       -5.6130  -25.4950    8.6610 C.3   700  ACP700      0.2184
     18  O3'       -4.2840  -25.1840    8.4940 O.3   700  ACP700     -0.2174
     19  C2'       -6.3730  -25.1770    7.4430 C.3   700  ACP700      0.2570
     20  O2'       -5.5600  -24.5700    6.5150 O.3   700  ACP700     -0.2130
     21  C1'       -6.8640  -26.4790    6.9310 C.3   700  ACP700      0.3186
     22  N9        -8.2610  -26.3900    6.6400 N.pl3 700  ACP700     -0.1439
     23  C8        -9.2800  -26.9380    7.3870 C.3   700  ACP700      0.3377
     24  N7       -10.4620  -26.6460    6.8020 N.2   700  ACP700     -0.2095
     25  C5       -10.2030  -25.8920    5.6500 C.2   700  ACP700      0.2526
     26  C6       -11.0310  -25.3330    4.6850 C.2   700  ACP700      0.4393
     27  N6       -12.4460  -25.4970    4.7880 N.pl3 700  ACP700      0.2180
     28  N1       -10.5140  -24.6340    3.6480 N.2   700  ACP700      0.0021
     29  C2        -9.1700  -24.4970    3.5790 C.3   700  ACP700      0.5254
     30  N3        -8.3560  -25.0320    4.5040 N.2   700  ACP700     -0.0055
     31  C4        -8.8080  -25.7300    5.5480 C.2   700  ACP700      0.3518
@<TRIPOS>BOND
     1    29    28    1
     2    29    30    1
     3    28    26    2
     4    30    31    2
     5    26    27    1
     6    26    25    1
     7    31    25    1
     8    31    22    1
     9    25    24    2
    10    20    19    1
    11    22    21    1
    12    22    23    1
    13    24    23    1
    14    21    19    1
    15    21    16    1
    16    19    17    1
    17    16    15    1
    18    18    17    1
    19    17    15    1
    20    15    14    1
    21    14    13    1
    22    13     9    1
    23    10     9    2
    24     9    11    1
    25     9    12    1
    26    12     5    1
    27     6     5    2
    28     5     7    1
    29     5     8    1
    30     8     1    1
    31     2     1    2
    32     1     4    1
    33     1     3    1
