@<TRIPOS>MOLECULE
3r8g_IZP_A_1.pdb
 15 15 0 0 0
SMALL
GASTEIGER

@<TRIPOS>ATOM
      1  C1        -1.0560    3.5220   13.4990 C.2   409  IZP409      0.3683
      2  O1         0.2070    3.4190   13.7510 O.co2 409  IZP409     -0.2453
      3  C2        -1.7390    9.9830   14.9260 C.3   409  IZP409      0.0263
      4  O2        -1.6020    2.9750   12.5260 O.co2 409  IZP409     -0.2453
      5  C3        -3.0080   10.7670   15.1470 C.3   409  IZP409      0.0044
      6  C4        -2.6000   12.2000   15.4760 C.3   409  IZP409      0.0003
      7  C5        -3.8570   10.8140   13.8880 C.3   409  IZP409      0.0003
      8  C6        -2.0330    4.1560   14.5050 C.3   409  IZP409      0.1256
      9  C7        -3.5380    3.8150   14.1930 C.3   409  IZP409      0.0166
     10  C8        -1.9520    5.6770   14.5730 C.ar  409  IZP409     -0.0118
     11  C9        -2.1690    6.4720   13.4060 C.ar  409  IZP409     -0.0041
     12  C10       -2.0580    7.8590   13.5900 C.ar  409  IZP409     -0.0046
     13  C11       -1.8350    8.4580   14.8340 C.ar  409  IZP409     -0.0222
     14  C12       -1.6970    7.6630   15.9700 C.ar  409  IZP409     -0.0046
     15  C13       -1.7310    6.2530   15.8290 C.ar  409  IZP409     -0.0041
@<TRIPOS>BOND
     1     4     1   ar
     2    11    12   ar
     3    11    10   ar
     4     1     2   ar
     5     1     8    1
     6    12    13   ar
     7     7     5    1
     8     9     8    1
     9     8    10    1
    10    10    15   ar
    11    13     3    1
    12    13    14   ar
    13     3     5    1
    14     5     6    1
    15    15    14   ar
