@<TRIPOS>MOLECULE
3r8g_NAP_A_1.pdb
 48 52 0 0 0
SMALL
GASTEIGER

@<TRIPOS>ATOM
      1  PA         1.6530    3.6410    2.8000 P.3   700  NAP700      0.2189
      2  O1A        1.1360    5.0510    2.7240 O.2   700  NAP700     -0.5170
      3  O2A        3.0970    3.4500    2.8800 O.3   700  NAP700     -0.4371
      4  O5B        0.9250    2.7890    1.6180 O.3   700  NAP700     -0.3112
      5  C5B       -0.4790    2.9900    1.2490 C.3   700  NAP700      0.1813
      6  C4B       -0.8450    1.8790    0.1820 C.3   700  NAP700      0.1820
      7  O4B        0.0760    2.0520   -0.8350 O.3   700  NAP700     -0.3136
      8  C3B       -0.5230    0.4630    0.7250 C.3   700  NAP700      0.2157
      9  O3B       -1.7100   -0.0660    1.3540 O.3   700  NAP700     -0.2175
     10  C2B       -0.0510   -0.3200   -0.5110 C.3   700  NAP700      0.2314
     11  O2B       -1.0200   -1.2550   -0.9340 O.3   700  NAP700     -0.2630
     12  C1B        0.0280    0.7920   -1.5190 C.3   700  NAP700      0.3158
     13  N9A        1.3480    0.7300   -2.3260 N.pl3 700  NAP700     -0.1439
     14  C8A        2.5430    0.3820   -1.7970 C.3   700  NAP700      0.3377
     15  N7A        3.4300    0.4070   -2.7800 N.2   700  NAP700     -0.2095
     16  C5A        2.7950    0.7500   -3.9320 C.2   700  NAP700      0.2526
     17  C6A        3.2080    0.9090   -5.2550 C.2   700  NAP700      0.4393
     18  N6A        4.5000    0.7480   -5.6500 N.pl3 700  NAP700      0.2180
     19  N1A        2.2190    1.2310   -6.1630 N.2   700  NAP700      0.0021
     20  C2A        0.9430    1.4630   -5.7970 C.3   700  NAP700      0.5254
     21  N3A        0.4910    1.3000   -4.5580 N.2   700  NAP700     -0.0055
     22  C4A        1.4520    0.9770   -3.6220 C.2   700  NAP700      0.3518
     23  O3         0.8810    3.0390    4.0830 O.3   700  NAP700     -0.2703
     24  PN         0.7500    3.3040    5.6690 P.3   700  NAP700      0.2189
     25  O1N       -0.1670    4.4580    5.9310 O.2   700  NAP700     -0.5170
     26  O2N        0.4540    2.0210    6.3130 O.3   700  NAP700     -0.4371
     27  O5D        2.1840    3.8070    6.0950 O.3   700  NAP700     -0.3112
     28  C5D        3.3210    2.8820    6.0380 C.3   700  NAP700      0.1813
     29  C4D        3.7330    2.3110    7.4380 C.3   700  NAP700      0.1799
     30  O4D        4.0040    3.5180    8.2810 O.3   700  NAP700     -0.3327
     31  C3D        2.7030    1.4890    8.2030 C.3   700  NAP700      0.2158
     32  O3D        2.6440    0.1640    7.5990 O.3   700  NAP700     -0.2175
     33  C2D        3.3100    1.5630    9.5890 C.3   700  NAP700      0.2309
     34  O2D        4.4980    0.7570    9.6250 O.3   700  NAP700     -0.2158
     35  C1D        3.7430    3.0960    9.6440 C.3   700  NAP700      0.2263
     36  N1N        2.6760    3.9640   10.1990 N.pl3 700  NAP700     -0.2787
     37  C2N        2.9580    4.5140   11.4270 C.3   700  NAP700      0.1244
     38  C3N        2.0120    5.3470   12.0570 C.2   700  NAP700      0.0544
     39  C7N        2.3480    6.0420   13.3460 C.2   700  NAP700      0.2818
     40  O7N        1.4330    6.5140   14.0420 O.2   700  NAP700     -0.2670
     41  N7N        3.6920    6.1470   13.6180 N.am  700  NAP700     -0.0839
     42  C4N        0.7770    5.5740   11.4720 C.2   700  NAP700      0.0033
     43  C5N        0.5260    5.0090   10.1820 C.2   700  NAP700      0.0157
     44  C6N        1.4710    4.2100    9.5260 C.2   700  NAP700      0.0633
     45  P2B       -0.5250   -2.8050   -1.2130 P.3   700  NAP700      0.5328
     46  O1X        0.6820   -2.7150   -2.1810 O.2   700  NAP700     -0.2224
     47  O2X       -1.8950   -3.3770   -1.8790 O.3   700  NAP700     -0.1145
     48  O3X       -0.3160   -3.4350    0.1450 O.3   700  NAP700     -0.1145
@<TRIPOS>BOND
     1    19    20    1
     2    19    17    2
     3    20    21    1
     4    18    17    1
     5    17    16    1
     6    21    22    2
     7    16    22    1
     8    16    15    2
     9    22    13    1
    10    15    14    1
    11    13    14    1
    12    13    12    1
    13    46    45    2
    14    47    45    1
    15    12     7    1
    16    12    10    1
    17    45    11    1
    18    45    48    1
    19    11    10    1
    20     7     6    1
    21    10     8    1
    22     6     8    1
    23     6     5    1
    24     8     9    1
    25     5     4    1
    26     4     1    1
    27     2     1    2
    28     1     3    1
    29     1    23    1
    30    23    24    1
    31    24    25    2
    32    24    27    1
    33    24    26    1
    34    28    27    1
    35    28    29    1
    36    29    31    1
    37    29    30    1
    38    32    31    1
    39    31    33    1
    40    30    35    1
    41    44    43    2
    42    44    36    1
    43    33    34    1
    44    33    35    1
    45    35    36    1
    46    43    42    1
    47    36    37    1
    48    37    38    1
    49    42    38    2
    50    38    39    1
    51    39    41   am
    52    39    40    2
