@<TRIPOS>MOLECULE
3r8h_ZOM_A_1.pdb
 20 21 0 0 0
SMALL
GASTEIGER

@<TRIPOS>ATOM
      1 CL         32.2150   19.6830   14.9540 Cl    332  ZOM332     -0.0822
      2  N1        30.8550   27.7550   14.1800 N.ar  332  ZOM332     -0.3259
      3  C2        30.9530   28.3740   12.8420 C.ar  332  ZOM332      0.0483
      4  C3        31.3730   27.3800   11.9830 C.ar  332  ZOM332      0.0106
      5  C4        31.6630   26.2610   12.7050 C.ar  332  ZOM332     -0.0018
      6  C5        31.3860   26.4420   14.0630 C.ar  332  ZOM332      0.0951
      7  C6        31.5410   25.5540   15.3150 C.2   332  ZOM332      0.2109
      8  O6        31.7310   26.0880   16.4130 O.2   332  ZOM332     -0.2850
      9  C7        30.5270   29.8220   12.6210 C.3   332  ZOM332      0.1576
     10  C8        28.9970   29.8000   12.3710 C.2   332  ZOM332      0.3707
     11  C9        30.5500   28.4080   15.5020 C.3   332  ZOM332      0.1302
     12  OH        28.6810   30.3380   11.2840 O.co2 332  ZOM332     -0.2452
     13  C10       32.1260   24.9120   12.1080 C.3   332  ZOM332      0.0327
     14  C1B       31.6870   24.0870   15.1930 C.ar  332  ZOM332      0.0405
     15  C2B       32.9040   23.5800   15.6730 C.ar  332  ZOM332      0.0041
     16  C3B       32.9880   22.1610   15.5400 C.ar  332  ZOM332      0.0115
     17  C4B       31.9760   21.3760   15.0370 C.ar  332  ZOM332      0.0577
     18  C5B       30.7660   21.9020   14.5420 C.ar  332  ZOM332      0.0115
     19  C6B       30.6380   23.3050   14.6600 C.ar  332  ZOM332      0.0041
     20  OXT       28.1840   29.3960   13.3060 O.co2 332  ZOM332     -0.2452
@<TRIPOS>BOND
     1    12    10   ar
     2     4     5   ar
     3     4     3   ar
     4    13     5    1
     5    10     9    1
     6    10    20   ar
     7     9     3    1
     8     5     6   ar
     9     3     2   ar
    10     6     2   ar
    11     6     7    1
    12     2    11    1
    13    18    19   ar
    14    18    17   ar
    15    19    14   ar
    16     1    17    1
    17    17    16   ar
    18    14     7    1
    19    14    15   ar
    20     7     8    2
    21    16    15   ar
