@<TRIPOS>MOLECULE
3r8h_NAP_A_1.pdb
 48 52 0 0 0
SMALL
GASTEIGER

@<TRIPOS>ATOM
      1  PA        27.4660   28.6330    2.9870 P.3   700  NAP700      0.2189
      2  O1A       25.9810   28.8610    3.0040 O.3   700  NAP700     -0.4371
      3  O2A       27.9080   27.1910    2.7940 O.2   700  NAP700     -0.5170
      4  O5B       28.0450   29.5270    1.7830 O.3   700  NAP700     -0.3112
      5  C5B       29.4090   29.2770    1.3660 C.3   700  NAP700      0.1813
      6  C4B       29.8030   30.4200    0.3300 C.3   700  NAP700      0.1820
      7  O4B       28.8540   30.2500   -0.7320 O.3   700  NAP700     -0.3136
      8  C3B       29.4660   31.7970    0.8850 C.3   700  NAP700      0.2157
      9  O3B       30.5520   32.4590    1.5400 O.3   700  NAP700     -0.2175
     10  C2B       28.9710   32.5980   -0.3460 C.3   700  NAP700      0.2314
     11  O2B       30.0110   33.5190   -0.7880 O.3   700  NAP700     -0.2630
     12  C1B       28.8350   31.5200   -1.4050 C.3   700  NAP700      0.3158
     13  N9A       27.5750   31.5650   -2.2400 N.pl3 700  NAP700     -0.1439
     14  C8A       26.3830   31.8910   -1.7590 C.3   700  NAP700      0.3377
     15  N7A       25.4790   31.8230   -2.7480 N.2   700  NAP700     -0.2095
     16  C5A       26.1680   31.4680   -3.8730 C.2   700  NAP700      0.2526
     17  C6A       25.8090   31.3220   -5.2100 C.2   700  NAP700      0.4393
     18  N6A       24.4840   31.4020   -5.6020 N.pl3 700  NAP700      0.2180
     19  N1A       26.8210   30.9910   -6.0840 N.2   700  NAP700      0.0021
     20  C2A       28.1090   30.8540   -5.7510 C.3   700  NAP700      0.5254
     21  N3A       28.5200   31.0420   -4.4610 N.2   700  NAP700     -0.0055
     22  C4A       27.5230   31.3590   -3.5400 C.2   700  NAP700      0.3518
     23  O3        28.2770   29.3260    4.2980 O.3   700  NAP700     -0.2703
     24  PN        28.2400   28.9560    5.8170 P.3   700  NAP700      0.2189
     25  O1N       28.6080   30.2100    6.4850 O.3   700  NAP700     -0.4371
     26  O2N       29.1590   27.8500    6.0500 O.2   700  NAP700     -0.5170
     27  O5D       26.7840   28.3740    6.2050 O.3   700  NAP700     -0.3112
     28  C5D       25.6690   29.3200    6.1680 C.3   700  NAP700      0.1813
     29  C4D       25.1680   29.8580    7.5290 C.3   700  NAP700      0.1799
     30  O4D       24.8870   28.7650    8.3470 O.3   700  NAP700     -0.3327
     31  C3D       26.1710   30.7180    8.3630 C.3   700  NAP700      0.2158
     32  O3D       26.2880   32.0390    7.7910 O.3   700  NAP700     -0.2175
     33  C2D       25.5150   30.6620    9.7280 C.3   700  NAP700      0.2309
     34  O2D       24.3320   31.5020    9.6680 O.3   700  NAP700     -0.2158
     35  C1D       25.0920   29.1570    9.7230 C.3   700  NAP700      0.2263
     36  N1N       26.1710   28.2750   10.2760 N.pl3 700  NAP700     -0.2787
     37  C2N       25.8920   27.7500   11.5340 C.3   700  NAP700      0.1244
     38  C3N       26.8760   26.9490   12.1270 C.2   700  NAP700      0.0544
     39  C7N       26.5820   26.3560   13.4870 C.2   700  NAP700      0.2818
     40  O7N       27.5020   25.9400   14.1980 O.2   700  NAP700     -0.2670
     41  N7N       25.2460   26.1890   13.7950 N.am  700  NAP700     -0.0839
     42  C4N       28.1250   26.7090   11.4950 C.2   700  NAP700      0.0033
     43  C5N       28.3700   27.2430   10.2300 C.2   700  NAP700      0.0157
     44  C6N       27.4360   28.0170    9.5900 C.2   700  NAP700      0.0633
     45  P2B       29.5530   35.0870   -1.0480 P.3   700  NAP700      0.5328
     46  O1X       29.2100   35.7020    0.2890 O.3   700  NAP700     -0.1145
     47  O2X       30.7560   35.7590   -1.7430 O.3   700  NAP700     -0.1145
     48  O3X       28.3440   35.1230   -2.0350 O.2   700  NAP700     -0.2224
@<TRIPOS>BOND
     1    19    20    1
     2    19    17    2
     3    20    21    1
     4    18    17    1
     5    17    16    1
     6    21    22    2
     7    16    22    1
     8    16    15    2
     9    22    13    1
    10    15    14    1
    11    13    14    1
    12    13    12    1
    13    48    45    2
    14    47    45    1
    15    12     7    1
    16    12    10    1
    17    45    11    1
    18    45    46    1
    19    11    10    1
    20     7     6    1
    21    10     8    1
    22     6     8    1
    23     6     5    1
    24     8     9    1
    25     5     4    1
    26     4     1    1
    27     3     1    2
    28     1     2    1
    29     1    23    1
    30    23    24    1
    31    24    26    2
    32    24    27    1
    33    24    25    1
    34    28    27    1
    35    28    29    1
    36    29    30    1
    37    29    31    1
    38    32    31    1
    39    30    35    1
    40    31    33    1
    41    44    43    2
    42    44    36    1
    43    34    33    1
    44    35    33    1
    45    35    36    1
    46    43    42    1
    47    36    37    1
    48    42    38    2
    49    37    38    1
    50    38    39    1
    51    39    41   am
    52    39    40    2
