@<TRIPOS>MOLECULE
3r8i_XCX_A_1.pdb
 32 34 0 0 0
SMALL
GASTEIGER

@<TRIPOS>ATOM
      1  N1V       18.3400    8.3930    9.8040 N.2     1  XCX1       -0.3515
      2  N2E       17.0350    6.5830   10.5750 N.pl3   1  XCX1       -0.2528
      3  CAA        9.1390    5.3070    9.5850 C.3     1  XCX1        0.0000
      4  CAB       21.2620    7.3880   17.4110 C.3     1  XCX1        0.0554
      5  CAC       18.8080    7.8560   17.6160 C.3     1  XCX1        0.0554
      6  OAD       21.0300    7.5110   20.0340 O.co2   1  XCX1       -0.2418
      7  OAE       19.1800    6.2780   20.1730 O.co2   1  XCX1       -0.2418
      8  CAF       18.3930   11.6200    7.9960 C.2     1  XCX1       -0.0186
      9  CAG       17.0530   11.6190    7.6270 C.3     1  XCX1        0.0554
     10  CAH       19.5620    5.3090   13.9230 C.ar    1  XCX1       -0.0011
     11  CAI       17.3230    5.2450   14.7990 C.ar    1  XCX1       -0.0011
     12  CAJ       20.0620    5.4460   15.2150 C.ar    1  XCX1        0.0366
     13  CAK       17.8240    5.3830   16.0870 C.ar    1  XCX1        0.0366
     14  CAL       18.9180   10.5610    8.7280 C.2     1  XCX1        0.0311
     15  CAM       16.2380   10.5520    7.9870 C.2     1  XCX1        0.0188
     16  CAN       10.5580    5.7630    9.2370 C.3     1  XCX1        0.0000
     17  CAO       11.3940    5.9210   10.5080 C.3     1  XCX1        0.0000
     18  CAP       12.8100    6.4190   10.2120 C.3     1  XCX1        0.0001
     19  CAQ       13.6100    5.4100    9.3870 C.3     1  XCX1        0.0018
     20  CAR       15.0660    5.8680    9.2720 C.3     1  XCX1        0.0216
     21  CAS       17.6310    4.9690   12.3080 C.3     1  XCX1        0.0479
     22  CAT       15.6980    5.9760   10.6610 C.3     1  XCX1        0.0961
     23  CAU       18.1690    5.9660   11.2780 C.3     1  XCX1        0.1008
     24  OAW       19.6800    5.5650   17.5720 O.3     1  XCX1       -0.4718
     25  OAX       16.2020    8.3600    9.2240 O.2     1  XCX1       -0.4141
     26  CAY       20.0610    6.8960   19.5360 C.2     1  XCX1        0.4000
     27  CAZ       18.1920    5.2020   13.7110 C.ar    1  XCX1       -0.0203
     28  CBA       19.1950    5.4800   16.3000 C.ar    1  XCX1        0.1390
     29  CBB       17.2020    7.7130    9.8940 C.2     1  XCX1        0.3479
     30  CBC       18.1040    9.4940    9.0930 C.2     1  XCX1        0.1700
     31  CBD       16.7650    9.4930    8.7180 C.2     1  XCX1        0.1750
     32  CBF       19.9400    6.9040   18.0100 C.3     1  XCX1        0.2253
@<TRIPOS>BOND
     1     9    15    1
     2     9     8    1
     3    15    31    2
     4     8    14    2
     5    31    30    1
     6    31    25    1
     7    14    30    1
     8    30     1    2
     9    25    29    1
    10    16     3    1
    11    16    17    1
    12    20    19    1
    13    20    22    1
    14    19    18    1
    15     1    29    2
    16    29     2    1
    17    18    17    1
    18     2    22    1
    19     2    23    1
    20    23    21    1
    21    21    27    1
    22    27    10   ar
    23    27    11   ar
    24    10    12   ar
    25    11    13   ar
    26    12    28   ar
    27    13    28   ar
    28    28    24    1
    29     4    32    1
    30    24    32    1
    31     5    32    1
    32    32    26    1
    33    26     6   ar
    34    26     7   ar
