@<TRIPOS>MOLECULE
3r8l_Z30_A_1.pdb
 17 18 0 0 0
SMALL
GASTEIGER

@<TRIPOS>ATOM
      1  N1       104.1190  138.3740  100.0540 N.2   423  Z30423     -0.1479
      2  N2       105.1190  139.1200   99.5810 N.2   423  Z30423     -0.1565
      3  C3       105.9240  138.3490   98.8320 C.2   423  Z30423      0.0637
      4  C4       107.1700  138.7970   98.1120 C.3   423  Z30423      0.0435
      5  C5       107.9260  137.6440   97.3760 C.3   423  Z30423      0.0060
      6  C6       106.9940  136.4680   96.8500 C.3   423  Z30423      0.0011
      7  C7       107.7470  135.2810   96.0690 C.3   423  Z30423      0.0000
      8  C8       107.2460  135.2820   94.6140 C.3   423  Z30423      0.0000
      9  C9       107.4780  133.8550   96.6370 C.3   423  Z30423      0.0000
     10  C10      109.2820  135.4970   95.9930 C.3   423  Z30423      0.0000
     11  C11      106.1030  135.9340   98.0570 C.3   423  Z30423      0.0118
     12  C12      105.4320  137.0640   98.8130 C.3   423  Z30423      0.0845
     13  C13      104.2730  137.1040   99.6030 C.2   423  Z30423      0.1415
     14  C14      103.3200  135.9940   99.9340 C.2   423  Z30423      0.2979
     15  N15      102.2410  136.2440  100.7290 N.am  423  Z30423     -0.0876
     16  N16      101.5990  135.1620  101.3520 N.3   423  Z30423      0.0074
     17  O17      103.5100  134.7510   99.4610 O.2   423  Z30423     -0.2655
@<TRIPOS>BOND
     1     8     7    1
     2    10     7    1
     3     7     9    1
     4     7     6    1
     5     6     5    1
     6     6    11    1
     7     5     4    1
     8    11    12    1
     9     4     3    1
    10    12     3    1
    11    12    13    1
    12     3     2    2
    13    17    14    2
    14     2     1    1
    15    13    14    1
    16    13     1    2
    17    14    15   am
    18    15    16    1
