@<TRIPOS>MOLECULE
3r8m_Z19_A_1.pdb
 13 14 0 0 0
SMALL
GASTEIGER

@<TRIPOS>ATOM
      1  N1       -91.1160  -82.0030  -86.7050 N.2   486  Z19486     -0.1473
      2  N2       -92.0290  -81.4860  -87.5680 N.2   486  Z19486     -0.1518
      3  C3       -92.8880  -80.5680  -86.9900 C.2   486  Z19486      0.0900
      4  C4       -92.4540  -80.5070  -85.6100 C.3   486  Z19486      0.1105
      5  C5       -91.3440  -81.4390  -85.5360 C.2   486  Z19486      0.1459
      6  C6       -90.5820  -81.6950  -84.2680 C.2   486  Z19486      0.2983
      7  N7       -89.5930  -82.5850  -84.3700 N.am  486  Z19486     -0.0876
      8  N8       -88.8180  -82.9230  -83.2680 N.3   486  Z19486      0.0074
      9  O9       -90.8660  -81.1200  -83.2110 O.2   486  Z19486     -0.2655
     10  C10      -93.9780  -79.7840  -87.4850 C.2   486  Z19486      0.0172
     11  C11      -94.6670  -78.9040  -86.5900 C.2   486  Z19486      0.0010
     12  C12      -94.2640  -78.8210  -85.2190 C.2   486  Z19486     -0.0038
     13  C13      -93.1680  -79.6140  -84.7320 C.2   486  Z19486     -0.0143
@<TRIPOS>BOND
     1     2     3    2
     2     2     1    1
     3    10     3    1
     4    10    11    2
     5     3     4    1
     6     1     5    2
     7    11    12    1
     8     4     5    1
     9     4    13    1
    10     5     6    1
    11    12    13    2
    12     7     6   am
    13     7     8    1
    14     6     9    2
