@<TRIPOS>MOLECULE
3r8p_Z46_A_1.pdb
 16 17 0 0 0
SMALL
GASTEIGER

@<TRIPOS>ATOM
      1  N1       -77.8340  137.2920  -65.0170 N.2   511  Z46511     -0.1479
      2  N2       -78.7020  138.1280  -64.4590 N.2   511  Z46511     -0.1565
      3  C3       -79.5160  137.4420  -63.6250 C.2   511  Z46511      0.0637
      4  C4       -79.1520  136.0910  -63.6490 C.3   511  Z46511      0.0845
      5  C5       -78.0750  136.0380  -64.5440 C.2   511  Z46511      0.1415
      6  C6       -77.2790  134.8520  -64.9530 C.2   511  Z46511      0.2979
      7  N7       -76.2540  134.9970  -65.8410 N.am  511  Z46511     -0.0876
      8  N8       -75.4540  133.8700  -66.0810 N.3   511  Z46511      0.0074
      9  O9       -77.5760  133.6420  -64.4350 O.2   511  Z46511     -0.2655
     10  C10      -80.5520  137.9960  -62.8560 C.3   511  Z46511      0.0435
     11  C11      -81.4880  136.9220  -62.1830 C.3   511  Z46511      0.0060
     12  C12      -80.6900  135.6710  -61.6590 C.3   511  Z46511      0.0011
     13  C13      -79.8610  135.0130  -62.8230 C.3   511  Z46511      0.0118
     14  C14      -81.6660  134.6290  -61.0160 C.3   511  Z46511      0.0000
     15  C15      -80.9460  133.5400  -60.2050 C.3   511  Z46511      0.0000
     16  C16      -80.4060  134.1140  -58.9090 C.3   511  Z46511      0.0000
@<TRIPOS>BOND
     1     8     7    1
     2     7     6   am
     3     1     5    2
     4     1     2    1
     5     6     5    1
     6     6     9    2
     7     5     4    1
     8     2     3    2
     9     4     3    1
    10     4    13    1
    11     3    10    1
    12    10    11    1
    13    13    12    1
    14    11    12    1
    15    12    14    1
    16    14    15    1
    17    15    16    1
