@<TRIPOS>MOLECULE
3r8u_Z31_A_1.pdb
 22 24 0 0 0
SMALL
GASTEIGER

@<TRIPOS>ATOM
      1  C1       -61.9650 -117.9420  -46.7740 C.3   465  Z31465      0.0019
      2  C2       -62.2660 -119.3360  -47.1480 C.3   465  Z31465      0.0234
      3  C3       -63.5220 -119.7260  -47.5010 C.3   465  Z31465      0.1154
      4  N4       -63.7570 -119.4790  -48.9230 N.pl3 465  Z31465     -0.2041
      5  C5       -64.7240 -118.5850  -49.3040 C.2   465  Z31465      0.2325
      6  S6       -65.4750 -117.4880  -48.2360 S.3   465  Z31465     -0.0313
      7  C7       -66.3970 -116.8690  -49.5350 C.2   465  Z31465      0.1188
      8  C8       -66.0840 -117.5570  -50.7240 C.2   465  Z31465      0.2306
      9  N9       -65.1420 -118.5100  -50.5680 N.2   465  Z31465     -0.3605
     10  N10      -66.6230 -117.3290  -51.9330 N.pl3 465  Z31465     -0.0924
     11  C11      -67.2820 -115.8370  -49.3540 C.2   465  Z31465      0.2055
     12  C12      -67.4830 -115.1930  -48.0070 C.ar  465  Z31465      0.0396
     13  C13      -67.7110 -115.9770  -46.8160 C.ar  465  Z31465      0.0032
     14  C14      -67.8680 -115.3420  -45.5450 C.ar  465  Z31465      0.0001
     15  C15      -67.8000 -113.8910  -45.4600 C.ar  465  Z31465      0.0000
     16  C16      -67.5820 -113.1260  -46.6380 C.ar  465  Z31465      0.0001
     17  C17      -67.4220 -113.7710  -47.9020 C.ar  465  Z31465      0.0032
     18  C18      -68.0870 -116.1150  -44.3530 C.ar  465  Z31465      0.0000
     19  C19      -68.2340 -115.4550  -43.0950 C.ar  465  Z31465      0.0000
     20  C20      -68.1650 -114.0330  -43.0140 C.ar  465  Z31465      0.0000
     21  C21      -67.9500 -113.2500  -44.1860 C.ar  465  Z31465      0.0000
     22  O22      -67.9960 -115.3340  -50.3950 O.2   465  Z31465     -0.2859
@<TRIPOS>BOND
     1    10     8    1
     2     8     9    2
     3     8     7    1
     4     9     5    2
     5    22    11    1
     6     7    11    2
     7     7     6    1
     8    11    12    1
     9     5     4    1
    10     5     6    1
    11     4     3    1
    12    12    17   ar
    13    12    13   ar
    14    17    16   ar
    15     3     2    1
    16     2     1    1
    17    13    14   ar
    18    16    15   ar
    19    14    15   ar
    20    14    18   ar
    21    15    21   ar
    22    18    19   ar
    23    21    20   ar
    24    19    20   ar
