@<TRIPOS>MOLECULE
3r8v_Z62_A_1.pdb
 21 22 0 0 0
SMALL
GASTEIGER

@<TRIPOS>ATOM
      1  N1       -65.0440  -81.9560  -86.8490 N.2   473  Z62473     -0.3605
      2  C2       -65.9620  -80.9850  -86.9850 C.2   473  Z62473      0.2306
      3  N3       -66.5280  -80.7370  -88.1990 N.pl3 473  Z62473     -0.0924
      4  C4       -66.2450  -80.2900  -85.7800 C.2   473  Z62473      0.1188
      5  C5       -67.1230  -79.2380  -85.6110 C.2   473  Z62473      0.2055
      6  C6       -67.3840  -78.5420  -84.3100 C.ar  473  Z62473      0.0412
      7  C7       -67.5480  -79.2730  -83.0820 C.ar  473  Z62473      0.0273
      8  C8       -67.8190  -78.6090  -81.8370 C.ar  473  Z62473      0.1430
      9  C9       -67.9270  -77.1660  -81.8640 C.ar  473  Z62473      0.0241
     10  C10      -67.7670  -76.4380  -83.0710 C.ar  473  Z62473      0.0018
     11  C11      -67.4960  -77.1160  -84.2900 C.ar  473  Z62473      0.0033
     12  O12      -67.8070  -78.7490  -86.6610 O.2   473  Z62473     -0.2859
     13  S13      -65.3170  -80.9250  -84.4780 S.3   473  Z62473     -0.0313
     14  C14      -64.6040  -82.0440  -85.5690 C.2   473  Z62473      0.2325
     15  N15      -63.6460  -82.9660  -85.2010 N.pl3 473  Z62473     -0.2041
     16  C16      -63.2480  -83.1340  -83.7980 C.3   473  Z62473      0.1154
     17  C17      -62.3290  -82.0260  -83.3370 C.3   473  Z62473      0.0234
     18  C18      -62.7320  -81.0920  -82.2550 C.3   473  Z62473      0.0019
     19  N19      -67.9640  -79.3090  -80.6970 N.pl3 473  Z62473      0.0577
     20  O20      -67.8520  -80.6400  -80.6730 O.2   473  Z62473     -0.1261
     21  O21      -68.2000  -78.7660  -79.6410 O.2   473  Z62473     -0.1261
@<TRIPOS>BOND
     1     3     2    1
     2     2     1    2
     3     2     4    1
     4     1    14    2
     5    12     5    1
     6     4     5    2
     7     4    13    1
     8     5     6    1
     9    14    15    1
    10    14    13    1
    11    15    16    1
    12     6    11   ar
    13     6     7   ar
    14    11    10   ar
    15    16    17    1
    16    17    18    1
    17     7     8   ar
    18    10     9   ar
    19     9     8   ar
    20     8    19    1
    21    19    20    2
    22    19    21    2
