@<TRIPOS>MOLECULE
3r8z_Z63_A_1.pdb
 18 19 0 0 0
SMALL
GASTEIGER

@<TRIPOS>ATOM
      1  N1       -64.7410  -46.5530  -49.0630 N.2   440  Z63440     -0.3605
      2  C2       -65.7440  -45.7430  -49.4020 C.2   440  Z63440      0.2306
      3  N3       -66.1350  -45.6630  -50.6820 N.pl3 440  Z63440     -0.0924
      4  C4       -66.3060  -45.0190  -48.3400 C.2   440  Z63440      0.1188
      5  C5       -67.3590  -44.1040  -48.4410 C.2   440  Z63440      0.2056
      6  C6       -67.9510  -43.3370  -47.2960 C.ar  440  Z63440      0.0427
      7  C7       -67.1420  -42.5970  -46.3750 C.ar  440  Z63440      0.0239
      8  C8       -67.7650  -41.8900  -45.3130 C.ar  440  Z63440      0.0990
      9  N9       -69.1450  -41.9230  -45.1820 N.ar  440  Z63440     -0.2423
     10  C10      -69.9570  -42.6260  -46.0530 C.ar  440  Z63440      0.0990
     11  C11      -69.3790  -43.3480  -47.1280 C.ar  440  Z63440      0.0239
     12  O12      -67.9310  -43.8540  -49.6470 O.2   440  Z63440     -0.2859
     13  S13      -65.5030  -45.4110  -46.8510 S.3   440  Z63440     -0.0313
     14  C14      -64.4830  -46.4940  -47.7480 C.2   440  Z63440      0.2325
     15  N15      -63.4770  -47.2460  -47.2030 N.pl3 440  Z63440     -0.2041
     16  C16      -63.1360  -47.1160  -45.7990 C.3   440  Z63440      0.1154
     17  C17      -61.8620  -46.3450  -45.6380 C.3   440  Z63440      0.0234
     18  C18      -61.8490  -44.8820  -45.6440 C.3   440  Z63440      0.0019
@<TRIPOS>BOND
     1     3     2    1
     2    12     5    1
     3     2     1    2
     4     2     4    1
     5     1    14    2
     6     5     4    2
     7     5     6    1
     8     4    13    1
     9    14    15    1
    10    14    13    1
    11     6    11   ar
    12     6     7   ar
    13    15    16    1
    14    11    10   ar
    15     7     8   ar
    16    10     9   ar
    17    16    17    1
    18    18    17    1
    19     8     9   ar
