@<TRIPOS>MOLECULE
3r91_06H_A_1.pdb
 32 35 0 0 0
SMALL
GASTEIGER

@<TRIPOS>ATOM
      1  C1        40.7610    9.2630   23.2300 C.3     1  06H1        0.0323
      2  C2        39.6460   10.1790   23.6160 C.ar    1  06H1       -0.0060
      3  C3        38.2930    9.8400   23.7190 C.ar    1  06H1        0.0369
      4  N1        37.6010   10.9970   24.1100 N.ar    1  06H1       -0.3170
      5  C4        38.5140   12.0330   24.2570 C.ar    1  06H1        0.0432
      6  C5        39.7700   11.5590   23.9660 C.ar    1  06H1        0.0438
      7  C6        40.9310   12.4320   24.0550 C.2     1  06H1        0.1739
      8  O1        42.0610   11.9580   24.0030 O.2     1  06H1       -0.2913
      9  C7        40.7050   13.8740   24.5180 C.3     1  06H1        0.0695
     10  C8        39.4430   14.0580   25.4000 C.3     1  06H1        0.0128
     11  C9        38.2070   13.4380   24.6860 C.3     1  06H1        0.0446
     12  C10       39.1770   15.5560   25.6470 C.3     1  06H1        0.0008
     13  C11       39.6720   13.4070   26.7770 C.3     1  06H1        0.0008
     14  C12       36.2060   11.1230   24.3430 C.2     1  06H1        0.0467
     15  C13       35.4000   12.0590   23.6870 C.2     1  06H1        0.0136
     16  C14       34.0240   12.0620   23.9260 C.2     1  06H1        0.0070
     17  C15       33.4440   11.1450   24.8190 C.2     1  06H1        0.0702
     18  C16       34.2440   10.1930   25.5000 C.2     1  06H1        0.0645
     19  C17       35.6300   10.2330   25.2610 C.3     1  06H1        0.0895
     20  N2        33.6670    9.2980   26.3930 N.2     1  06H1       -0.2669
     21  C18       34.3480    8.3170   27.2560 C.3     1  06H1        0.1788
     22  C19       35.4730    7.5450   26.5380 C.2     1  06H1        0.2480
     23  O2        36.4980    7.3130   27.1740 O.2     1  06H1       -0.2728
     24  N3        35.3730    7.1430   25.1980 N.am    1  06H1       -0.2762
     25  C20       36.5510    6.4650   24.6300 C.3     1  06H1        0.0939
     26  C21       37.7460    7.4550   24.5610 C.3     1  06H1        0.0277
     27  C22       37.6360    8.4980   23.4280 C.3     1  06H1        0.0455
     28  C23       34.2200    7.3170   24.2980 C.3     1  06H1        0.1149
     29  C24       33.3280    7.3750   27.8890 C.3     1  06H1        0.0362
     30  C25       31.9710   11.2010   25.0570 C.2     1  06H1        0.2853
     31  O3        31.4860   10.7600   26.0930 O.2     1  06H1       -0.2666
     32  N4        31.2090   11.7780   24.0740 N.am    1  06H1       -0.0837
@<TRIPOS>BOND
     1     1     2    1
     2    27     3    1
     3    27    26    1
     4     2     3   ar
     5     2     6   ar
     6    15    16    1
     7    15    14    2
     8     3     4   ar
     9    16    17    2
    10     6     7    1
    11     6     5   ar
    12     8     7    2
    13     7     9    1
    14    32    30   am
    15     4     5   ar
    16     4    14    1
    17     5    11    1
    18    28    24    1
    19    14    19    1
    20     9    10    1
    21    26    25    1
    22    25    24    1
    23    11    10    1
    24    17    30    1
    25    17    18    1
    26    30    31    2
    27    24    22   am
    28    19    18    1
    29    10    12    1
    30    10    13    1
    31    18    20    2
    32    20    21    1
    33    22    23    2
    34    22    21    1
    35    21    29    1
