@<TRIPOS>MOLECULE
3r92_06J_A_1.pdb
 32 36 0 0 0
SMALL
GASTEIGER

@<TRIPOS>ATOM
      1  C1         7.3190    9.1320   23.3440 C.3     1  06J1        0.0323
      2  C2         6.1760   10.0230   23.6970 C.ar    1  06J1       -0.0060
      3  C3         4.8170    9.6950   23.7220 C.ar    1  06J1        0.0372
      4  N1         4.1100   10.8560   24.0900 N.ar    1  06J1       -0.3137
      5  C4         5.0200   11.8870   24.2680 C.ar    1  06J1        0.0435
      6  C5         6.2870   11.4030   24.0240 C.ar    1  06J1        0.0438
      7  C6         7.4510   12.2770   24.1150 C.2     1  06J1        0.1739
      8  O1         8.5930   11.8310   24.0480 O.2     1  06J1       -0.2913
      9  C7         7.2110   13.7300   24.5120 C.3     1  06J1        0.0695
     10  C8         5.9250   13.9650   25.3450 C.3     1  06J1        0.0128
     11  C9         4.7060   13.3000   24.6550 C.3     1  06J1        0.0446
     12  C10        6.1160   13.3460   26.7420 C.3     1  06J1        0.0008
     13  C11        5.6620   15.4740   25.5360 C.3     1  06J1        0.0008
     14  C12        2.7050   10.9500   24.2730 C.2     1  06J1        0.0642
     15  C13        1.8960   11.8330   23.5670 C.2     1  06J1        0.0138
     16  C14        0.5380   11.9290   23.8990 C.2     1  06J1       -0.0098
     17  C15       -0.0100   11.1390   24.9310 C.3     1  06J1        0.1414
     18  C16        0.7920   10.2270   25.6330 C.2     1  06J1        0.0677
     19  C17        2.1290   10.1340   25.2370 C.2     1  06J1        0.0325
     20  N2         0.3100    9.4080   26.6500 N.2     1  06J1       -0.2724
     21  C18        1.1880    8.7780   27.6300 C.3     1  06J1        0.1409
     22  C19        1.4110    7.2970   27.2820 C.3     1  06J1        0.0819
     23  C20        0.0980    6.5280   27.0930 C.3     1  06J1        0.0194
     24  C21        0.3930    5.4570   26.0540 C.3     1  06J1        0.0188
     25  C22        1.8260    5.6790   25.6020 C.3     1  06J1        0.0722
     26  N3         2.1120    7.1360   25.9250 N.3     1  06J1       -0.2721
     27  C23        3.6100    7.4680   25.9100 C.3     1  06J1        0.0725
     28  C24        4.3540    7.2480   24.5760 C.3     1  06J1        0.0235
     29  C25        4.1500    8.3430   23.5040 C.3     1  06J1        0.0452
     30  C26       -1.4730   11.1950   25.1970 C.2     1  06J1        0.2700
     31  O2        -1.9290   10.7130   26.2300 O.2     1  06J1       -0.2709
     32  N4        -2.2420   11.8020   24.2310 N.am    1  06J1       -0.0872
@<TRIPOS>BOND
     1     1     2    1
     2    29     3    1
     3    29    28    1
     4    15    16    2
     5    15    14    1
     6     2     3   ar
     7     2     6   ar
     8     3     4   ar
     9    16    17    1
    10     6     7    1
    11     6     5   ar
    12     8     7    2
    13     4     5   ar
    14     4    14    1
    15     7     9    1
    16    32    30   am
    17     5    11    1
    18    14    19    2
    19     9    10    1
    20    28    27    1
    21    11    10    1
    22    17    30    1
    23    17    18    1
    24    30    31    2
    25    19    18    1
    26    10    13    1
    27    10    12    1
    28    25    26    1
    29    25    24    1
    30    18    20    2
    31    27    26    1
    32    26    22    1
    33    24    23    1
    34    20    21    1
    35    23    22    1
    36    22    21    1
