@<TRIPOS>MOLECULE
3r94_NAP_A_1.pdb
 48 52 0 0 0
SMALL
GASTEIGER

@<TRIPOS>ATOM
      1  PA        27.1280   28.5180    2.8070 P.3   700  NAP700      0.2189
      2  O1A       25.6130   28.8030    2.8080 O.3   700  NAP700     -0.4371
      3  O2A       27.6440   26.9910    2.7550 O.2   700  NAP700     -0.5170
      4  O5B       27.9050   29.4010    1.7130 O.3   700  NAP700     -0.3112
      5  C5B       29.1770   29.1450    1.1380 C.3   700  NAP700      0.1813
      6  C4B       29.4980   30.3370    0.1570 C.3   700  NAP700      0.1820
      7  O4B       28.5540   30.1450   -0.8800 O.3   700  NAP700     -0.3136
      8  C3B       29.0880   31.7020    0.7230 C.3   700  NAP700      0.2157
      9  O3B       30.1760   32.3670    1.3910 O.3   700  NAP700     -0.2175
     10  C2B       28.7060   32.4640   -0.5090 C.3   700  NAP700      0.2314
     11  O2B       29.7050   33.4200   -0.9640 O.3   700  NAP700     -0.2630
     12  C1B       28.5510   31.3940   -1.5660 C.3   700  NAP700      0.3158
     13  N9A       27.2160   31.4750   -2.2650 N.pl3 700  NAP700     -0.1439
     14  C8A       26.0010   31.7440   -1.7900 C.3   700  NAP700      0.3377
     15  N7A       25.1220   31.6810   -2.7960 N.2   700  NAP700     -0.2095
     16  C5A       25.8190   31.3750   -3.9120 C.2   700  NAP700      0.2526
     17  C6A       25.5050   31.1760   -5.2570 C.2   700  NAP700      0.4393
     18  N6A       24.1980   31.2830   -5.6770 N.pl3 700  NAP700      0.2180
     19  N1A       26.4980   30.8660   -6.1150 N.2   700  NAP700      0.0021
     20  C2A       27.7830   30.7420   -5.7620 C.3   700  NAP700      0.5254
     21  N3A       28.1180   30.9650   -4.4540 N.2   700  NAP700     -0.0055
     22  C4A       27.1470   31.2580   -3.5600 C.2   700  NAP700      0.3518
     23  O3        27.8310   29.2280    4.1290 O.3   700  NAP700     -0.2703
     24  PN        27.9290   28.9910    5.6860 P.3   700  NAP700      0.2189
     25  O1N       28.1940   30.4410    6.0920 O.3   700  NAP700     -0.4371
     26  O2N       28.9310   27.9430    6.0090 O.2   700  NAP700     -0.5170
     27  O5D       26.4340   28.4490    6.0730 O.3   700  NAP700     -0.3112
     28  C5D       25.2250   29.2170    6.0490 C.3   700  NAP700      0.1813
     29  C4D       24.8270   29.6870    7.4740 C.3   700  NAP700      0.1799
     30  O4D       24.6300   28.5510    8.3120 O.3   700  NAP700     -0.3327
     31  C3D       25.9350   30.5400    8.1760 C.3   700  NAP700      0.2158
     32  O3D       25.9630   31.8620    7.6030 O.3   700  NAP700     -0.2175
     33  C2D       25.3370   30.5190    9.5890 C.3   700  NAP700      0.2309
     34  O2D       24.1350   31.3320    9.5880 O.3   700  NAP700     -0.2158
     35  C1D       24.8780   29.0310    9.6950 C.3   700  NAP700      0.2263
     36  N1N       25.9410   28.1780   10.2690 N.pl3 700  NAP700     -0.2787
     37  C2N       25.6900   27.5660   11.4830 C.3   700  NAP700      0.1244
     38  C3N       26.6730   26.7670   12.0250 C.2   700  NAP700      0.0544
     39  C7N       26.3680   26.0950   13.3270 C.2   700  NAP700      0.2818
     40  O7N       27.2620   25.6980   14.0850 O.2   700  NAP700     -0.2670
     41  N7N       25.0500   25.9680   13.5730 N.am  700  NAP700     -0.0839
     42  C4N       27.8970   26.5860   11.3680 C.2   700  NAP700      0.0033
     43  C5N       28.1410   27.1780   10.1440 C.2   700  NAP700      0.0157
     44  C6N       27.1650   27.9720    9.5710 C.2   700  NAP700      0.0633
     45  P2B       29.1950   35.0030   -1.1660 P.3   700  NAP700      0.5328
     46  O1X       28.8620   35.5960    0.1320 O.3   700  NAP700     -0.1145
     47  O2X       30.3340   35.6140   -1.9920 O.3   700  NAP700     -0.1145
     48  O3X       27.9560   34.9570   -2.1550 O.2   700  NAP700     -0.2224
@<TRIPOS>BOND
     1    19    20    1
     2    19    17    2
     3    20    21    1
     4    18    17    1
     5    17    16    1
     6    21    22    2
     7    16    22    1
     8    16    15    2
     9    22    13    1
    10    15    14    1
    11    13    14    1
    12    13    12    1
    13    48    45    2
    14    47    45    1
    15    12     7    1
    16    12    10    1
    17    45    11    1
    18    45    46    1
    19    11    10    1
    20     7     6    1
    21    10     8    1
    22     6     8    1
    23     6     5    1
    24     8     9    1
    25     5     4    1
    26     4     1    1
    27     3     1    2
    28     1     2    1
    29     1    23    1
    30    23    24    1
    31    24    26    2
    32    24    27    1
    33    24    25    1
    34    28    27    1
    35    28    29    1
    36    29    31    1
    37    29    30    1
    38    32    31    1
    39    31    33    1
    40    30    35    1
    41    44    43    2
    42    44    36    1
    43    34    33    1
    44    33    35    1
    45    35    36    1
    46    43    42    1
    47    36    37    1
    48    42    38    2
    49    37    38    1
    50    38    39    1
    51    39    41   am
    52    39    40    2
