@<TRIPOS>MOLECULE
3r94_FLR_A_1.pdb
 18 19 0 0 0
SMALL
GASTEIGER

@<TRIPOS>ATOM
      1  C1        32.0820   22.2170   14.0620 C.ar  332  FLR332      0.0001
      2  C         32.3780   20.8430   14.1320 C.ar  332  FLR332      0.0000
      3  C5        31.5550   20.0370   14.9240 C.ar  332  FLR332      0.0000
      4  C4        30.5280   20.6480   15.6590 C.ar  332  FLR332      0.0000
      5  C3        30.2450   22.0350   15.5950 C.ar  332  FLR332      0.0001
      6  C2        31.0230   22.8310   14.7630 C.ar  332  FLR332      0.0022
      7  C6        30.8440   24.2160   14.6070 C.ar  332  FLR332      0.0275
      8  C11       30.5380   25.0460   15.6890 C.ar  332  FLR332      0.1398
      9  C10       30.3980   26.4130   15.5750 C.ar  332  FLR332      0.0259
     10  F         30.3550   24.5010   16.8740 F     332  FLR332     -0.2042
     11  C7        31.0420   24.8220   13.3540 C.ar  332  FLR332      0.0019
     12  C8        30.8860   26.2160   13.2060 C.ar  332  FLR332     -0.0036
     13  C9        30.5730   26.9980   14.3340 C.ar  332  FLR332     -0.0096
     14  C12       30.3900   28.5070   14.2160 C.3   332  FLR332      0.1257
     15  C13       31.6440   29.1550   13.6040 C.3   332  FLR332      0.0166
     16  C14       29.2240   28.8310   13.2860 C.2   332  FLR332      0.3683
     17  O1        29.5690   29.2040   12.1470 O.co2 332  FLR332     -0.2453
     18  O         28.0440   28.8070   13.7220 O.co2 332  FLR332     -0.2453
@<TRIPOS>BOND
     1    17    16   ar
     2    12    11   ar
     3    12    13   ar
     4    16    18   ar
     5    16    14    1
     6    11     7   ar
     7    15    14    1
     8     1     2   ar
     9     1     6   ar
    10     2     3   ar
    11    14    13    1
    12    13     9   ar
    13     7     6    1
    14     7     8   ar
    15     6     5   ar
    16     3     4   ar
    17     9     8   ar
    18     5     4   ar
    19     8    10    1
