@<TRIPOS>MOLECULE
3r96_AMP_A_1.pdb
 23 25 0 0 0
SMALL
GASTEIGER

@<TRIPOS>ATOM
      1  P         66.6510    8.1370    6.4210 P.3   500  AMP500      0.5327
      2  O1P       67.0700    9.0770    7.5300 O.3   500  AMP500     -0.1145
      3  O2P       66.8650    8.7700    5.0520 O.2   500  AMP500     -0.2224
      4  O3P       67.1720    6.7350    6.5320 O.3   500  AMP500     -0.1145
      5  O5'       65.0580    8.0580    6.6750 O.3   500  AMP500     -0.2675
      6  C5'       64.2350    7.5370    5.6440 C.3   500  AMP500      0.1860
      7  C4'       63.0130    6.8640    6.2470 C.3   500  AMP500      0.1823
      8  O4'       63.3990    5.6940    6.9820 O.3   500  AMP500     -0.3135
      9  C3'       62.2100    7.7400    7.2040 C.3   500  AMP500      0.2184
     10  O3'       60.8450    7.6250    6.7970 O.3   500  AMP500     -0.2174
     11  C2'       62.4540    7.1130    8.5630 C.3   500  AMP500      0.2570
     12  O2'       61.3720    7.2870    9.4800 O.3   500  AMP500     -0.2130
     13  C1'       62.6330    5.6550    8.1830 C.3   500  AMP500      0.3186
     14  N9        63.3450    4.8450    9.1840 N.pl3 500  AMP500     -0.1439
     15  C8        64.4440    5.2040    9.8700 C.3   500  AMP500      0.3377
     16  N7        64.8350    4.2150   10.6980 N.2   500  AMP500     -0.2095
     17  C5        63.9660    3.2080   10.5410 C.2   500  AMP500      0.2526
     18  C6        63.8030    1.8720   11.1200 C.2   500  AMP500      0.4393
     19  N6        64.6730    1.4320   12.0490 N.pl3 500  AMP500      0.2180
     20  N1        62.7610    1.1300   10.6960 N.2   500  AMP500      0.0021
     21  C2        61.9050    1.5840    9.7600 C.3   500  AMP500      0.5254
     22  N3        61.9900    2.7950    9.1860 N.2   500  AMP500     -0.0055
     23  C4        62.9870    3.6230    9.5420 C.2   500  AMP500      0.3518
@<TRIPOS>BOND
     1     3     1    2
     2     6     7    1
     3     6     5    1
     4     7     8    1
     5     7     9    1
     6     1     4    1
     7     1     5    1
     8     1     2    1
     9    10     9    1
    10     8    13    1
    11     9    11    1
    12    13    11    1
    13    13    14    1
    14    11    12    1
    15    14    23    1
    16    14    15    1
    17    22    23    2
    18    22    21    1
    19    23    17    1
    20    21    20    1
    21    15    16    1
    22    17    16    2
    23    17    18    1
    24    20    18    2
    25    18    19    1
