@<TRIPOS>MOLECULE
3r9b_HEM_A_1.pdb
 43 50 0 0 0
SMALL
GASTEIGER

@<TRIPOS>ATOM
      1  CHA       59.3370   74.2070   47.5090 C.2   501  HEM501      0.0000
      2  CHB       63.2970   71.9970   45.8000 C.2   501  HEM501      0.0000
      3  CHC       62.0360   67.8700   48.0850 C.2   501  HEM501      0.0000
      4  CHD       57.8580   69.9260   49.4610 C.2   501  HEM501      0.0000
      5  C1A       60.5400   73.9870   46.8900 C.ar  501  HEM501      0.0000
      6  C2A       61.3380   74.9600   46.1650 C.ar  501  HEM501      0.0000
      7  C3A       62.4260   74.3320   45.6810 C.ar  501  HEM501      0.0000
      8  C4A       62.3570   72.9480   46.1050 C.ar  501  HEM501      0.0000
      9  CMA       63.5860   74.9320   44.8230 C.3   501  HEM501      0.0000
     10  CAA       60.9820   76.4560   45.9940 C.3   501  HEM501      0.0000
     11  CBA       60.1560   76.6860   44.7390 C.3   501  HEM501      0.0000
     12  CGA       59.9030   78.1600   44.5900 C.2   501  HEM501      0.0000
     13  O1A       60.5430   78.9720   45.3150 O.co2 501  HEM501      0.0000
     14  O2A       59.0490   78.5120   43.7350 O.co2 501  HEM501      0.0000
     15  C1B       63.2980   70.7040   46.2790 C.2   501  HEM501      0.0000
     16  C2B       64.3670   69.7590   46.1110 C.2   501  HEM501      0.0000
     17  C3B       64.0130   68.6320   46.7520 C.2   501  HEM501      0.0000
     18  C4B       62.7200   68.8260   47.3380 C.2   501  HEM501      0.0000
     19  CMB       65.6620   70.0250   45.3160 C.3   501  HEM501      0.0000
     20  CAB       64.7760   67.3070   46.8740 C.2   501  HEM501      0.0000
     21  CBB       66.1130   67.2850   46.9030 C.2   501  HEM501      0.0000
     22  C1C       60.7800   68.0430   48.6310 C.ar  501  HEM501      0.0000
     23  C2C       59.9960   67.0340   49.3340 C.ar  501  HEM501      0.0000
     24  C3C       58.8360   67.6140   49.6910 C.ar  501  HEM501      0.0000
     25  C4C       58.8620   69.0070   49.2580 C.ar  501  HEM501      0.0000
     26  CMC       60.4550   65.5750   49.5850 C.3   501  HEM501      0.0000
     27  CAC       57.6520   67.0090   50.4890 C.2   501  HEM501      0.0000
     28  CBC       57.1520   65.8270   50.1290 C.2   501  HEM501      0.0000
     29  C1D       57.8690   71.2480   49.0280 C.2   501  HEM501      0.0000
     30  C2D       56.7720   72.1720   49.2190 C.2   501  HEM501      0.0000
     31  C3D       57.2310   73.4750   48.6060 C.2   501  HEM501      0.0000
     32  C4D       58.5660   73.2380   48.1140 C.2   501  HEM501      0.0000
     33  CMD       55.3800   71.9280   49.8820 C.3   501  HEM501      0.0000
     34  CAD       56.3940   74.7660   48.5350 C.3   501  HEM501      0.0000
     35  CBD       56.8040   75.6090   49.7500 C.3   501  HEM501      0.0000
     36  CGD       55.9910   76.8810   49.7200 C.2   501  HEM501      0.0000
     37  O1D       55.8100   77.5470   50.7880 O.co2 501  HEM501      0.0000
     38  O2D       55.4990   77.2190   48.6140 O.co2 501  HEM501      0.0000
     39  NA        61.2160   72.7860   46.8670 N.ar  501  HEM501      0.0000
     40  NB        62.3340   70.1220   47.0920 N.2   501  HEM501      0.0000
     41  NC        60.0760   69.2330   48.6380 N.ar  501  HEM501      0.0000
     42  ND        58.9390   71.9140   48.4170 N.2   501  HEM501      0.0000
     43 FE         60.6890   71.0350   47.8380 Fe    501  HEM501      0.0000
@<TRIPOS>BOND
     1    14    12   ar
     2    12    11    1
     3    12    13   ar
     4    11    10    1
     5     9     7    1
     6    19    16    1
     7     7     8   ar
     8     7     6   ar
     9     2     8    2
    10     2    15    1
    11    10     6    1
    12     8    39   ar
    13    16    15    1
    14    16    17    2
    15     6     5   ar
    16    15    40    2
    17    17    20    1
    18    17    18    1
    19    39     5   ar
    20    39    43    1
    21    20    21    2
    22     5     1    2
    23    40    18    1
    24    40    43    1
    25    18     3    2
    26     1    32    1
    27    43    42    1
    28    43    41    1
    29     3    22    1
    30    32    42    2
    31    32    31    1
    32    42    29    1
    33    34    31    1
    34    34    35    1
    35    31    30    2
    36    38    36   ar
    37    22    41   ar
    38    22    23   ar
    39    41    25   ar
    40    29    30    1
    41    29     4    2
    42    30    33    1
    43    25     4    1
    44    25    24   ar
    45    23    26    1
    46    23    24   ar
    47    24    27    1
    48    36    35    1
    49    36    37   ar
    50    28    27    2
