@<TRIPOS>MOLECULE
3r9c_ECL_A_1.pdb
 24 26 0 0 0
SMALL
GASTEIGER

@<TRIPOS>ATOM
      1  C1         6.9850    1.7290   35.3460 C.ar  451  ECL451      0.0073
      2  N1         7.4560    6.7170   38.5880 N.ar  451  ECL451     -0.3050
      3  C2         8.2330    1.3750   35.8540 C.ar  451  ECL451     -0.0010
      4 CL2         9.0520   -2.1080   33.9650 Cl    451  ECL451     -0.0822
      5  C3         6.5420    6.9870   39.5230 C.ar  451  ECL451      0.1787
      6 CL4         6.6490    9.6270   32.8290 Cl    451  ECL451     -0.0822
      7  C5         7.7910    7.3930   34.0150 C.ar  451  ECL451      0.0112
      8  C6         7.4660    8.8730   38.9380 C.ar  451  ECL451      0.1193
      9  C7         8.0400    7.8580   38.2120 C.ar  451  ECL451      0.0981
     10  C8         6.3300    3.0040   35.8200 C.3   451  ECL451      0.1690
     11 CL8         4.3690    6.9600   37.0180 Cl    451  ECL451     -0.0825
     12  C9         6.9740   -0.2600   33.9750 C.ar  451  ECL451      0.0111
     13  C10        6.3530    0.9150   34.4050 C.ar  451  ECL451     -0.0010
     14  C11        8.2240   -0.6080   34.4900 C.ar  451  ECL451      0.0577
     15  C13        8.8500    0.2070   35.4220 C.ar  451  ECL451      0.0111
     16  C14        6.7180    8.2830   34.0130 C.ar  451  ECL451      0.0585
     17  C15        5.6890    8.1350   34.9350 C.ar  451  ECL451      0.0225
     18  C16        5.7250    7.0950   35.8590 C.ar  451  ECL451      0.0568
     19  C17        6.7910    6.1960   35.8770 C.ar  451  ECL451      0.0171
     20  C19        7.7620    5.3950   38.0500 C.3   451  ECL451      0.1416
     21  N19        6.5440    8.3140   39.7440 N.ar  451  ECL451     -0.2223
     22  C20        6.8450    5.0790   36.8650 C.3   451  ECL451      0.1612
     23  O20        7.3540    3.9080   36.2320 O.3   451  ECL451     -0.3451
     24  C21        7.8230    6.3550   34.9490 C.ar  451  ECL451     -0.0002
@<TRIPOS>BOND
     1     6    16    1
     2     4    14    1
     3    12    13   ar
     4    12    14   ar
     5    16     7   ar
     6    16    17   ar
     7     7    24   ar
     8    13     1   ar
     9    14    15   ar
    10    17    18   ar
    11    24    19   ar
    12     1    10    1
    13     1     3   ar
    14    15     3   ar
    15    10    23    1
    16    18    19   ar
    17    18    11    1
    18    19    22    1
    19    23    22    1
    20    22    20    1
    21    20     2    1
    22     9     2   ar
    23     9     8   ar
    24     2     5   ar
    25     8    21   ar
    26     5    21   ar
