@<TRIPOS>MOLECULE
3r9c_HEM_A_1.pdb
 43 50 0 0 0
SMALL
GASTEIGER

@<TRIPOS>ATOM
      1  CHA        2.7180    8.8160   38.8250 C.2   450  HEM450      0.0000
      2  CHB        6.1190   12.2780   39.0170 C.2   450  HEM450      0.0000
      3  CHC        7.9560   10.2450   43.0280 C.2   450  HEM450      0.0000
      4  CHD        4.4780    6.8560   42.9710 C.2   450  HEM450      0.0000
      5  C1A        3.4470    9.9500   38.5230 C.ar  450  HEM450      0.0000
      6  C2A        3.1950   10.8990   37.4490 C.ar  450  HEM450      0.0000
      7  C3A        4.1370   11.8510   37.5090 C.ar  450  HEM450      0.0000
      8  C4A        5.0200   11.5430   38.6170 C.ar  450  HEM450      0.0000
      9  CMA        4.2830   13.0680   36.5660 C.3   450  HEM450      0.0000
     10  CAA        2.0360   10.8210   36.4230 C.3   450  HEM450      0.0000
     11  CBA        2.3540    9.8270   35.3090 C.3   450  HEM450      0.0000
     12  CGA        1.4120   10.0050   34.1380 C.2   450  HEM450      0.0000
     13  O1A        0.4760   10.8440   34.2050 O.co2 450  HEM450      0.0000
     14  O2A        1.5930    9.3020   33.1140 O.co2 450  HEM450      0.0000
     15  C1B        6.8980   12.0690   40.1390 C.2   450  HEM450      0.0000
     16  C2B        7.9540   12.9280   40.6360 C.2   450  HEM450      0.0000
     17  C3B        8.4580   12.3680   41.7510 C.2   450  HEM450      0.0000
     18  C4B        7.7410   11.1290   41.9900 C.2   450  HEM450      0.0000
     19  CMB        8.3980   14.2560   39.9820 C.3   450  HEM450      0.0000
     20  CAB        9.6080   12.8980   42.6440 C.2   450  HEM450      0.0000
     21  CBB        9.7150   14.1910   42.9720 C.2   450  HEM450      0.0000
     22  C1C        7.1990    9.1380   43.3590 C.ar  450  HEM450      0.0000
     23  C2C        7.4430    8.2260   44.4620 C.ar  450  HEM450      0.0000
     24  C3C        6.4830    7.2860   44.4400 C.ar  450  HEM450      0.0000
     25  C4C        5.6020    7.5710   43.3260 C.ar  450  HEM450      0.0000
     26  CMC        8.6160    8.3400   45.4650 C.3   450  HEM450      0.0000
     27  CAC        6.3100    6.0980   45.4130 C.2   450  HEM450      0.0000
     28  CBC        7.2990    5.2130   45.5830 C.2   450  HEM450      0.0000
     29  C1D        3.7110    7.0240   41.8410 C.2   450  HEM450      0.0000
     30  C2D        2.6770    6.1170   41.4020 C.2   450  HEM450      0.0000
     31  C3D        2.1380    6.7350   40.1100 C.2   450  HEM450      0.0000
     32  C4D        2.8930    7.9470   39.8890 C.2   450  HEM450      0.0000
     33  CMD        2.2110    4.8120   42.0870 C.3   450  HEM450      0.0000
     34  CAD        1.0380    6.1540   39.2100 C.3   450  HEM450      0.0000
     35  CBD       -0.3300    6.6770   39.5770 C.3   450  HEM450      0.0000
     36  CGD       -1.2810    6.1190   38.5480 C.2   450  HEM450      0.0000
     37  O1D       -2.5050    6.1510   38.7900 O.co2 450  HEM450      0.0000
     38  O2D       -0.8360    5.6380   37.4710 O.co2 450  HEM450      0.0000
     39  NA         4.5640   10.3780   39.2040 N.ar  450  HEM450      0.0000
     40  NB         6.8050   10.9870   40.9870 N.2   450  HEM450      0.0000
     41  NC         6.0700    8.7030   42.6960 N.ar  450  HEM450      0.0000
     42  ND         3.8000    8.0750   40.9310 N.2   450  HEM450      0.0000
     43 FE          5.3020    9.5250   40.9410 Fe    450  HEM450      0.0000
@<TRIPOS>BOND
     1    14    12   ar
     2    12    13   ar
     3    12    11    1
     4    11    10    1
     5    10     6    1
     6     9     7    1
     7     6     7   ar
     8     6     5   ar
     9    38    36   ar
    10     7     8   ar
    11     5     1    2
    12     5    39   ar
    13    36    37   ar
    14    36    35    1
    15     8     2    2
    16     8    39   ar
    17     1    32    1
    18     2    15    1
    19    39    43    1
    20    34    35    1
    21    34    31    1
    22    32    31    1
    23    32    42    2
    24    19    16    1
    25    31    30    2
    26    15    16    1
    27    15    40    2
    28    16    17    2
    29    42    43    1
    30    42    29    1
    31    43    40    1
    32    43    41    1
    33    40    18    1
    34    30    29    1
    35    30    33    1
    36    17    18    1
    37    17    20    1
    38    29     4    2
    39    18     3    2
    40    20    21    2
    41    41    25   ar
    42    41    22   ar
    43     4    25    1
    44     3    22    1
    45    25    24   ar
    46    22    23   ar
    47    24    23   ar
    48    24    27    1
    49    23    26    1
    50    27    28    2
