@<TRIPOS>MOLECULE
3r9d_X6B_A_1.pdb
 27 29 0 0 0
SMALL
GASTEIGER

@<TRIPOS>ATOM
      1  N01       65.1710   81.9830  -14.8380 N.2   590  X6B590     -0.3641
      2  N02       63.8800   82.5740  -13.0730 N.pl3 590  X6B590     -0.1781
      3  N03       68.3860   79.1500  -12.8820 N.am  590  X6B590     -0.1780
      4  N04       66.7300   81.1380  -16.3210 N.pl3 590  X6B590     -0.0965
      5  N05       61.3280   81.0640   -7.0270 N.3   590  X6B590      0.0392
      6  C06       66.8590   80.5400  -14.0620 C.3   590  X6B590      0.2030
      7  C07       66.2830   81.2120  -15.1360 C.2   590  X6B590      0.2177
      8  C08       64.8950   81.9070  -13.5540 C.2   590  X6B590      0.2328
      9  C09       63.1660   82.3290  -12.0070 C.ar  590  X6B590      0.0737
     10  C10       67.9660   79.7110  -14.0900 C.2   590  X6B590      0.2640
     11  C11       62.1780   83.2940  -11.6560 C.ar  590  X6B590      0.0180
     12  C12       61.3550   83.1080  -10.5190 C.ar  590  X6B590      0.0213
     13  C13       61.5060   81.9490   -9.7150 C.ar  590  X6B590      0.1251
     14  C14       62.4830   80.9700  -10.0360 C.ar  590  X6B590      0.0213
     15  C15       63.3140   81.1520  -11.1770 C.ar  590  X6B590      0.0180
     16  C16       69.4590   78.3120  -12.6860 C.ar  590  X6B590      0.0756
     17  C17       69.3950   77.3660  -11.6240 C.ar  590  X6B590      0.0167
     18  C18       70.4920   76.4860  -11.3750 C.ar  590  X6B590      0.0036
     19  C19       71.6570   76.5520  -12.1960 C.ar  590  X6B590      0.0297
     20  C20       71.7290   77.4910  -13.2590 C.ar  590  X6B590      0.1414
     21  C21       70.6390   78.3710  -13.5040 C.ar  590  X6B590      0.0462
     22  O22       68.5620   79.4860  -15.1440 O.2   590  X6B590     -0.2715
     23  O23       59.4210   80.8180   -8.6780 O.2   590  X6B590     -0.1503
     24  O24       59.8750   83.0130   -7.9380 O.2   590  X6B590     -0.1503
     25  F25       72.8110   77.5530  -14.0230 F     590  X6B590     -0.2041
     26  S26       65.9590   80.8970  -12.6280 S.3   590  X6B590     -0.0480
     27  S27       60.4570   81.7260   -8.3030 S.O2  590  X6B590      0.0935
@<TRIPOS>BOND
     1     4     7    1
     2    22    10    2
     3     7     1    2
     4     7     6    1
     5     1     8    2
     6    10     6    1
     7    10     3   am
     8     6    26    1
     9    25    20    1
    10     8     2    1
    11     8    26    1
    12    21    20   ar
    13    21    16   ar
    14    20    19   ar
    15     2     9    1
    16     3    16    1
    17    16    17   ar
    18    19    18   ar
    19     9    11   ar
    20     9    15   ar
    21    11    12   ar
    22    17    18   ar
    23    15    14   ar
    24    12    13   ar
    25    14    13   ar
    26    13    27    1
    27    23    27    2
    28    27    24    2
    29    27     5    1
