@<TRIPOS>MOLECULE
3r9e_DSZ_A_1.pdb
 31 33 0 0 0
SMALL
GASTEIGER

@<TRIPOS>ATOM
      1  C         66.7480   10.2230    5.3880 C.2   500  DSZ500      0.2804
      2  N         66.3420   11.7820    3.5690 N.3   500  DSZ500     -0.1224
      3  O         65.7880   10.7060    5.9740 O.2   500  DSZ500     -0.2701
      4  N1        63.1790    1.0630   10.6850 N.2   500  DSZ500      0.0021
      5  C2        62.3300    1.5130    9.7340 C.3   500  DSZ500      0.5254
      6  N3        62.4020    2.7350    9.1760 N.2   500  DSZ500     -0.0055
      7  C4        63.3690    3.5800    9.5820 C.2   500  DSZ500      0.3518
      8  C5        64.3370    3.1730   10.5990 C.2   500  DSZ500      0.2526
      9  C6        64.1860    1.8260   11.1490 C.2   500  DSZ500      0.4393
     10  N6        65.0540    1.4010   12.0880 N.pl3 500  DSZ500      0.2180
     11  N7        65.1780    4.2030   10.7890 N.2   500  DSZ500     -0.2095
     12  C8        64.7820    5.2010    9.9720 C.3   500  DSZ500      0.3377
     13  N9        63.7010    4.8250    9.2550 N.pl3 500  DSZ500     -0.1439
     14  CA        67.3380   10.9250    4.1980 C.3   500  DSZ500      0.1822
     15  CB        68.6150   11.6820    4.5820 C.3   500  DSZ500      0.1424
     16  CG        68.3800   12.9340    5.4160 C.2   500  DSZ500      0.3668
     17  C1'       62.9930    5.6240    8.2410 C.3   500  DSZ500      0.3186
     18  C2'       62.7740    7.0740    8.6290 C.3   500  DSZ500      0.2570
     19  O2'       61.6610    7.2310    9.5130 O.3   500  DSZ500     -0.2130
     20  C3'       62.5810    7.7310    7.2760 C.3   500  DSZ500      0.2185
     21  O3'       61.2330    7.6380    6.8190 O.3   500  DSZ500     -0.2174
     22  C4'       63.3880    6.8620    6.3210 C.3   500  DSZ500      0.1842
     23  O4'       63.7850    5.6900    7.0550 O.3   500  DSZ500     -0.3135
     24  C5'       64.6140    7.5660    5.7790 C.3   500  DSZ500      0.2064
     25  O5'       65.2880    8.1170    6.9050 O.3   500  DSZ500     -0.2230
     26  NAT       67.3380    9.0700    5.7220 N.am  500  DSZ500     -0.0576
     27  OAX       67.4730    6.8350    6.6190 O.3   500  DSZ500     -0.0508
     28  OAY       67.3720    8.6900    8.1850 O.3   500  DSZ500     -0.0508
     29  SBE       66.9080    8.1660    6.8900 S.3   500  DSZ500      0.0852
     30  OD1       69.3900   13.5460    5.8480 O.co2 500  DSZ500     -0.2456
     31  OD2       67.2140   13.3360    5.6480 O.co2 500  DSZ500     -0.2456
@<TRIPOS>BOND
     1     2    14    1
     2    14    15    1
     3    14     1    1
     4    15    16    1
     5     1    26   am
     6     1     3    2
     7    16    31   ar
     8    16    30   ar
     9    26    29    1
    10    24    22    1
    11    24    25    1
    12    22    23    1
    13    22    20    1
    14    27    29    1
    15    21    20    1
    16    29    25    1
    17    29    28    1
    18    23    17    1
    19    20    18    1
    20    17    18    1
    21    17    13    1
    22    18    19    1
    23     6     7    2
    24     6     5    1
    25    13     7    1
    26    13    12    1
    27     7     8    1
    28     5     4    1
    29    12    11    1
    30     8    11    2
    31     8     9    1
    32     4     9    2
    33     9    10    1
