@<TRIPOS>MOLECULE
3r9e_COA_A_1.pdb
 48 50 0 0 0
SMALL
GASTEIGER

@<TRIPOS>ATOM
      1  N1A       51.3900    9.1160   -8.9630 N.2   400  COA400      0.0021
      2  C2A       52.6390    9.4480   -9.3420 C.3   400  COA400      0.5254
      3  N3A       53.4390    8.5870  -10.0060 N.2   400  COA400     -0.0055
      4  C4A       52.9630    7.3530  -10.2820 C.2   400  COA400      0.3518
      5  C5A       51.6750    6.9880   -9.9390 C.2   400  COA400      0.2526
      6  C6A       50.8780    7.8930   -9.2490 C.2   400  COA400      0.4393
      7  N6A       49.6200    7.5500   -8.8720 N.pl3 400  COA400      0.2180
      8  N7A       51.5030    5.7150  -10.3810 N.2   400  COA400     -0.2095
      9  C8A       52.6270    5.2530  -11.0050 C.3   400  COA400      0.3377
     10  N9A       53.5900    6.3500  -11.0240 N.pl3 400  COA400     -0.1439
     11  C1B       55.0340    6.0150  -10.9470 C.3   400  COA400      0.3185
     12  C2B       55.8790    7.1020  -11.6000 C.3   400  COA400      0.2543
     13  O2B       55.8660    7.0540  -13.0320 O.3   400  COA400     -0.2131
     14  C3B       57.2520    6.8350  -11.0300 C.3   400  COA400      0.1928
     15  O3B       57.8190    5.6970  -11.6880 O.3   400  COA400     -0.2673
     16  P3B       59.2310    5.7100  -12.4700 P.3   400  COA400      0.5327
     17  O7A       59.2460    4.4070  -13.2330 O.3   400  COA400     -0.1145
     18  O8A       60.2900    5.7980  -11.3940 O.3   400  COA400     -0.1145
     19  O9A       59.1820    6.9490  -13.3320 O.2   400  COA400     -0.2224
     20  C4B       56.9240    6.4180   -9.6110 C.3   400  COA400      0.1795
     21  O4B       55.5920    5.8760   -9.6400 O.3   400  COA400     -0.3136
     22  C5B       56.9910    7.5970   -8.6500 C.3   400  COA400      0.1812
     23  O5B       56.5460    7.1370   -7.3830 O.3   400  COA400     -0.3112
     24  P1A       56.9470    7.8990   -6.0240 P.3   400  COA400      0.2189
     25  O1A       57.4720    9.2820   -6.3440 O.2   400  COA400     -0.5170
     26  O2A       55.8040    7.7770   -5.0570 O.3   400  COA400     -0.4371
     27  O3A       58.1960    7.0450   -5.4570 O.3   400  COA400     -0.2703
     28  P2A       58.9440    5.7150   -5.9840 P.3   400  COA400      0.2188
     29  O4A       57.9920    4.5590   -6.0430 O.3   400  COA400     -0.4371
     30  O5A       59.7430    6.0600   -7.2080 O.2   400  COA400     -0.5170
     31  O6A       59.9460    5.4670   -4.7710 O.3   400  COA400     -0.3138
     32  CBP       61.7210    6.0600   -3.2270 C.3   400  COA400      0.0645
     33  CCP       60.9820    6.4100   -4.5080 C.3   400  COA400      0.1519
     34  CDP       62.8200    7.0930   -3.0170 C.3   400  COA400      0.0056
     35  CEP       60.7260    6.1120   -2.0770 C.3   400  COA400      0.0056
     36  CAP       62.3050    4.6470   -3.3850 C.3   400  COA400      0.2312
     37  OAP       63.2030    4.6230   -4.5030 O.3   400  COA400     -0.2131
     38  C9P       63.0040    4.1290   -2.1530 C.2   400  COA400      0.2719
     39  O9P       62.3650    3.7030   -1.2040 O.2   400  COA400     -0.2706
     40  N8P       64.3330    4.1660   -2.1520 N.am  400  COA400     -0.2028
     41  C7P       65.2190    3.6870   -1.0890 C.3   400  COA400      0.1248
     42  C6P       65.0420    4.5430    0.1600 C.3   400  COA400      0.1102
     43  C5P       65.5850    5.9270   -0.0800 C.2   400  COA400      0.2432
     44  O5P       66.5210    6.1220   -0.8480 O.2   400  COA400     -0.2733
     45  N4P       64.9980    6.9150    0.5790 N.am  400  COA400     -0.2044
     46  C3P       65.3130    8.3300    0.5360 C.3   400  COA400      0.1276
     47  C2P       66.5500    8.4550    1.4110 C.3   400  COA400      0.0920
     48  S1P       67.5580    9.7630    0.7080 S.3   400  COA400     -0.0802
@<TRIPOS>BOND
     1    19    16    2
     2    17    16    1
     3    13    12    1
     4    16    15    1
     5    16    18    1
     6    15    14    1
     7    12    14    1
     8    12    11    1
     9    14    20    1
    10    10     9    1
    11    10    11    1
    12    10     4    1
    13     9     8    1
    14    11    21    1
    15     8     5    2
    16     4     3    2
    17     4     5    1
    18     3     2    1
    19     5     6    1
    20    21    20    1
    21    20    22    1
    22     2     1    1
    23     6     1    2
    24     6     7    1
    25    22    23    1
    26    23    24    1
    27    30    28    2
    28    25    24    2
    29    29    28    1
    30    24    27    1
    31    24    26    1
    32    28    27    1
    33    28    31    1
    34    31    33    1
    35    33    32    1
    36    37    36    1
    37    36    32    1
    38    36    38    1
    39    32    34    1
    40    32    35    1
    41    38    40   am
    42    38    39    2
    43    40    41    1
    44    41    42    1
    45    44    43    2
    46    43    42    1
    47    43    45   am
    48    46    45    1
    49    46    47    1
    50    48    47    1
