@<TRIPOS>MOLECULE
3r9f_COA_A_1.pdb
 48 50 0 0 0
SMALL
GASTEIGER

@<TRIPOS>ATOM
      1  N1A       51.3580    9.1550   -8.8860 N.2   400  COA400      0.0021
      2  C2A       52.6040    9.4790   -9.2820 C.3   400  COA400      0.5254
      3  N3A       53.3900    8.6080   -9.9490 N.2   400  COA400     -0.0055
      4  C4A       52.9020    7.3750  -10.2130 C.2   400  COA400      0.3518
      5  C5A       51.6150    7.0200   -9.8530 C.2   400  COA400      0.2526
      6  C6A       50.8330    7.9340   -9.1580 C.2   400  COA400      0.4393
      7  N6A       49.5780    7.6030   -8.7610 N.pl3 400  COA400      0.2180
      8  N7A       51.4280    5.7440  -10.2850 N.2   400  COA400     -0.2095
      9  C8A       52.5420    5.2760  -10.9210 C.3   400  COA400      0.3377
     10  N9A       53.5150    6.3650  -10.9600 N.pl3 400  COA400     -0.1439
     11  C1B       54.9500    6.0020  -10.8870 C.3   400  COA400      0.3185
     12  C2B       55.8050    7.0530  -11.5770 C.3   400  COA400      0.2543
     13  O2B       55.8150    6.9240  -13.0020 O.3   400  COA400     -0.2131
     14  C3B       57.1730    6.8310  -10.9790 C.3   400  COA400      0.1928
     15  O3B       57.7370    5.6780  -11.6040 O.3   400  COA400     -0.2673
     16  P3B       59.1520    5.6780  -12.3740 P.3   400  COA400      0.5327
     17  O7A       59.1700    4.3660  -13.1250 O.3   400  COA400     -0.1145
     18  O8A       60.1980    5.7840  -11.2910 O.3   400  COA400     -0.1145
     19  O9A       59.1110    6.9000  -13.2620 O.2   400  COA400     -0.2224
     20  C4B       56.8420    6.4370   -9.5520 C.3   400  COA400      0.1795
     21  O4B       55.5160    5.8860   -9.5800 O.3   400  COA400     -0.3136
     22  C5B       56.8990    7.6180   -8.5860 C.3   400  COA400      0.1812
     23  O5B       56.4410    7.1680   -7.3190 O.3   400  COA400     -0.3112
     24  P1A       56.8730    7.9190   -5.9620 P.3   400  COA400      0.2189
     25  O1A       57.3570    9.3120   -6.2760 O.2   400  COA400     -0.5170
     26  O2A       55.7540    7.7790   -4.9640 O.3   400  COA400     -0.4371
     27  O3A       58.1470    7.0900   -5.4210 O.3   400  COA400     -0.2703
     28  P2A       58.8890    5.7510   -5.9370 P.3   400  COA400      0.2188
     29  O4A       57.9290    4.6000   -5.9710 O.3   400  COA400     -0.4371
     30  O5A       59.6940    6.0870   -7.1610 O.2   400  COA400     -0.5170
     31  O6A       59.8840    5.5290   -4.7040 O.3   400  COA400     -0.3138
     32  CBP       61.6700    6.1260   -3.1710 C.3   400  COA400      0.0645
     33  CCP       60.9140    6.4810   -4.4460 C.3   400  COA400      0.1519
     34  CDP       62.7570    7.1800   -2.9690 C.3   400  COA400      0.0056
     35  CEP       60.6830    6.1720   -2.0090 C.3   400  COA400      0.0056
     36  CAP       62.2590    4.7200   -3.3380 C.3   400  COA400      0.2312
     37  OAP       63.1540    4.7140   -4.4600 O.3   400  COA400     -0.2131
     38  C9P       62.9570    4.2140   -2.1020 C.2   400  COA400      0.2719
     39  O9P       62.3150    3.7730   -1.1610 O.2   400  COA400     -0.2706
     40  N8P       64.2850    4.2900   -2.0750 N.am  400  COA400     -0.2028
     41  C7P       65.1500    3.8350   -0.9820 C.3   400  COA400      0.1248
     42  C6P       64.9860    4.7270    0.2520 C.3   400  COA400      0.1102
     43  C5P       65.4900    6.1300   -0.0030 C.2   400  COA400      0.2432
     44  O5P       66.3510    6.3530   -0.8430 O.2   400  COA400     -0.2733
     45  N4P       64.9590    7.1140    0.7200 N.am  400  COA400     -0.2044
     46  C3P       65.2520    8.5500    0.6680 C.3   400  COA400      0.1276
     47  C2P       66.5890    8.8060    1.3770 C.3   400  COA400      0.0920
     48  S1P       66.7880   10.5480    1.8740 S.3   400  COA400     -0.0802
@<TRIPOS>BOND
     1    19    16    2
     2    17    16    1
     3    13    12    1
     4    16    15    1
     5    16    18    1
     6    15    14    1
     7    12    14    1
     8    12    11    1
     9    14    20    1
    10    10     9    1
    11    10    11    1
    12    10     4    1
    13     9     8    1
    14    11    21    1
    15     8     5    2
    16     4     3    2
    17     4     5    1
    18     3     2    1
    19     5     6    1
    20    21    20    1
    21    20    22    1
    22     2     1    1
    23     6     1    2
    24     6     7    1
    25    22    23    1
    26    23    24    1
    27    30    28    2
    28    25    24    2
    29    29    28    1
    30    24    27    1
    31    24    26    1
    32    28    27    1
    33    28    31    1
    34    31    33    1
    35    37    36    1
    36    33    32    1
    37    36    32    1
    38    36    38    1
    39    32    34    1
    40    32    35    1
    41    38    40   am
    42    38    39    2
    43    40    41    1
    44    41    42    1
    45    44    43    2
    46    43    42    1
    47    43    45   am
    48    46    45    1
    49    46    47    1
    50    47    48    1
