@<TRIPOS>MOLECULE
3r9f_GSU_A_1.pdb
 32 34 0 0 0
SMALL
GASTEIGER

@<TRIPOS>ATOM
      1  C2        62.3180    1.6400    9.8260 C.3   500  GSU500      0.5254
      2  S         66.9300    8.1190    6.9940 S.3   500  GSU500      0.0852
      3  N         66.9370   12.6920    5.0690 N.3   500  GSU500     -0.1230
      4  CA        67.4740   11.3500    4.8810 C.3   500  GSU500      0.1715
      5  CB        68.9830   11.3780    5.1240 C.3   500  GSU500      0.0403
      6  CG        69.3390   11.8800    6.5200 C.3   500  GSU500      0.1161
      7  CD        69.8880   13.2870    6.4870 C.2   500  GSU500      0.3649
      8  OE1       71.1100   13.4560    6.6820 O.co2 500  GSU500     -0.2457
      9  OE2       69.1010   14.2350    6.2940 O.co2 500  GSU500     -0.2457
     10  C         66.7910   10.3740    5.8010 C.2   500  GSU500      0.2798
     11  O         65.6980   10.6650    6.2540 O.2   500  GSU500     -0.2701
     12  N10       67.4420    9.2280    6.0640 N.am  500  GSU500     -0.0577
     13  O1S       67.4410    6.8240    6.5390 O.3   500  GSU500     -0.0508
     14  O2S       67.3880    8.4170    8.3610 O.3   500  GSU500     -0.0508
     15  O5'       65.3160    8.1050    6.9820 O.3   500  GSU500     -0.2230
     16  C5'       64.6140    7.5920    5.8560 C.3   500  GSU500      0.2064
     17  C4'       63.3570    6.9220    6.3790 C.3   500  GSU500      0.1842
     18  O4'       63.7330    5.7530    7.1190 O.3   500  GSU500     -0.3135
     19  C1'       62.9490    5.6940    8.3000 C.3   500  GSU500      0.3186
     20  N9        63.6610    4.8860    9.3040 N.pl3 500  GSU500     -0.1439
     21  C4        63.3930    3.6410    9.6890 C.2   500  GSU500      0.3518
     22  N3        62.3820    2.8120    9.2830 N.2   500  GSU500     -0.0055
     23  N1        63.1170    1.1680   10.7270 N.2   500  GSU500      0.0021
     24  C6        64.1320    1.8920   11.2010 C.2   500  GSU500      0.4393
     25  N6        64.9430    1.4720   12.0860 N.pl3 500  GSU500      0.2180
     26  C5        64.2800    3.2430   10.6430 C.2   500  GSU500      0.2526
     27  N7        65.1460    4.2510   10.8410 N.2   500  GSU500     -0.2095
     28  C8        64.7550    5.2520   10.0130 C.3   500  GSU500      0.3377
     29  C2'       62.7810    7.1540    8.6800 C.3   500  GSU500      0.2570
     30  O2'       61.6890    7.3160    9.5860 O.3   500  GSU500     -0.2130
     31  C3'       62.5710    7.8100    7.3290 C.3   500  GSU500      0.2185
     32  O3'       61.2090    7.7160    6.9190 O.3   500  GSU500     -0.2174
@<TRIPOS>BOND
     1     4     3    1
     2     4     5    1
     3     4    10    1
     4     5     6    1
     5    10    12   am
     6    10    11    2
     7    16    17    1
     8    16    15    1
     9    12     2    1
    10     9     7   ar
    11    17    18    1
    12    17    31    1
    13     7     6    1
    14     7     8   ar
    15    13     2    1
    16    32    31    1
    17    15     2    1
    18     2    14    1
    19    18    19    1
    20    31    29    1
    21    19    29    1
    22    19    20    1
    23    29    30    1
    24    22    21    2
    25    22     1    1
    26    20    21    1
    27    20    28    1
    28    21    26    1
    29     1    23    1
    30    28    27    1
    31    26    27    2
    32    26    24    1
    33    23    24    2
    34    24    25    1
