@<TRIPOS>MOLECULE
3r9g_COA_A_1.pdb
 48 50 0 0 0
SMALL
GASTEIGER

@<TRIPOS>ATOM
      1  N1A       50.6360    9.2370   -8.9620 N.2   400  COA400      0.0021
      2  C2A       51.8720    9.4520   -9.2300 C.3   400  COA400      0.5254
      3  N3A       52.6820    8.5570   -9.6600 N.2   400  COA400     -0.0055
      4  C4A       52.1900    7.3340  -10.0350 C.2   400  COA400      0.3518
      5  C5A       50.8750    7.0470   -9.8600 C.2   400  COA400      0.2526
      6  C6A       50.0490    8.0640   -9.2060 C.2   400  COA400      0.4393
      7  N6A       48.8380    7.7340   -8.7680 N.pl3 400  COA400      0.2180
      8  N7A       50.6770    5.7940  -10.2930 N.2   400  COA400     -0.2095
      9  C8A       51.8800    5.3620  -10.7580 C.3   400  COA400      0.3377
     10  N9A       52.8250    6.3220  -10.6160 N.pl3 400  COA400     -0.1439
     11  C1B       54.2560    6.1100  -10.9090 C.3   400  COA400      0.3185
     12  C2B       55.0740    7.2210  -11.5210 C.3   400  COA400      0.2543
     13  O2B       55.0720    7.1250  -12.9440 O.3   400  COA400     -0.2131
     14  C3B       56.4490    6.9500  -10.9380 C.3   400  COA400      0.1928
     15  O3B       57.0240    5.7830  -11.5490 O.3   400  COA400     -0.2673
     16  P3B       58.4160    5.8100  -12.3620 P.3   400  COA400      0.5327
     17  O7A       58.4120    4.5320  -13.1630 O.3   400  COA400     -0.1145
     18  O8A       59.5120    5.9120  -11.3290 O.3   400  COA400     -0.1145
     19  O9A       58.3590    7.0650  -13.2050 O.2   400  COA400     -0.2224
     20  C4B       56.1350    6.5310   -9.5150 C.3   400  COA400      0.1795
     21  O4B       54.8260    5.9360   -9.5850 O.3   400  COA400     -0.3136
     22  C5B       56.1480    7.7100   -8.5420 C.3   400  COA400      0.1812
     23  O5B       55.7010    7.2660   -7.2650 O.3   400  COA400     -0.3112
     24  P1A       56.1590    7.9970   -5.9090 P.3   400  COA400      0.2189
     25  O1A       56.7350    9.3500   -6.2280 O.2   400  COA400     -0.5170
     26  O2A       55.0210    7.9290   -4.9460 O.3   400  COA400     -0.4371
     27  O3A       57.3290    7.0800   -5.2990 O.3   400  COA400     -0.2703
     28  P2A       58.1010    5.8010   -5.9080 P.3   400  COA400      0.2188
     29  O4A       57.1440    4.6580   -5.9940 O.3   400  COA400     -0.4371
     30  O5A       58.8540    6.1820   -7.1440 O.2   400  COA400     -0.5170
     31  O6A       59.1050    5.5030   -4.7130 O.3   400  COA400     -0.3138
     32  CBP       60.9380    6.0510   -3.2020 C.3   400  COA400      0.0645
     33  CCP       60.1720    6.4340   -4.4590 C.3   400  COA400      0.1519
     34  CDP       62.0840    7.0460   -3.0340 C.3   400  COA400      0.0056
     35  CEP       59.9720    6.1450   -2.0220 C.3   400  COA400      0.0056
     36  CAP       61.4520    4.6210   -3.3890 C.3   400  COA400      0.2312
     37  OAP       62.2850    4.5820   -4.5510 O.3   400  COA400     -0.2131
     38  C9P       62.2090    4.0820   -2.2020 C.2   400  COA400      0.2719
     39  O9P       61.6240    3.7110   -1.1990 O.2   400  COA400     -0.2706
     40  N8P       63.5330    4.0160   -2.2910 N.am  400  COA400     -0.2028
     41  C7P       64.4700    3.5030   -1.2850 C.3   400  COA400      0.1248
     42  C6P       64.4230    4.3280    0.0000 C.3   400  COA400      0.1102
     43  C5P       64.7810    5.7610   -0.2830 C.2   400  COA400      0.2432
     44  O5P       65.5900    6.0430   -1.1590 O.2   400  COA400     -0.2733
     45  N4P       64.1700    6.6970    0.4430 N.am  400  COA400     -0.2044
     46  C3P       64.3560    8.1370    0.3290 C.3   400  COA400      0.1276
     47  C2P       65.7390    8.4500    0.8840 C.3   400  COA400      0.0920
     48  S1P       66.1630   10.1410    0.4220 S.3   400  COA400     -0.0802
@<TRIPOS>BOND
     1    19    16    2
     2    17    16    1
     3    13    12    1
     4    16    15    1
     5    16    18    1
     6    15    14    1
     7    12    14    1
     8    12    11    1
     9    14    20    1
    10    11    10    1
    11    11    21    1
    12     9    10    1
    13     9     8    1
    14    10     4    1
    15     8     5    2
    16     4     5    1
    17     4     3    2
    18     5     6    1
    19     3     2    1
    20    21    20    1
    21    20    22    1
    22     2     1    1
    23     6     1    2
    24     6     7    1
    25    22    23    1
    26    23    24    1
    27    30    28    2
    28    25    24    2
    29    29    28    1
    30    24    27    1
    31    24    26    1
    32    28    27    1
    33    28    31    1
    34    31    33    1
    35    37    36    1
    36    33    32    1
    37    36    32    1
    38    36    38    1
    39    32    34    1
    40    32    35    1
    41    40    38   am
    42    40    41    1
    43    38    39    2
    44    41    42    1
    45    44    43    2
    46    43    42    1
    47    43    45   am
    48    46    45    1
    49    46    47    1
    50    48    47    1
