@<TRIPOS>MOLECULE
3r9g_7MC_A_1.pdb
 38 40 0 0 0
SMALL
GASTEIGER

@<TRIPOS>ATOM
      1  C         65.8550   10.3920    5.2000 C.2   500  7MC500      0.2706
      2  N         65.3380   11.9170    3.2960 N.am  500  7MC500     -0.1972
      3  O         64.9340   10.8070    5.8970 O.2   500  7MC500     -0.2710
      4  P         66.0880    8.1620    6.6600 P.3   500  7MC500      0.4500
      5  N1        62.4080    1.1690   10.6750 N.2   500  7MC500      0.0021
      6  C2        61.5200    1.6130    9.7680 C.3   500  7MC500      0.5254
      7  N3        61.5920    2.8370    9.2150 N.2   500  7MC500     -0.0055
      8  C4        62.5990    3.6650    9.6020 C.2   500  7MC500      0.3518
      9  C5        63.5370    3.2490   10.5440 C.2   500  7MC500      0.2526
     10  C6        63.4280    1.9600   11.0870 C.2   500  7MC500      0.4393
     11  N6        64.3230    1.5120   12.0050 N.pl3 500  7MC500      0.2180
     12  N7        64.4000    4.2750   10.7240 N.2   500  7MC500     -0.2095
     13  C8        64.0090    5.2920    9.9260 C.3   500  7MC500      0.3377
     14  N8        66.4830    9.2380    5.3720 N.am  500  7MC500     -0.1073
     15  N9        62.9040    4.9200    9.2550 N.pl3 500  7MC500     -0.1439
     16  CA        66.3660   11.1520    4.0140 C.3   500  7MC500      0.1844
     17  CB        67.6190   12.0020    4.2970 C.3   500  7MC500      0.1450
     18  CG        67.5540   13.0290    5.4020 C.2   500  7MC500      0.3671
     19  C1'       62.1400    5.7210    8.2760 C.3   500  7MC500      0.3186
     20  O1P       66.7910    6.7960    6.4090 O.2   500  7MC500     -0.2344
     21  C2'       61.9900    7.1850    8.6500 C.3   500  7MC500      0.2570
     22  O2'       60.9110    7.3660    9.5690 O.3   500  7MC500     -0.2130
     23  C3'       61.7500    7.8400    7.2990 C.3   500  7MC500      0.2184
     24  O3'       60.3720    7.8580    6.9240 O.3   500  7MC500     -0.2174
     25  O31       66.5420    8.7960    8.0520 O.3   500  7MC500     -0.2790
     26  C32       65.7300    9.6650    8.8310 C.3   500  7MC500      0.1545
     27  C33       66.6330   10.3250    9.8630 C.3   500  7MC500      0.0531
     28  C34       67.4520   11.4370    9.2190 C.3   500  7MC500      0.1119
     29  N35       68.6610   11.6520    9.9900 N.3   500  7MC500     -0.1313
     30  C36       64.1860   11.3640    2.8510 C.2   500  7MC500      0.2423
     31  C37       63.9300   10.0960    3.1490 C.3   500  7MC500      0.0964
     32  O38       63.3400   11.9970    2.2040 O.2   500  7MC500     -0.2733
     33  C4'       62.4620    6.9190    6.3150 C.3   500  7MC500      0.1823
     34  O4'       62.8740    5.7770    7.0690 O.3   500  7MC500     -0.3135
     35  C5'       63.7170    7.5180    5.7010 C.3   500  7MC500      0.1852
     36  O5'       64.5120    8.0330    6.7720 O.3   500  7MC500     -0.2763
     37  OD1       68.6190   13.2800    6.0160 O.co2 500  7MC500     -0.2456
     38  OD2       66.4900   13.6300    5.6400 O.co2 500  7MC500     -0.2456
@<TRIPOS>BOND
     1    32    30    2
     2    30    31    1
     3    30     2   am
     4     2    16    1
     5    16    17    1
     6    16     1    1
     7    17    18    1
     8     1    14   am
     9     1     3    2
    10    14     4    1
    11    18    38   ar
    12    18    37   ar
    13    35    33    1
    14    35    36    1
    15    33    34    1
    16    33    23    1
    17    20     4    2
    18     4    36    1
    19     4    25    1
    20    24    23    1
    21    34    19    1
    22    23    21    1
    23    25    26    1
    24    19    21    1
    25    19    15    1
    26    21    22    1
    27    26    27    1
    28     7     8    2
    29     7     6    1
    30    28    27    1
    31    28    29    1
    32    15     8    1
    33    15    13    1
    34     8     9    1
    35     6     5    1
    36    13    12    1
    37     9    12    2
    38     9    10    1
    39     5    10    2
    40    10    11    1
