@<TRIPOS>MOLECULE
3r9h_Z67_A_1.pdb
 28 30 0 0 0
SMALL
GASTEIGER

@<TRIPOS>ATOM
      1  C1       -66.9160   -8.9650  -49.9820 C.3   606  Z67606      0.2030
      2  C2       -66.4650   -9.7470  -51.0020 C.2   606  Z67606      0.2177
      3  N3       -65.3230  -10.4740  -50.6790 N.2   606  Z67606     -0.3641
      4  C4       -64.9060  -10.2450  -49.4460 C.2   606  Z67606      0.2328
      5  S5       -65.9050   -9.1300  -48.5540 S.3   606  Z67606     -0.0480
      6  C6       -68.0550   -8.0330  -49.9260 C.2   606  Z67606      0.2642
      7  N7       -67.0380   -9.8380  -52.2680 N.pl3 606  Z67606     -0.0965
      8  N8       -63.7650  -10.8060  -48.9430 N.pl3 606  Z67606     -0.1781
      9  O9       -68.6460   -7.7390  -50.9680 O.2   606  Z67606     -0.2715
     10  C10      -61.4780  -10.3660  -45.5040 C.ar  606  Z67606      0.1251
     11  C11      -61.3170  -11.5430  -46.3140 C.ar  606  Z67606      0.0213
     12  C12      -62.1150  -11.7020  -47.4670 C.ar  606  Z67606      0.0180
     13  C13      -63.0710  -10.6940  -47.8120 C.ar  606  Z67606      0.0737
     14  C14      -63.2230   -9.5230  -46.9730 C.ar  606  Z67606      0.0180
     15  C15      -62.4290   -9.3620  -45.8210 C.ar  606  Z67606      0.0213
     16  S16      -60.4260  -10.1420  -44.1230 S.O2  606  Z67606      0.0935
     17  O17      -59.3380   -9.3120  -44.6450 O.2   606  Z67606     -0.1503
     18  N18      -61.2970   -9.2300  -42.9570 N.3   606  Z67606      0.0392
     19  O19      -60.1180  -11.4690  -43.5560 O.2   606  Z67606     -0.1503
     20  N20      -68.3350   -7.5150  -48.7200 N.am  606  Z67606     -0.1735
     21  C21      -71.2410   -4.5600  -47.5870 C.ar  606  Z67606      0.0047
     22  C22      -71.6840   -5.7540  -48.2420 C.ar  606  Z67606      0.0311
     23  C23      -70.7320   -6.7580  -48.6290 C.ar  606  Z67606      0.1575
     24  C24      -69.3180   -6.5530  -48.3540 C.ar  606  Z67606      0.1281
     25  C25      -68.8920   -5.3510  -47.6990 C.ar  606  Z67606      0.1575
     26  C26      -69.8470   -4.3590  -47.3140 C.ar  606  Z67606      0.0311
     27  F27      -67.5660   -5.1510  -47.4420 F     606  Z67606     -0.2027
     28  F28      -71.1790   -7.8840  -49.2480 F     606  Z67606     -0.2027
@<TRIPOS>BOND
     1     7     2    1
     2     2     3    2
     3     2     1    1
     4     9     6    2
     5     3     4    2
     6     1     6    1
     7     1     5    1
     8     6    20   am
     9     4     8    1
    10     4     5    1
    11    28    23    1
    12     8    13    1
    13    20    24    1
    14    23    24   ar
    15    23    22   ar
    16    24    25   ar
    17    22    21   ar
    18    13    12   ar
    19    13    14   ar
    20    25    27    1
    21    25    26   ar
    22    21    26   ar
    23    12    11   ar
    24    14    15   ar
    25    11    10   ar
    26    15    10   ar
    27    10    16    1
    28    17    16    2
    29    16    19    2
    30    16    18    1
