@<TRIPOS>MOLECULE
3r9i_ADP_A_1.pdb
 27 29 0 0 0
SMALL
GASTEIGER

@<TRIPOS>ATOM
      1  PB        -4.9750    0.9410    3.0790 P.3   261  ADP261      0.5373
      2  O1B       -5.8130    0.7150    1.8700 O.2   261  ADP261     -0.2221
      3  O2B       -5.6100    0.5330    4.3800 O.3   261  ADP261     -0.1143
      4  O3B       -3.5540    0.4920    2.9560 O.3   261  ADP261     -0.1143
      5  PA        -5.5000    3.3750    4.4530 P.3   261  ADP261      0.2231
      6  O1A       -4.4540    3.1980    5.5060 O.3   261  ADP261     -0.4370
      7  O2A       -6.9570    3.2030    4.7910 O.2   261  ADP261     -0.5169
      8  O3A       -5.0070    2.5220    3.1780 O.3   261  ADP261     -0.2261
      9  O5'       -5.3010    4.8640    3.7990 O.3   261  ADP261     -0.3111
     10  C5'       -4.2130    5.2870    2.9800 C.3   261  ADP261      0.1813
     11  C4'       -4.0000    6.7930    3.2050 C.3   261  ADP261      0.1821
     12  O4'       -5.0440    7.5620    2.6140 O.3   261  ADP261     -0.3135
     13  C3'       -4.0250    7.1800    4.6670 C.3   261  ADP261      0.2184
     14  O3'       -2.9390    8.0860    4.8770 O.3   261  ADP261     -0.2174
     15  C2'       -5.3660    7.8820    4.8880 C.3   261  ADP261      0.2570
     16  O2'       -5.3130    8.9030    5.8930 O.3   261  ADP261     -0.2130
     17  C1'       -5.6840    8.4420    3.5290 C.3   261  ADP261      0.3186
     18  N9        -7.1200    8.4670    3.1730 N.pl3 261  ADP261     -0.1439
     19  C8        -7.8910    7.4080    3.0100 C.3   261  ADP261      0.3377
     20  N7        -9.1350    7.7910    2.6410 N.2   261  ADP261     -0.2095
     21  C5        -9.1690    9.1160    2.5840 C.2   261  ADP261      0.2526
     22  C6       -10.1720   10.1390    2.2610 C.2   261  ADP261      0.4393
     23  N6       -11.4380    9.7990    1.9390 N.pl3 261  ADP261      0.2180
     24  N1        -9.7870   11.4340    2.3000 N.2   261  ADP261      0.0021
     25  C2        -8.5350   11.7850    2.6130 C.3   261  ADP261      0.5254
     26  N3        -7.5860   10.8860    2.9140 N.2   261  ADP261     -0.0055
     27  C4        -7.8380    9.5620    2.9240 C.2   261  ADP261      0.3518
@<TRIPOS>BOND
     1     2     1    2
     2    23    22    1
     3    22    24    2
     4    22    21    1
     5    24    25    1
     6    21    20    2
     7    21    27    1
     8    25    26    1
     9    12    11    1
    10    12    17    1
    11    20    19    1
    12    26    27    2
    13    27    18    1
    14     4     1    1
    15    10    11    1
    16    10     9    1
    17    19    18    1
    18     1     8    1
    19     1     3    1
    20    18    17    1
    21     8     5    1
    22    11    13    1
    23    17    15    1
    24     9     5    1
    25     5     7    2
    26     5     6    1
    27    13    14    1
    28    13    15    1
    29    15    16    1
