@<TRIPOS>MOLECULE
3r9j_ADP_A_1.pdb
 27 29 0 0 0
SMALL
GASTEIGER

@<TRIPOS>ATOM
      1  PB        21.5500    7.4220   39.9550 P.3   261  ADP261      0.5373
      2  O1B       21.0380    6.3380   39.0610 O.2   261  ADP261     -0.2221
      3  O2B       21.7140    6.9390   41.3700 O.3   261  ADP261     -0.1143
      4  O3B       22.8370    8.0400   39.3940 O.3   261  ADP261     -0.1143
      5  PA        19.6410    9.0570   41.1800 P.3   261  ADP261      0.2231
      6  O1A       20.6420    9.8900   41.9440 O.2   261  ADP261     -0.5169
      7  O2A       18.8820    8.0250   42.0340 O.3   261  ADP261     -0.4370
      8  O3A       20.4160    8.4680   39.9550 O.3   261  ADP261     -0.2261
      9  O5'       18.5630   10.0130   40.5070 O.3   261  ADP261     -0.3111
     10  C5'       18.8970   10.8340   39.3640 C.3   261  ADP261      0.1813
     11  C4'       17.9430   12.0430   39.3670 C.3   261  ADP261      0.1821
     12  O4'       16.5970   11.7390   38.9790 O.3   261  ADP261     -0.3135
     13  C3'       17.8200   12.7170   40.7060 C.3   261  ADP261      0.2184
     14  O3'       17.9240   14.1140   40.4590 O.3   261  ADP261     -0.2174
     15  C2'       16.4650   12.2800   41.2600 C.3   261  ADP261      0.2570
     16  O2'       15.9070   13.3270   42.0700 O.3   261  ADP261     -0.2130
     17  C1'       15.6450   12.1610   39.9970 C.3   261  ADP261      0.3186
     18  N9        14.6200   11.1210   40.0580 N.pl3 261  ADP261     -0.1439
     19  C8        14.8370    9.7670   40.2360 C.3   261  ADP261      0.3377
     20  N7        13.6960    9.0740   40.2250 N.2   261  ADP261     -0.2095
     21  C5        12.6940   10.0050   40.0430 C.2   261  ADP261      0.2526
     22  C6        11.2660    9.9080   39.9480 C.2   261  ADP261      0.4393
     23  N6        10.5900    8.7310   40.0440 N.pl3 261  ADP261      0.2180
     24  N1        10.5400   11.0350   39.7650 N.2   261  ADP261      0.0021
     25  C2        11.1930   12.2210   39.6760 C.3   261  ADP261      0.5254
     26  N3        12.5440   12.4350   39.7450 N.2   261  ADP261     -0.0055
     27  C4        13.2540   11.2930   39.9350 C.2   261  ADP261      0.3518
@<TRIPOS>BOND
     1    12    11    1
     2    12    17    1
     3     2     1    2
     4    10    11    1
     5    10     9    1
     6    11    13    1
     7     4     1    1
     8    25    26    1
     9    25    24    1
    10    26    27    2
    11    24    22    2
    12    27    21    1
    13    27    18    1
    14    22    21    1
    15    22    23    1
    16     8     1    1
    17     8     5    1
    18     1     3    1
    19    17    18    1
    20    17    15    1
    21    21    20    2
    22    18    19    1
    23    20    19    1
    24    14    13    1
    25     9     5    1
    26    13    15    1
    27     5     6    2
    28     5     7    1
    29    15    16    1
