@<TRIPOS>MOLECULE
3r9n_Z68_A_1.pdb
 24 26 0 0 0
SMALL
GASTEIGER

@<TRIPOS>ATOM
      1  C1        94.8620   76.6930  -45.8750 C.ar  529  Z68529      0.0241
      2  N1        94.9440   78.9130  -44.7530 N.pl3 529  Z68529      0.0577
      3  O1        94.8530   80.2470  -44.7500 O.2   529  Z68529     -0.1261
      4  S1        92.1840   80.5770  -48.3090 S.3   529  Z68529     -0.0313
      5  C2        94.7740   78.2150  -45.8330 C.ar  529  Z68529      0.1430
      6  N2        91.8030   81.6670  -50.6500 N.2   529  Z68529     -0.3605
      7  O2        95.1920   78.3960  -43.6880 O.2   529  Z68529     -0.1261
      8  C3        94.4670   78.8940  -47.1590 C.ar  529  Z68529      0.0273
      9  N3        90.5050   82.6090  -48.8930 N.pl3 529  Z68529     -0.2059
     10  O3        94.5990   78.4450  -50.6810 O.2   529  Z68529     -0.2859
     11  C4        94.2690   78.1860  -48.3590 C.ar  529  Z68529      0.0412
     12  N4        93.2430   80.4430  -52.0780 N.pl3 529  Z68529     -0.0924
     13  C5        94.3710   76.6540  -48.3270 C.ar  529  Z68529      0.0033
     14  C6        94.6480   75.9630  -47.1650 C.ar  529  Z68529      0.0018
     15  C7        93.9930   78.8440  -49.5550 C.2   529  Z68529      0.2055
     16  C8        93.0320   79.9930  -49.6790 C.2   529  Z68529      0.1188
     17  C9        92.7130   80.6940  -50.8440 C.2   529  Z68529      0.2306
     18  C10       91.4280   81.7140  -49.3460 C.2   529  Z68529      0.2324
     19  C11       89.9070   82.4370  -47.5640 C.3   529  Z68529      0.0955
     20  C12       88.8040   81.2880  -47.5510 C.3   529  Z68529      0.0217
     21  C13       88.1840   81.1220  -46.1390 C.3   529  Z68529      0.0018
     22  C14       87.5940   82.4860  -45.6290 C.3   529  Z68529      0.0001
     23  C15       88.6370   83.6490  -45.6870 C.3   529  Z68529      0.0018
     24  C16       89.2830   83.7890  -47.0990 C.3   529  Z68529      0.0217
@<TRIPOS>BOND
     1    12    17    1
     2    17     6    2
     3    17    16    1
     4    10    15    1
     5     6    18    2
     6    16    15    2
     7    16     4    1
     8    15    11    1
     9    18     9    1
    10    18     4    1
    11     9    19    1
    12    11    13   ar
    13    11     8   ar
    14    13    14   ar
    15    19    20    1
    16    19    24    1
    17    20    21    1
    18    14     1   ar
    19     8     5   ar
    20    24    23    1
    21    21    22    1
    22     1     5   ar
    23     5     2    1
    24    23    22    1
    25     2     3    2
    26     2     7    2
