@<TRIPOS>MOLECULE
3r9o_Z71_A_1.pdb
 28 30 0 0 0
SMALL
GASTEIGER

@<TRIPOS>ATOM
      1  C1       -67.0380  -80.7910  -13.9380 C.3   401  Z71401      0.2030
      2  C2       -66.5180  -81.5330  -14.9690 C.2   401  Z71401      0.2177
      3  N3       -65.3600  -82.2210  -14.6460 N.2   401  Z71401     -0.3641
      4  C4       -64.9810  -82.0130  -13.3980 C.2   401  Z71401      0.2328
      5  S5       -66.0630  -80.9450  -12.4740 S.3   401  Z71401     -0.0480
      6  C6       -68.2420  -79.9240  -13.9240 C.2   401  Z71401      0.2640
      7  N7       -67.0450  -81.6180  -16.2460 N.pl3 401  Z71401     -0.0965
      8  N8       -63.8170  -82.5640  -12.9120 N.pl3 401  Z71401     -0.1781
      9  O9       -68.8630  -79.7700  -14.9790 O.2   401  Z71401     -0.2715
     10  C10      -61.5270  -82.2010   -9.4740 C.ar  401  Z71401      0.1251
     11  C11      -61.3650  -83.3590  -10.3100 C.ar  401  Z71401      0.0213
     12  C12      -62.1630  -83.5020  -11.4700 C.ar  401  Z71401      0.0180
     13  C13      -63.1240  -82.4860  -11.7870 C.ar  401  Z71401      0.0737
     14  C14      -63.2770  -81.3360  -10.9250 C.ar  401  Z71401      0.0180
     15  C15      -62.4850  -81.1950   -9.7720 C.ar  401  Z71401      0.0213
     16  S16      -60.4940  -81.9970   -8.0680 S.O2  401  Z71401      0.0935
     17  O17      -59.4260  -81.0740   -8.4640 O.2   401  Z71401     -0.1503
     18  N18      -61.4360  -81.2670   -6.8510 N.3   401  Z71401      0.0392
     19  O19      -60.1260  -83.3660   -7.6150 O.2   401  Z71401     -0.1503
     20  N20      -68.5890  -79.3420  -12.7500 N.am  401  Z71401     -0.1779
     21  C21      -71.8740  -76.7220  -11.8860 C.ar  401  Z71401      0.0593
     22  C22      -70.6860  -76.7060  -11.0810 C.ar  401  Z71401      0.1437
     23  C23      -69.5930  -77.5850  -11.3820 C.ar  401  Z71401      0.0464
     24  C24      -69.6930  -78.4830  -12.4900 C.ar  401  Z71401      0.0779
     25  C25      -70.8930  -78.4860  -13.2890 C.ar  401  Z71401      0.0464
     26  C26      -71.9710  -77.6140  -12.9910 C.ar  401  Z71401      0.1437
     27  F27      -70.5970  -75.8540  -10.0450 F     401  Z71401     -0.2041
     28  F28      -73.0860  -77.6380  -13.7660 F     401  Z71401     -0.2041
@<TRIPOS>BOND
     1     7     2    1
     2     9     6    2
     3     2     3    2
     4     2     1    1
     5     3     4    2
     6     1     6    1
     7     1     5    1
     8     6    20   am
     9    28    26    1
    10     4     8    1
    11     4     5    1
    12    25    26   ar
    13    25    24   ar
    14    26    21   ar
    15     8    13    1
    16    20    24    1
    17    24    23   ar
    18    21    22   ar
    19    13    12   ar
    20    13    14   ar
    21    12    11   ar
    22    23    22   ar
    23    22    27    1
    24    14    15   ar
    25    11    10   ar
    26    15    10   ar
    27    10    16    1
    28    17    16    2
    29    16    19    2
    30    16    18    1
