@<TRIPOS>MOLECULE
3r9v_DXC_B_1.pdb
 28 31 0 0 0
SMALL
GASTEIGER

@<TRIPOS>ATOM
      1  C1         0.6450  -18.0850   53.1050 C.3     1  DXC1        0.1520
      2  C2         0.1010  -17.0010   52.2100 C.3     1  DXC1        0.0329
      3  C3        -0.7450  -17.4580   51.0410 C.3     1  DXC1        0.0025
      4  C4        -0.1120  -18.6530   50.3840 C.3     1  DXC1        0.0002
      5  C5         0.1250  -19.8330   51.2750 C.3     1  DXC1        0.0026
      6  C6         0.9420  -19.4380   52.4790 C.3     1  DXC1        0.0329
      7  C7        -1.2940  -16.3320   50.0730 C.3     1  DXC1        0.0001
      8  C8        -0.4980  -16.1700   48.8210 C.3     1  DXC1        0.0000
      9  C9        -0.2980  -17.4780   48.0780 C.3     1  DXC1        0.0002
     10  C10        0.4010  -18.5310   48.9660 C.3     1  DXC1        0.0025
     11  C11        0.4880  -17.3030   46.8090 C.3     1  DXC1        0.0024
     12  C12        0.8630  -18.5790   46.1260 C.3     1  DXC1        0.0285
     13  C13        1.3430  -19.6780   47.0910 C.3     1  DXC1        0.1519
     14  C14        0.4500  -19.8390   48.2830 C.3     1  DXC1        0.0329
     15  C15       -0.2580  -16.5500   45.7700 C.3     1  DXC1        0.0001
     16  C16        0.3040  -17.0010   44.4510 C.3     1  DXC1        0.0004
     17  C17        1.3750  -18.0130   44.7670 C.3     1  DXC1        0.0064
     18  C18       -1.3830  -19.3130   49.8330 C.3     1  DXC1        0.0000
     19  C19        1.5820  -18.9660   43.6930 C.3     1  DXC1        0.0223
     20  O1         2.6100  -19.3980   47.5320 O.3     1  DXC1       -0.2232
     21  O2         1.8310  -17.6120   53.6650 O.3     1  DXC1       -0.2232
     22  C20       -0.5050  -19.1890   45.7150 C.3     1  DXC1        0.0025
     23  C21        2.6040  -18.4820   42.6500 C.2     1  DXC1       -0.0197
     24  C22        3.2470  -17.1070   42.7770 C.2     1  DXC1        0.0816
     25  C23        4.4770  -16.8450   41.9380 C.2     1  DXC1        0.3876
     26  O3         5.4010  -17.6250   42.2620 O.co2   1  DXC1       -0.2406
     27  O4         4.2740  -15.8930   41.1100 O.co2   1  DXC1       -0.2406
     28  C24        2.1530  -20.2750   44.2030 C.3     1  DXC1        0.0047
@<TRIPOS>BOND
     1    27    25   ar
     2    25    26   ar
     3    25    24    1
     4    23    24    2
     5    23    19    1
     6    19    28    1
     7    19    17    1
     8    16    17    1
     9    16    15    1
    10    17    12    1
    11    22    12    1
    12    15    11    1
    13    12    11    1
    14    12    13    1
    15    11     9    1
    16    13    20    1
    17    13    14    1
    18     9     8    1
    19     9    10    1
    20    14    10    1
    21     8     7    1
    22    10     4    1
    23    18     4    1
    24     7     3    1
    25     4     3    1
    26     4     5    1
    27     3     2    1
    28     5     6    1
    29     2     1    1
    30     6     1    1
    31     1    21    1
