@<TRIPOS>MOLECULE
3ra4_NUC_D_1.pdb
 37 41 0 0 0
SMALL
GASTEIGER

@<TRIPOS>ATOM
      1  O5'      105.1170 -120.2990   35.9760 O.3     1  DC1        -0.2176
      2  C5'      103.8870 -120.8300   35.4560 C.3     1  DC1         0.2140
      3  C4'      103.2750 -121.8330   36.4070 C.3     1  DC1         0.1774
      4  O4'      102.7160 -121.1320   37.5500 O.3     1  DC1        -0.3339
      5  C3'      102.1190 -122.6480   35.8140 C.3     1  DC1         0.1557
      6  O3'      102.1060 -123.9730   36.3620 O.3     1  DC1        -0.3139
      7  C2'      100.8890 -121.9270   36.3230 C.3     1  DC1         0.0845
      8  C1'      101.3580 -121.5260   37.7060 C.3     1  DC1         0.2089
      9  N1       100.6040 -120.4070   38.2780 N.am    1  DC1        -0.1802
     10  C2        99.3520 -120.6810   38.8490 C.1     1  DC1         0.2756
     11  O2        98.9360 -121.8560   38.8520 O.2     1  DC1        -0.1925
     12  N3        98.6330 -119.6710   39.3790 N.2     1  DC1        -0.3024
     13  C4        99.1200 -118.4290   39.3590 C.2     1  DC1         0.2346
     14  N4        98.3770 -117.4720   39.9020 N.pl3   1  DC1        -0.0921
     15  C5       100.3930 -118.1180   38.7820 C.2     1  DC1         0.0687
     16  C6       101.0950 -119.1290   38.2580 C.2     1  DC1         0.0835
     17  P        101.0660 -125.0650   35.7810 P.3     2  DA2         0.2141
     18  OP1      101.7480 -126.4010   35.7580 O.3     2  DA2        -0.4373
     19  OP2      100.4630 -124.5200   34.5180 O.2     2  DA2        -0.5172
     20  O5'       99.8860 -125.1310   36.8500 O.3     2  DA2        -0.3114
     21  C5'       98.7900 -126.0050   36.6150 C.3     2  DA2         0.1812
     22  C4'       97.4830 -125.3160   36.9250 C.3     2  DA2         0.1795
     23  O4'       97.3500 -124.0620   36.1950 O.3     2  DA2        -0.3155
     24  C3'       96.2600 -126.1590   36.5430 C.3     2  DA2         0.1883
     25  O3'       95.2580 -125.9910   37.5530 O.3     2  DA2        -0.2202
     26  C2'       95.7570 -125.4780   35.2830 C.3     2  DA2         0.1151
     27  C1'       96.0430 -124.0400   35.6470 C.3     2  DA2         0.2873
     28  N9        95.9730 -123.0570   34.5630 N.pl3   2  DA2        -0.1460
     29  C8        96.5700 -123.0490   33.3260 C.3     2  DA2         0.3377
     30  N7        96.2310 -122.0170   32.5850 N.2     2  DA2        -0.2095
     31  C5        95.3610 -121.2950   33.3960 C.2     2  DA2         0.2526
     32  C6        94.6430 -120.0970   33.1990 C.2     2  DA2         0.4393
     33  N6        94.6760 -119.3860   32.0680 N.pl3   2  DA2         0.2180
     34  N1        93.8770 -119.6500   34.2170 N.2     2  DA2         0.0021
     35  C2        93.8340 -120.3620   35.3470 C.3     2  DA2         0.5254
     36  N3        94.4510 -121.4970   35.6480 N.2     2  DA2        -0.0055
     37  C4        95.2070 -121.9170   34.6190 C.2     2  DA2         0.3518
@<TRIPOS>BOND
     1    33    32    1
     2    30    29    1
     3    30    31    2
     4    32    31    1
     5    32    34    2
     6    29    28    1
     7    31    37    1
     8    34    35    1
     9    19    17    2
    10    28    37    1
    11    28    27    1
    12    37    36    2
    13    26    27    1
    14    26    24    1
    15    35    36    1
    16     2     1    1
    17     2     3    1
    18    27    23    1
    19    18    17    1
    20    17     6    1
    21    17    20    1
    22     5     7    1
    23     5     6    1
    24     5     3    1
    25    23    22    1
    26     7     8    1
    27     3     4    1
    28    24    22    1
    29    24    25    1
    30    21    20    1
    31    21    22    1
    32     4     8    1
    33     8     9    1
    34    16     9    1
    35    16    15    2
    36     9    10   am
    37    15    13    1
    38    10    11    2
    39    10    12    2
    40    13    12    2
    41    13    14    1
