@<TRIPOS>MOLECULE
3ra7_DOG_L_1.pdb
 28 32 0 0 0
SMALL
GASTEIGER

@<TRIPOS>ATOM
      1  O23       30.8680  -12.6480   30.6920 O.2   3123  DOG3123    -0.2449
      2  C23       30.0160  -12.8580   31.4900 C.2   3123  DOG3123     0.3412
      3  C22       29.7200  -12.1420   32.5230 C.2   3123  DOG3123     0.0769
      4  O21       29.2700  -13.8810   31.3900 O.3   3123  DOG3123    -0.4408
      5  C21       28.4500  -13.8390   32.3920 C.3   3123  DOG3123     0.2314
      6  C20       28.7430  -12.7860   33.0890 C.2   3123  DOG3123     0.0053
      7  C17       28.0020  -12.3440   34.3450 C.3   3123  DOG3123     0.0268
      8  C16       26.5360  -12.4720   34.0690 C.3   3123  DOG3123     0.0068
      9  C13       28.2290  -13.1620   35.6170 C.3   3123  DOG3123     0.0575
     10  C18       29.5020  -13.9060   35.6320 C.3   3123  DOG3123     0.0053
     11  C12       28.2280  -12.2620   36.7840 C.3   3123  DOG3123     0.1544
     12  O12       29.4860  -11.7480   36.8350 O.3   3123  DOG3123    -0.2231
     13  C14       27.0810  -14.1010   35.6610 C.3   3123  DOG3123     0.1290
     14  C15       25.9680  -13.2300   35.2320 C.3   3123  DOG3123     0.0308
     15  O14       27.2740  -15.0870   34.7430 O.3   3123  DOG3123    -0.2256
     16  C8        26.8990  -14.7930   36.9950 C.3   3123  DOG3123     0.0282
     17  C7        25.6810  -15.6530   37.0250 C.3   3123  DOG3123     0.0024
     18  C9        26.8010  -13.7910   38.0640 C.3   3123  DOG3123     0.0049
     19  C11       28.0770  -13.0240   38.0420 C.3   3123  DOG3123     0.0331
     20  C10       26.6780  -14.4330   39.3860 C.3   3123  DOG3123     0.0003
     21  C19       27.9240  -15.1520   39.7230 C.3   3123  DOG3123     0.0000
     22  C5        25.5630  -15.3870   39.4900 C.3   3123  DOG3123     0.0025
     23  C6        25.5510  -16.3480   38.3420 C.3   3123  DOG3123     0.0002
     24  C4        24.2430  -14.6800   39.6650 C.3   3123  DOG3123     0.0329
     25  C3        24.1700  -14.0530   41.0100 C.3   3123  DOG3123     0.1520
     26  O32       23.6070  -14.9370   41.9480 O.3   3123  DOG3123    -0.2232
     27  C2        25.5500  -13.7740   41.4450 C.3   3123  DOG3123     0.0329
     28  C1        26.4570  -13.3540   40.3580 C.3   3123  DOG3123     0.0026
@<TRIPOS>BOND
     1     1     2    2
     2     4     2    1
     3     4     5    1
     4     2     3    1
     5     5     6    1
     6     3     6    2
     7     6     7    1
     8     8     7    1
     9     8    14    1
    10     7     9    1
    11    15    13    1
    12    14    13    1
    13     9    10    1
    14     9    13    1
    15     9    11    1
    16    13    16    1
    17    11    12    1
    18    11    19    1
    19    16    17    1
    20    16    18    1
    21    17    23    1
    22    19    18    1
    23    18    20    1
    24    23    22    1
    25    20    22    1
    26    20    21    1
    27    20    28    1
    28    22    24    1
    29    24    25    1
    30    28    27    1
    31    25    27    1
    32    25    26    1
