@<TRIPOS>MOLECULE
3ra8_A_A_1.pdb
 23 25 0 0 0
SMALL
GASTEIGER

@<TRIPOS>ATOM
      1  OP3      102.4310 -124.4490   34.9140 O.2     1  A1         -0.2224
      2  P        102.1510 -125.1200   36.2490 P.3     1  A1          0.5327
      3  OP1      102.5140 -124.2430   37.4360 O.3     1  A1         -0.1145
      4  OP2      102.7460 -126.5160   36.3430 O.3     1  A1         -0.1145
      5  O5'      100.5350 -125.3180   36.3180 O.3     1  A1         -0.2675
      6  C5'       99.6520 -124.1910   36.2550 C.3     1  A1          0.1860
      7  C4'       98.2060 -124.6260   36.3380 C.3     1  A1          0.1823
      8  O4'       97.3250 -123.4740   36.2300 O.3     1  A1         -0.3135
      9  C3'       97.7300 -125.5270   35.2120 C.3     1  A1          0.2184
     10  O3'       98.2360 -126.8750   35.3320 O.3     1  A1         -0.2174
     11  C2'       96.2140 -125.3580   35.2930 C.3     1  A1          0.2570
     12  O2'       95.6350 -126.1240   36.3300 O.3     1  A1         -0.2130
     13  C1'       96.0940 -123.8690   35.6330 C.3     1  A1          0.3186
     14  N9        95.8240 -122.9900   34.4910 N.pl3   1  A1         -0.1439
     15  C8        96.2980 -123.0780   33.2020 C.3     1  A1          0.3377
     16  N7        95.8930 -122.1030   32.4220 N.2     1  A1         -0.2095
     17  C5        95.0920 -121.3230   33.2500 C.2     1  A1          0.2526
     18  C6        94.3750 -120.1240   33.0330 C.2     1  A1          0.4393
     19  N6        94.3530 -119.4640   31.8690 N.pl3   1  A1          0.2180
     20  N1        93.6780 -119.6160   34.0720 N.2     1  A1          0.0021
     21  C2        93.7100 -120.2600   35.2450 C.3     1  A1          0.5254
     22  N3        94.3480 -121.3780   35.5730 N.2     1  A1         -0.0055
     23  C4        95.0300 -121.8650   34.5210 C.2     1  A1          0.3518
@<TRIPOS>BOND
     1    19    18    1
     2    16    15    1
     3    16    17    2
     4    18    17    1
     5    18    20    2
     6    15    14    1
     7    17    23    1
     8    20    21    1
     9    14    23    1
    10    14    13    1
    11    23    22    2
    12     1     2    2
    13     9    11    1
    14     9    10    1
    15     9     7    1
    16    21    22    1
    17    11    13    1
    18    11    12    1
    19    13     8    1
    20     8     7    1
    21     2     5    1
    22     2     4    1
    23     2     3    1
    24     6     5    1
    25     6     7    1
