@<TRIPOS>MOLECULE
3ra9_NUC_D_1.pdb
 41 45 0 0 0
SMALL
GASTEIGER

@<TRIPOS>ATOM
      1  OP3      104.7770 -119.9130   38.2250 O.3     1  DC1        -0.1145
      2  P        105.1070 -119.1580   36.9480 P.3     1  DC1         0.5327
      3  OP1      103.9970 -118.2130   36.5200 O.2     1  DC1        -0.2224
      4  OP2      106.4680 -118.4820   36.9990 O.3     1  DC1        -0.1145
      5  O5'      105.2130 -120.2820   35.7710 O.3     1  DC1        -0.2675
      6  C5'      104.0210 -120.8440   35.1570 C.3     1  DC1         0.1857
      7  C4'      103.3050 -121.8060   36.0830 C.3     1  DC1         0.1746
      8  O4'      102.7590 -121.0710   37.2200 O.3     1  DC1        -0.3340
      9  C3'      102.1200 -122.5750   35.4640 C.3     1  DC1         0.1556
     10  O3'      102.0600 -123.9260   35.9940 O.3     1  DC1        -0.3139
     11  C2'      100.9080 -121.8010   35.9590 C.3     1  DC1         0.0845
     12  C1'      101.3740 -121.4140   37.3590 C.3     1  DC1         0.2089
     13  N1       100.6410 -120.2720   37.9510 N.am    1  DC1        -0.1802
     14  C2        99.3730 -120.5330   38.5590 C.1     1  DC1         0.2756
     15  O2        98.9480 -121.7230   38.6070 O.2     1  DC1        -0.1925
     16  N3        98.6620 -119.4930   39.0710 N.2     1  DC1        -0.3024
     17  C4        99.1610 -118.2450   39.0110 C.2     1  DC1         0.2346
     18  N4        98.4140 -117.2570   39.5170 N.pl3   1  DC1        -0.0921
     19  C5       100.4490 -117.9570   38.4230 C.2     1  DC1         0.0687
     20  C6       101.1460 -118.9910   37.9120 C.2     1  DC1         0.0835
     21  P        100.8710 -124.9490   35.5180 P.3     2  DA2         0.2141
     22  OP1      101.4430 -126.3190   35.4860 O.3     2  DA2        -0.4373
     23  OP2      100.2440 -124.3910   34.2920 O.2     2  DA2        -0.5172
     24  O5'       99.7760 -124.9000   36.6920 O.3     2  DA2        -0.3114
     25  C5'       98.6780 -125.8140   36.6630 C.3     2  DA2         0.1812
     26  C4'       97.3740 -125.0810   36.8700 C.3     2  DA2         0.1795
     27  O4'       97.2820 -123.8850   36.0370 O.3     2  DA2        -0.3155
     28  C3'       96.1310 -125.9300   36.5490 C.3     2  DA2         0.1883
     29  O3'       95.1410 -125.7590   37.6040 O.3     2  DA2        -0.2202
     30  C2'       95.6220 -125.3150   35.2510 C.3     2  DA2         0.1151
     31  C1'       95.9620 -123.8600   35.5160 C.3     2  DA2         0.2873
     32  N9        95.8830 -122.9150   34.3990 N.pl3   2  DA2        -0.1460
     33  C8        96.4770 -122.9390   33.1540 C.3     2  DA2         0.3377
     34  N7        96.1310 -121.9250   32.3850 N.2     2  DA2        -0.2095
     35  C5        95.2580 -121.1800   33.1810 C.2     2  DA2         0.2526
     36  C6        94.5320 -119.9750   32.9520 C.2     2  DA2         0.4393
     37  N6        94.5670 -119.2890   31.7970 N.pl3   2  DA2         0.2180
     38  N1        93.7610 -119.5020   33.9680 N.2     2  DA2         0.0021
     39  C2        93.7250 -120.1880   35.1250 C.3     2  DA2         0.5254
     40  N3        94.3530 -121.3210   35.4560 N.2     2  DA2        -0.0055
     41  C4        95.1090 -121.7720   34.4280 C.2     2  DA2         0.3518
@<TRIPOS>BOND
     1    37    36    1
     2    34    33    1
     3    34    35    2
     4    36    35    1
     5    36    38    2
     6    33    32    1
     7    35    41    1
     8    38    39    1
     9    23    21    2
    10    32    41    1
    11    32    31    1
    12    41    40    2
    13    39    40    1
    14     6     5    1
    15     6     7    1
    16    30    31    1
    17    30    28    1
    18     9    11    1
    19     9    10    1
    20     9     7    1
    21    22    21    1
    22    31    27    1
    23    21    10    1
    24    21    24    1
    25     5     2    1
    26    11    12    1
    27    27    26    1
    28     7     8    1
    29     3     2    2
    30    28    26    1
    31    28    29    1
    32    25    24    1
    33    25    26    1
    34     2     4    1
    35     2     1    1
    36     8    12    1
    37    12    13    1
    38    20    13    1
    39    20    19    2
    40    13    14   am
    41    19    17    1
    42    14    15    2
    43    14    16    2
    44    17    16    2
    45    17    18    1
