@<TRIPOS>MOLECULE
3raa_A_A_1.pdb
 18 20 0 0 0
SMALL
GASTEIGER

@<TRIPOS>ATOM
      1  O5'       99.7170 -124.2840   36.3990 O.3     2  A2         -0.2176
      2  C5'       98.7310 -125.0600   35.7630 C.3     2  A2          0.2142
      3  C4'       97.3540 -124.6090   36.1980 C.3     2  A2          0.1824
      4  O4'       97.0840 -123.2760   35.6790 O.3     2  A2         -0.3154
      5  C3'       96.1800 -125.4420   35.6920 C.3     2  A2          0.1884
      6  O3'       95.9470 -126.5630   36.5860 O.3     2  A2         -0.2202
      7  C2'       95.0250 -124.4430   35.7490 C.3     2  A2          0.1151
      8  C1'       95.6770 -123.0710   35.6270 C.3     2  A2          0.2874
      9  N9        95.3210 -122.3220   34.4160 N.pl3   2  A2         -0.1460
     10  C8        95.8100 -122.4330   33.1290 C.3     2  A2          0.3377
     11  N7        95.3210 -121.5370   32.3010 N.2     2  A2         -0.2095
     12  C5        94.4380 -120.8010   33.0890 C.2     2  A2          0.2526
     13  C6        93.6210 -119.6880   32.8090 C.2     2  A2          0.4393
     14  N6        93.5900 -119.0860   31.6180 N.pl3   2  A2          0.2180
     15  N1        92.8530 -119.1960   33.8120 N.2     2  A2          0.0021
     16  C2        92.9190 -119.7800   35.0110 C.3     2  A2          0.5254
     17  N3        93.6580 -120.8170   35.4030 N.2     2  A2         -0.0055
     18  C4        94.4040 -121.2900   34.3810 C.2     2  A2          0.3518
@<TRIPOS>BOND
     1    14    13    1
     2    11    12    2
     3    11    10    1
     4    13    12    1
     5    13    15    2
     6    12    18    1
     7    10     9    1
     8    15    16    1
     9    18     9    1
    10    18    17    2
    11     9     8    1
    12    16    17    1
    13     8     4    1
    14     8     7    1
    15     4     3    1
    16     5     7    1
    17     5     3    1
    18     5     6    1
    19     2     3    1
    20     2     1    1
