@<TRIPOS>MOLECULE
3rab_GNP_A_1.pdb
 32 34 0 0 0
SMALL
GASTEIGER

@<TRIPOS>ATOM
      1  PG         7.1420   -6.9470    5.0830 P.3   200  GNP200      0.4884
      2  O1G        5.8790   -7.6550    4.7900 O.3   200  GNP200     -0.1240
      3  O2G        8.2180   -7.2540    4.1270 O.2   200  GNP200     -0.2331
      4  O3G        7.5510   -6.9700    6.5030 O.3   200  GNP200     -0.1240
      5  N3B        6.7430   -5.3660    4.7760 N.3   200  GNP200     -0.0163
      6  PB         7.4570   -3.9050    5.0300 P.3   200  GNP200      0.4669
      7  O1B        7.2760   -3.5430    6.4540 O.3   200  GNP200     -0.1253
      8  O2B        8.7990   -3.9180    4.4580 O.2   200  GNP200     -0.2351
      9  O3A        6.6260   -2.8200    4.1600 O.3   200  GNP200     -0.2360
     10  PA         6.9200   -2.2530    2.6820 P.3   200  GNP200      0.2220
     11  O1A        8.1240   -1.3760    2.6820 O.3   200  GNP200     -0.4370
     12  O2A        6.8080   -3.3580    1.7100 O.2   200  GNP200     -0.5170
     13  O5'        5.6250   -1.3320    2.5700 O.3   200  GNP200     -0.3111
     14  C5'        4.2910   -1.8210    2.6160 C.3   200  GNP200      0.1813
     15  C4'        3.4010   -0.8140    1.9280 C.3   200  GNP200      0.1799
     16  O4'        3.4570    0.4500    2.6050 O.3   200  GNP200     -0.3326
     17  C3'        3.8730   -0.5410    0.5180 C.3   200  GNP200      0.2158
     18  O3'        2.7000   -0.4750   -0.2780 O.3   200  GNP200     -0.2175
     19  C2'        4.6090    0.8070    0.5910 C.3   200  GNP200      0.2310
     20  O2'        4.3970    1.6080   -0.5680 O.3   200  GNP200     -0.2158
     21  C1'        3.9150    1.5050    1.7450 C.3   200  GNP200      0.2293
     22  N9         4.7420    2.5120    2.4530 N.pl3 200  GNP200     -0.2354
     23  C8         5.9690    2.3530    3.0390 C.3   200  GNP200      0.2246
     24  N7         6.4190    3.4190    3.6400 N.2   200  GNP200     -0.2322
     25  C5         5.4220    4.3700    3.4380 C.2   200  GNP200      0.2182
     26  C6         5.3460    5.7300    3.8590 C.1   200  GNP200      0.2372
     27  O6         6.1630    6.3860    4.5040 O.2   200  GNP200     -0.2069
     28  N1         4.1630    6.3340    3.4460 N.2   200  GNP200     -0.2485
     29  C2         3.1650    5.7150    2.7220 C.1   200  GNP200      0.2531
     30  N2         2.1010    6.4680    2.4260 N.pl3 200  GNP200     -0.0226
     31  N3         3.2360    4.4340    2.3230 N.2   200  GNP200     -0.3074
     32  C4         4.3890    3.8240    2.7120 C.2   200  GNP200      0.2300
@<TRIPOS>BOND
     1    20    19    1
     2    18    17    1
     3    17    19    1
     4    17    15    1
     5    19    21    1
     6    12    10    2
     7    21    22    1
     8    21    16    1
     9    15    16    1
    10    15    14    1
    11    31    32    2
    12    31    29    2
    13    30    29    1
    14    22    32    1
    15    22    23    1
    16    13    14    1
    17    13    10    1
    18    10    11    1
    19    10     9    1
    20    32    25    1
    21    29    28    2
    22    23    24    1
    23    25    24    2
    24    25    26    1
    25    28    26    2
    26    26    27    2
    27     3     1    2
    28     9     6    1
    29     8     6    2
    30     5     6    1
    31     5     1    1
    32     2     1    1
    33     6     7    1
    34     1     4    1
