@<TRIPOS>MOLECULE
3rad_NFX_H_1.pdb
 41 44 0 0 0
SMALL
GASTEIGER

@<TRIPOS>ATOM
      1  F        -36.8080   76.8820   -9.9430 F     101  NFX101     -0.2035
      2 CL        -40.8110   79.2580  -11.9800 Cl    101  NFX101     -0.0794
      3  O02      -40.3000   73.2200   -9.9120 O.2   101  NFX101     -0.2863
      4  O03      -42.8100   72.0330  -10.0250 O.co2 101  NFX101     -0.2404
      5  O        -44.1270   72.9940  -11.5910 O.co2 101  NFX101     -0.2404
      6  N01      -37.9650   79.2110  -11.0180 N.pl3 101  NFX101     -0.3250
      7  N        -42.1380   76.4640  -11.5350 N.ar  101  NFX101     -0.3414
      8  C01      -37.4510   81.4870  -11.1670 C.3   101  NFX101      0.0221
      9  C02      -36.1530   80.7110  -11.3640 C.3   101  NFX101     -0.0205
     10  C03      -38.4710   80.4330  -11.6400 C.3   101  NFX101      0.0275
     11  C04      -36.5210   79.3510  -10.7770 C.3   101  NFX101      0.0138
     12  N05      -37.4760   82.7590  -11.8820 N.3   101  NFX101     -0.3259
     13  C06      -42.9840   77.5220  -12.1120 C.3   101  NFX101      0.0347
     14  C08      -44.4500   77.6590  -11.7590 C.3   101  NFX101     -0.0302
     15  C09      -43.4820   78.7030  -11.3170 C.3   101  NFX101     -0.0302
     16  C11      -38.6770   78.0170  -10.8620 C.ar  101  NFX101      0.0860
     17  C12      -40.7730   76.6400  -11.1440 C.ar  101  NFX101      0.0735
     18  C13      -40.0410   77.8590  -11.2700 C.ar  101  NFX101      0.0889
     19  C14      -40.1040   75.5270  -10.5950 C.ar  101  NFX101      0.0503
     20  C15      -38.0900   76.8610  -10.3280 C.ar  101  NFX101      0.1465
     21  C16      -42.7590   75.2460  -11.3940 C.ar  101  NFX101      0.0233
     22  C17      -38.7700   75.6520  -10.1920 C.ar  101  NFX101     -0.0117
     23  C18      -42.2170   74.1430  -10.8910 C.ar  101  NFX101      0.1263
     24  C19      -40.8160   74.2110  -10.4420 C.ar  101  NFX101      0.2036
     25  C20      -43.0450   72.9470  -10.7970 C.2   101  NFX101      0.3916
     26  H01      -37.5250   81.6370  -10.2080 H     101  NFX101      0.0474
     27  H02      -35.4210   81.1200  -10.8720 H     101  NFX101      0.0296
     28  H03      -39.3610   80.6480  -11.2980 H     101  NFX101      0.0479
     29 H03A      -38.4810   80.3540  -12.6120 H     101  NFX101      0.0479
     30  H04      -36.0290   78.6360  -11.2140 H     101  NFX101      0.0464
     31 H04A      -36.3440   79.3480   -9.8120 H     101  NFX101      0.0464
     32  H06      -42.7810   77.7540  -13.0310 H     101  NFX101      0.0528
     33  H08      -44.7870   77.0990  -11.0470 H     101  NFX101      0.0286
     34 H08A      -45.0510   77.9400  -12.4640 H     101  NFX101      0.0286
     35  H09      -43.5320   79.5490  -11.8010 H     101  NFX101      0.0286
     36 H09A      -43.2850   78.7050  -10.3630 H     101  NFX101      0.0286
     37  H16      -43.7020   75.1670  -11.6650 H     101  NFX101      0.0819
     38  H17      -38.2960   74.8700   -9.8000 H     101  NFX101      0.0654
     39 H02A      -35.9410   80.6350  -12.3040 H     101  NFX101      0.0296
     40  H05      -37.3800   82.6050  -12.7880 H     101  NFX101      0.1185
     41 H05A      -36.7910   83.2860  -11.5890 H     101  NFX101      0.1185
@<TRIPOS>BOND
     1    32    13    1
     2    40    12    1
     3    29    10    1
     4    34    14    1
     5    39     9    1
     6    13    14    1
     7    13     7    1
     8    13    15    1
     9     2    18    1
    10    12    41    1
    11    12     8    1
    12    35    15    1
    13    14    15    1
    14    14    33    1
    15    37    21    1
    16    10    28    1
    17    10     8    1
    18    10     6    1
    19     5    25   ar
    20     7    21   ar
    21     7    17   ar
    22    21    23   ar
    23     9     8    1
    24     9    27    1
    25     9    11    1
    26    15    36    1
    27    18    17   ar
    28    18    16   ar
    29    30    11    1
    30     8    26    1
    31    17    19   ar
    32     6    16    1
    33     6    11    1
    34    23    25    1
    35    23    24   ar
    36    16    20   ar
    37    25     4   ar
    38    11    31    1
    39    19    24   ar
    40    19    22   ar
    41    24     3    2
    42    20    22   ar
    43    20     1    1
    44    22    38    1
