@<TRIPOS>MOLECULE
3rae_LFX_H_1.pdb
 45 48 0 0 0
SMALL
GASTEIGER

@<TRIPOS>ATOM
      1  C        -43.2400   73.7650  -11.3570 C.2   101  LFX101      0.3914
      2  F        -36.8800   77.4630  -10.1740 F     101  LFX101     -0.2034
      3  N        -36.3590   82.1590  -11.2800 N.3   101  LFX101     -0.3024
      4  O        -44.3690   73.9790  -11.8730 O.co2 101  LFX101     -0.2404
      5  C01      -36.5270   79.7260  -11.4440 C.3   101  LFX101      0.0252
      6  N01      -37.9630   79.7920  -11.1460 N.pl3 101  LFX101     -0.3226
      7  O01      -40.5450   79.6140  -12.0130 O.2   101  LFX101     -0.4898
      8  C02      -38.3870   81.0070  -10.4340 C.3   101  LFX101      0.0252
      9  N02      -42.0660   77.2700  -11.8260 N.pl3 101  LFX101     -0.3103
     10  O02      -40.4250   73.7200  -10.3970 O.2   101  LFX101     -0.2866
     11  C03      -42.7070   78.5400  -12.2550 C.3   101  LFX101      0.0556
     12  O03      -42.8560   72.6770  -10.7910 O.co2 101  LFX101     -0.2404
     13  C04      -38.7060   78.5900  -11.0830 C.2   101  LFX101      0.1060
     14  C05      -40.7450   77.2770  -11.4130 C.3   101  LFX101      0.1560
     15  C06      -40.0240   78.4910  -11.4840 C.2   101  LFX101      0.1523
     16  C07      -36.0170   80.9920  -12.0750 C.3   101  LFX101      0.0144
     17  C08      -37.8090   82.2240  -11.1360 C.3   101  LFX101      0.0144
     18  C09      -41.9350   79.7300  -11.7730 C.3   101  LFX101      0.1075
     19  C10      -40.1690   76.0880  -10.9370 C.2   101  LFX101      0.0366
     20  C11      -38.1680   77.3800  -10.6100 C.2   101  LFX101      0.1481
     21  C12      -42.7690   76.1250  -11.7640 C.2   101  LFX101      0.0115
     22  C13      -38.8220   76.1680  -10.5380 C.2   101  LFX101     -0.0151
     23  C14      -44.0780   78.7160  -11.6180 C.3   101  LFX101     -0.0433
     24  C15      -40.9300   74.8040  -10.8670 C.2   101  LFX101      0.2001
     25  C16      -35.8510   83.3370  -11.9650 C.3   101  LFX101     -0.0126
     26  C17      -42.2890   74.9140  -11.3190 C.2   101  LFX101      0.1236
     27  H01      -36.0320   79.5620  -10.6040 H     101  LFX101      0.0476
     28 H01A      -36.3540   78.9630  -12.0510 H     101  LFX101      0.0476
     29  H02      -39.3760   81.0620  -10.4160 H     101  LFX101      0.0476
     30 H02A      -38.0630   80.9760   -9.4990 H     101  LFX101      0.0476
     31  H03      -42.7670   78.5630  -13.2530 H     101  LFX101      0.0531
     32  H07      -36.4100   81.0860  -12.9790 H     101  LFX101      0.0442
     33 H07A      -35.0340   80.9360  -12.1760 H     101  LFX101      0.0442
     34  H08      -38.2180   82.3000  -12.0350 H     101  LFX101      0.0442
     35 H08A      -38.0500   83.0380  -10.6250 H     101  LFX101      0.0442
     36  H09      -42.0700   79.8200  -10.7960 H     101  LFX101      0.0715
     37 H09A      -42.2880   80.5510  -12.2000 H     101  LFX101      0.0715
     38  H12      -43.6710   76.1510  -12.0640 H     101  LFX101      0.0790
     39  H13      -38.3780   75.4040  -10.1930 H     101  LFX101      0.0651
     40  H14      -43.9890   78.7120  -10.6420 H     101  LFX101      0.0249
     41 H14A      -44.4660   79.5690  -11.9060 H     101  LFX101      0.0249
     42 H14B      -44.6630   77.9810  -11.8950 H     101  LFX101      0.0249
     43  H16      -36.2550   83.3990  -12.8560 H     101  LFX101      0.0391
     44 H16A      -34.8760   83.2700  -12.0520 H     101  LFX101      0.0391
     45 H16B      -36.0770   84.1390  -11.4470 H     101  LFX101      0.0391
@<TRIPOS>BOND
     1    31    11    1
     2    32    16    1
     3    43    25    1
     4    11     9    1
     5    11    18    1
     6    11    23    1
     7    37    18    1
     8    33    16    1
     9    16     5    1
    10    16     3    1
    11    38    21    1
    12    44    25    1
    13    28     5    1
    14    34    17    1
    15     7    18    1
    16     7    15    1
    17    25    45    1
    18    25     3    1
    19    41    23    1
    20    42    23    1
    21     4     1   ar
    22     9    21    1
    23     9    14    1
    24    18    36    1
    25    21    26    2
    26    23    40    1
    27    15    14    1
    28    15    13    2
    29     5     6    1
    30     5    27    1
    31    14    19    1
    32     1    26    1
    33     1    12   ar
    34    26    24    1
    35     3    17    1
    36     6    13    1
    37     6     8    1
    38    17    35    1
    39    17     8    1
    40    13    20    1
    41    19    24    2
    42    19    22    1
    43    24    10    1
    44    20    22    2
    45    20     2    1
    46    22    39    1
    47     8    29    1
    48     8    30    1
