@<TRIPOS>MOLECULE
3raf_PDQ_F_1.pdb
 50 53 0 0 0
SMALL
GASTEIGER

@<TRIPOS>ATOM
      1  C1       -80.5280   -2.2670   10.6500 C.ar    0  PDQ0        0.2811
      2  O2       -79.4720   -2.2520   10.1800 O.2     0  PDQ0       -0.2652
      3  C3       -81.2990   -3.6040   10.9330 C.ar    0  PDQ0        0.0678
      4  C4       -80.6200   -4.9710   10.5910 C.ar    0  PDQ0       -0.0102
      5  C6       -81.2620   -6.1520   10.8310 C.ar    0  PDQ0        0.1454
      6  F7       -80.5980   -7.2490   10.5280 F       0  PDQ0       -0.2035
      7  C8       -82.6250   -6.2240   11.4740 C.ar    0  PDQ0        0.0703
      8  C10      -83.2450   -4.9950   11.7550 C.ar    0  PDQ0       -0.0023
      9  C12      -82.5110   -3.5810   11.4830 C.ar    0  PDQ0        0.0638
     10  N13      -83.1010   -2.1230   11.7760 N.ar    0  PDQ0       -0.2886
     11  C15      -82.3820   -0.9160   11.5350 C.ar    0  PDQ0        0.3496
     12  O16      -82.8580    0.1060   11.7650 O.2     0  PDQ0       -0.2446
     13  N17      -81.1270   -1.0270   10.9580 N.ar    0  PDQ0       -0.1811
     14  C18      -84.3910   -2.0830   12.3230 C.3     0  PDQ0        0.0395
     15  C20      -85.4450   -2.7400   11.4500 C.3     0  PDQ0       -0.0301
     16  C23      -85.3300   -1.2480   11.4990 C.3     0  PDQ0       -0.0301
     17  N26      -80.3620    0.0800   10.6510 N.pl3   0  PDQ0       -0.2914
     18  C29      -84.5780   -5.0450   12.3840 C.3     0  PDQ0       -0.0359
     19  N33      -83.2060   -7.5610   11.6430 N.pl3   0  PDQ0       -0.3271
     20  C34      -84.6250   -7.9810   11.6580 C.3     0  PDQ0        0.0165
     21  C37      -84.5380   -9.2810   11.1620 C.3     0  PDQ0       -0.0089
     22  C39      -83.5180   -9.8300   11.9100 C.3     0  PDQ0       -0.0316
     23  C42      -82.4700   -8.8050   11.6900 C.3     0  PDQ0        0.0126
     24  C45      -85.7760   -9.9470   11.2670 C.3     0  PDQ0        0.0063
     25  C47      -85.7660  -11.2540   10.5640 C.3     0  PDQ0       -0.0496
     26  N51      -86.7260   -9.1500   10.5890 N.3     0  PDQ0       -0.3272
     27  H4       -79.6260   -4.9800   10.1550 H       0  PDQ0        0.0655
     28  H18      -84.5600   -2.0980   13.3930 H       0  PDQ0        0.0529
     29  H20      -85.0810   -3.2090   10.5420 H       0  PDQ0        0.0286
     30 H20A      -86.2960   -3.1640   11.9740 H       0  PDQ0        0.0286
     31  H23      -86.1140   -0.7370   12.0480 H       0  PDQ0        0.0286
     32 H23A      -84.8980   -0.7820   10.6190 H       0  PDQ0        0.0286
     33 HN26      -79.4930   -0.1550   10.2170 H       0  PDQ0        0.1629
     34 HN2A      -80.2660    0.7130   11.4180 H       0  PDQ0        0.1629
     35  H29      -84.6390   -5.9100   13.0320 H       0  PDQ0        0.0279
     36 H29A      -85.3430   -5.1160   11.6130 H       0  PDQ0        0.0279
     37 H29B      -84.7350   -4.1430   12.9670 H       0  PDQ0        0.0279
     38  H34      -85.2190   -7.3580   11.0050 H       0  PDQ0        0.0467
     39 H34A      -85.0220   -7.9770   12.6680 H       0  PDQ0        0.0467
     40  H37      -84.2360   -9.2460   10.1180 H       0  PDQ0        0.0331
     41  H39      -83.7910   -9.8960   12.9580 H       0  PDQ0        0.0284
     42 H39A      -83.2140  -10.8000   11.5160 H       0  PDQ0        0.0284
     43  H42      -81.9600   -8.9810   10.7510 H       0  PDQ0        0.0464
     44 H42A      -81.7640   -8.7980   12.5120 H       0  PDQ0        0.0464
     45  H45      -86.0580  -10.0750   12.3100 H       0  PDQ0        0.0459
     46  H47      -85.1830  -11.9670   11.1380 H       0  PDQ0        0.0245
     47 H47A      -85.3260  -11.1340    9.5790 H       0  PDQ0        0.0245
     48 H47B      -86.7890  -11.6170   10.4620 H       0  PDQ0        0.0245
     49 HN51      -86.5460   -9.1870    9.6000 H       0  PDQ0        0.1185
     50 HN5A      -87.6500   -9.5040   10.7740 H       0  PDQ0        0.1185
@<TRIPOS>BOND
     1    47    25    1
     2    49    26    1
     3    40    21    1
     4    27     4    1
     5     2     1    2
     6    33    17    1
     7    48    25    1
     8     6     5    1
     9    29    15    1
    10    25    46    1
    11    25    24    1
    12    26    50    1
    13    26    24    1
    14     4     5   ar
    15     4     3   ar
    16    32    16    1
    17     1     3   ar
    18     1    13   ar
    19    17    13    1
    20    17    34    1
    21    43    23    1
    22     5     7   ar
    23     3     9   ar
    24    13    11   ar
    25    38    20    1
    26    21    24    1
    27    21    20    1
    28    21    22    1
    29    24    45    1
    30    15    16    1
    31    15    30    1
    32    15    14    1
    33     7    19    1
    34     7     8   ar
    35     9     8   ar
    36     9    10   ar
    37    16    31    1
    38    16    14    1
    39    42    22    1
    40    11    12    2
    41    11    10   ar
    42    36    18    1
    43    19    20    1
    44    19    23    1
    45    20    39    1
    46    23    22    1
    47    23    44    1
    48     8    18    1
    49    10    14    1
    50    22    41    1
    51    14    28    1
    52    18    37    1
    53    18    35    1
