@<TRIPOS>MOLECULE
3rah_O1Z_A_1.pdb
 25 28 0 0 0
SMALL
GASTEIGER

@<TRIPOS>ATOM
      1  C1        94.6170   77.1240  -46.0520 C.ar  516  O1Z516      0.0000
      2  S1        92.2410   81.0180  -48.5450 S.3   516  O1Z516     -0.0313
      3  C2        94.3600   76.3890  -47.2640 C.ar  516  O1Z516      0.0001
      4  N2        91.8650   82.0740  -50.8890 N.2   516  O1Z516     -0.3605
      5  C3        94.1630   77.0890  -48.5100 C.ar  516  O1Z516      0.0032
      6  N3        90.5810   83.0760  -49.1280 N.pl3 516  O1Z516     -0.2059
      7  O3        94.6080   78.7620  -50.8850 O.2   516  O1Z516     -0.2859
      8  C4        94.4910   79.2960  -47.3520 C.ar  516  O1Z516      0.0032
      9  N4        93.2810   80.7850  -52.3010 N.pl3 516  O1Z516     -0.0924
     10  C5        94.6870   78.6160  -46.0970 C.ar  516  O1Z516      0.0001
     11  C6        94.8060   76.4420  -44.7880 C.ar  516  O1Z516      0.0000
     12  C7        95.0590   77.2070  -43.5860 C.ar  516  O1Z516      0.0000
     13  C8        95.1290   78.6510  -43.6280 C.ar  516  O1Z516      0.0000
     14  C9        94.9460   79.3590  -44.8750 C.ar  516  O1Z516      0.0000
     15  C10       94.2200   78.5460  -48.5900 C.ar  516  O1Z516      0.0396
     16  C11       94.0010   79.2080  -49.7530 C.2   516  O1Z516      0.2055
     17  C12       93.0700   80.3800  -49.8980 C.2   516  O1Z516      0.1188
     18  C13       92.7630   81.0710  -51.0710 C.2   516  O1Z516      0.2306
     19  C14       91.4960   82.1530  -49.5780 C.2   516  O1Z516      0.2324
     20  C15       89.9970   82.9140  -47.7880 C.3   516  O1Z516      0.0955
     21  C16       88.9240   81.7720  -47.7610 C.3   516  O1Z516      0.0217
     22  C17       88.3210   81.6020  -46.3440 C.3   516  O1Z516      0.0018
     23  C18       87.7250   82.9360  -45.8250 C.3   516  O1Z516      0.0001
     24  C19       88.7400   84.1050  -45.9040 C.3   516  O1Z516      0.0018
     25  C20       89.3600   84.2490  -47.3170 C.3   516  O1Z516      0.0217
@<TRIPOS>BOND
     1     9    18    1
     2    18     4    2
     3    18    17    1
     4     4    19    2
     5     7    16    1
     6    17    16    2
     7    17     2    1
     8    16    15    1
     9    19     6    1
    10    19     2    1
    11     6    20    1
    12    15     5   ar
    13    15     8   ar
    14     5     3   ar
    15    20    21    1
    16    20    25    1
    17    21    22    1
    18     8    10   ar
    19    25    24    1
    20     3     1   ar
    21    22    23    1
    22    10     1   ar
    23    10    14   ar
    24     1    11   ar
    25    24    23    1
    26    14    13   ar
    27    11    12   ar
    28    13    12   ar
