@<TRIPOS>MOLECULE
3rai_X85_A_1.pdb
 30 32 0 0 0
SMALL
GASTEIGER

@<TRIPOS>ATOM
      1  C1       -65.2320  -44.6360  -10.6160 C.ar  923  X85923      0.0340
      2  C2       -66.4920  -44.1540  -10.1540 C.ar  923  X85923      0.0890
      3  C3       -67.6680  -44.3170  -10.9680 C.ar  923  X85923      0.1578
      4  C4       -67.5470  -44.9580  -12.2540 C.ar  923  X85923      0.0313
      5  C5       -66.2750  -45.4420  -12.7250 C.ar  923  X85923      0.0732
      6  C6       -65.1060  -45.2860  -11.8970 C.ar  923  X85923      0.0715
      7  C7       -66.1860  -46.0900  -14.0620 C.2   923  X85923      0.2855
      8  N8       -67.0620  -45.6170  -15.0210 N.am  923  X85923     -0.0837
      9  O9       -65.3850  -46.9610  -14.3480 O.2   923  X85923     -0.2666
     10  N10      -68.9060  -43.8680  -10.5390 N.pl3 923  X85923      0.0590
     11  O11      -69.8780  -44.0440  -11.2870 O.2   923  X85923     -0.1261
     12  O12      -68.9990  -43.3150   -9.4220 O.2   923  X85923     -0.1261
     13  N13      -63.8620  -45.7610  -12.3360 N.pl3 923  X85923     -0.2326
     14  C14      -62.6180  -45.6470  -11.5590 C.3   923  X85923      0.1401
     15  N15      -66.5730  -43.5240   -8.9110 N.pl3 923  X85923     -0.2358
     16  C16      -66.1050  -44.1510   -7.6900 C.3   923  X85923      0.1137
     17  C17      -64.8590  -43.4150   -7.2390 C.3   923  X85923      0.0406
     18  C18      -64.2040  -44.1360   -6.0770 C.3   923  X85923      0.0741
     19  C19      -60.5810  -43.4510   -5.0370 C.3   923  X85923      0.1595
     20  C20      -61.8230  -44.2900   -5.4060 C.3   923  X85923      0.1046
     21  N21      -63.0170  -43.3550   -5.7220 N.3   923  X85923     -0.2684
     22  C22      -63.3450  -42.4180   -4.5270 C.3   923  X85923      0.1046
     23  C23      -62.1040  -41.5770   -4.1480 C.3   923  X85923      0.1595
     24  O24      -60.9110  -41.9300   -5.0720 O.3   923  X85923     -0.3508
     25  C25      -62.4590  -48.6500   -8.3680 C.ar  923  X85923      0.0989
     26  N26      -62.8120  -49.0350   -9.6990 N.ar  923  X85923     -0.2426
     27  C27      -62.8660  -48.0740  -10.7460 C.ar  923  X85923      0.0963
     28  C28      -62.5630  -46.7080  -10.4590 C.ar  923  X85923      0.0185
     29  C29      -62.2110  -46.3250   -9.1310 C.ar  923  X85923      0.0006
     30  C30      -62.1580  -47.2930   -8.0830 C.ar  923  X85923      0.0204
@<TRIPOS>BOND
     1     8     7   am
     2     9     7    2
     3     7     5    1
     4     5     4   ar
     5     5     6   ar
     6    13     6    1
     7    13    14    1
     8     4     3   ar
     9     6     1   ar
    10    14    28    1
    11    11    10    2
    12     3    10    1
    13     3     2   ar
    14    27    28   ar
    15    27    26   ar
    16     1     2   ar
    17    10    12    2
    18    28    29   ar
    19     2    15    1
    20    26    25   ar
    21    29    30   ar
    22    15    16    1
    23    25    30   ar
    24    16    17    1
    25    17    18    1
    26    18    21    1
    27    21    20    1
    28    21    22    1
    29    20    19    1
    30    24    19    1
    31    24    23    1
    32    22    23    1
