@<TRIPOS>MOLECULE
3rak_03Z_A_1.pdb
 25 27 0 0 0
SMALL
GASTEIGER

@<TRIPOS>ATOM
      1  C1        96.1980   76.8310  -46.7750 C.ar  497  03Z497      0.0000
      2  N1        92.2740   81.7580  -50.8000 N.2   497  03Z497     -0.3601
      3  O1        86.2390   80.4640  -44.9080 O.2   497  03Z497     -0.1503
      4  S1        92.9750   80.4930  -48.6640 S.3   497  03Z497     -0.0310
      5  C2        97.1760   77.6060  -47.5250 C.ar  497  03Z497      0.0001
      6  N2        93.8050   80.9550  -52.3990 N.pl3 497  03Z497     -0.0924
      7  O2        86.8720   82.8280  -43.8860 O.2   497  03Z497     -0.1503
      8  S2        87.4250   81.4030  -44.3890 S.O2  497  03Z497      0.0935
      9  C3        96.7780   78.4020  -48.6470 C.ar  497  03Z497      0.0032
     10  N3        90.9190   82.3440  -48.9990 N.pl3 497  03Z497     -0.1779
     11  O3        95.5740   79.1170  -51.3980 O.2   497  03Z497     -0.2859
     12  C4        94.3860   77.6580  -48.2990 C.ar  497  03Z497      0.0032
     13  N4        88.1810   80.6700  -43.2350 N.3   497  03Z497      0.0392
     14  C5        94.7780   76.8600  -47.1730 C.ar  497  03Z497      0.0001
     15  C10       95.3800   78.4450  -49.0520 C.ar  497  03Z497      0.0396
     16  C11       94.9520   79.2580  -50.2160 C.2   497  03Z497      0.2055
     17  C12       93.8150   80.2220  -50.1130 C.2   497  03Z497      0.1188
     18  C13       93.3200   80.9790  -51.1420 C.2   497  03Z497      0.2306
     19  C14       91.9660   81.6150  -49.5100 C.2   497  03Z497      0.2367
     20  C15       90.1340   82.0800  -47.8970 C.ar  497  03Z497      0.0737
     21  C16       90.2920   80.8920  -47.0290 C.ar  497  03Z497      0.0180
     22  C17       89.4470   80.6750  -45.9200 C.ar  497  03Z497      0.0213
     23  C18       88.4100   81.6330  -45.6280 C.ar  497  03Z497      0.1251
     24  C19       88.2420   82.8120  -46.4680 C.ar  497  03Z497      0.0213
     25  C20       89.0820   83.0350  -47.5790 C.ar  497  03Z497      0.0180
@<TRIPOS>BOND
     1     6    18    1
     2    11    16    1
     3    18     2    2
     4    18    17    1
     5     2    19    2
     6    16    17    2
     7    16    15    1
     8    17     4    1
     9    19    10    1
    10    19     4    1
    11    15     9   ar
    12    15    12   ar
    13    10    20    1
    14     9     5   ar
    15    12    14   ar
    16    20    25   ar
    17    20    21   ar
    18    25    24   ar
    19     5     1   ar
    20    14     1   ar
    21    21    22   ar
    22    24    23   ar
    23    22    23   ar
    24    23     8    1
    25     3     8    2
    26     8     7    2
    27     8    13    1
