@<TRIPOS>MOLECULE
3ral_04Z_A_1.pdb
 27 29 0 0 0
SMALL
GASTEIGER

@<TRIPOS>ATOM
      1  C1        95.9080   77.3670  -46.5810 C.ar  499  04Z499      0.0369
      2  N1        92.1830   82.2250  -50.7910 N.2   499  04Z499     -0.3601
      3  O1        86.0320   80.9820  -44.9520 O.2   499  04Z499     -0.1503
      4  S1        92.8390   80.9390  -48.6460 S.3   499  04Z499     -0.0310
      5  C2        96.9100   78.2360  -47.1960 C.ar  499  04Z499      0.1388
      6  N2        93.7360   81.4270  -52.3760 N.pl3 499  04Z499     -0.0924
      7  O2        86.7200   83.3220  -43.8580 O.2   499  04Z499     -0.1503
      8  S2        87.2540   81.8790  -44.4080 S.O2  499  04Z499      0.0935
      9  C3        96.5820   79.0040  -48.3690 C.ar  499  04Z499      0.0401
     10  N3        90.8080   82.8040  -48.9980 N.pl3 499  04Z499     -0.1779
     11  O3        95.5220   79.5680  -51.3300 O.2   499  04Z499     -0.2859
     12  C4        94.2490   78.0420  -48.3230 C.ar  499  04Z499      0.0034
     13  N4        87.9830   81.1020  -43.2730 N.3   499  04Z499      0.0392
     14  C5        94.5620   77.2710  -47.1570 C.ar  499  04Z499      0.0032
     15  O6        98.2000   78.3500  -46.6630 O.3   499  04Z499     -0.4714
     16  C7        98.6200   77.6970  -45.5780 C.3   499  04Z499      0.2525
     17  C10       95.2440   78.9190  -48.9490 C.ar  499  04Z499      0.0426
     18  C11       94.8610   79.7120  -50.1590 C.2   499  04Z499      0.2056
     19  C12       93.7160   80.6740  -50.0860 C.2   499  04Z499      0.1188
     20  C13       93.2330   81.4430  -51.1270 C.2   499  04Z499      0.2306
     21  C14       91.8540   82.0730  -49.5030 C.2   499  04Z499      0.2367
     22  C15       90.0080   82.5480  -47.9000 C.ar  499  04Z499      0.0737
     23  C16       90.1520   81.3600  -47.0210 C.ar  499  04Z499      0.0180
     24  C17       89.2910   81.1520  -45.9220 C.ar  499  04Z499      0.0213
     25  C18       88.2490   82.1150  -45.6420 C.ar  499  04Z499      0.1251
     26  C19       88.0950   83.2940  -46.4870 C.ar  499  04Z499      0.0213
     27  C20       88.9580   83.5070  -47.5960 C.ar  499  04Z499      0.0180
@<TRIPOS>BOND
     1     6    20    1
     2    11    18    1
     3    20     2    2
     4    20    19    1
     5     2    21    2
     6    18    19    2
     7    18    17    1
     8    19     4    1
     9    21    10    1
    10    21     4    1
    11    10    22    1
    12    17     9   ar
    13    17    12   ar
    14     9     5   ar
    15    12    14   ar
    16    22    27   ar
    17    22    23   ar
    18    27    26   ar
    19     5    15    1
    20     5     1   ar
    21    14     1   ar
    22    23    24   ar
    23    15    16    1
    24    26    25   ar
    25    24    25   ar
    26    25     8    1
    27     3     8    2
    28     8     7    2
    29     8    13    1
