@<TRIPOS>MOLECULE
3ran_GDP_A_1.pdb
 28 30 0 0 0
SMALL
GASTEIGER

@<TRIPOS>ATOM
      1  PB        -5.5540  -11.3140   50.0590 P.3   704  GDP704      0.5373
      2  O1B       -5.4480  -11.1810   51.5390 O.3   704  GDP704     -0.1143
      3  O2B       -6.7570  -12.1700   49.7670 O.3   704  GDP704     -0.1143
      4  O3B       -5.8010  -10.0210   49.4430 O.2   704  GDP704     -0.2221
      5  O3A       -4.1650  -12.0360   49.5640 O.3   704  GDP704     -0.2261
      6  PA        -2.9820  -12.8600   50.1510 P.3   704  GDP704      0.2231
      7  O1A       -2.0840  -11.9370   50.8940 O.2   704  GDP704     -0.5169
      8  O2A       -3.5040  -14.0080   50.8960 O.3   704  GDP704     -0.4370
      9  O5'       -2.1790  -13.2890   48.8170 O.3   704  GDP704     -0.3111
     10  C5'       -2.7840  -14.2890   47.9410 C.3   704  GDP704      0.1813
     11  C4'       -1.6520  -14.9480   47.1310 C.3   704  GDP704      0.1799
     12  O4'       -1.0220  -13.9120   46.2980 O.3   704  GDP704     -0.3326
     13  C3'       -0.5400  -15.5170   47.9840 C.3   704  GDP704      0.2158
     14  O3'       -0.1620  -16.8100   47.5500 O.3   704  GDP704     -0.2175
     15  C2'        0.5930  -14.5010   47.8360 C.3   704  GDP704      0.2310
     16  O2'        1.8340  -15.1110   48.1540 O.3   704  GDP704     -0.2158
     17  C1'        0.3740  -13.9240   46.3820 C.3   704  GDP704      0.2293
     18  N9         1.0390  -12.6190   46.3250 N.pl3 704  GDP704     -0.2354
     19  C8         0.6690  -11.4440   46.9970 C.3   704  GDP704      0.2246
     20  N7         1.4990  -10.4450   46.8480 N.2   704  GDP704     -0.2322
     21  C5         2.4820  -10.9420   46.0160 C.2   704  GDP704      0.2182
     22  C6         3.6220  -10.2880   45.4930 C.1   704  GDP704      0.2372
     23  O6         4.0660   -9.1630   45.7500 O.2   704  GDP704     -0.2069
     24  N1         4.3630  -11.1920   44.7140 N.2   704  GDP704     -0.2485
     25  C2         4.0100  -12.5120   44.4590 C.1   704  GDP704      0.2531
     26  N2         4.8370  -13.2200   43.6820 N.pl3 704  GDP704     -0.0226
     27  N3         2.9370  -13.1050   44.9490 N.2   704  GDP704     -0.3074
     28  C4         2.2170  -12.2730   45.7140 C.2   704  GDP704      0.2300
@<TRIPOS>BOND
     1    26    25    1
     2    25    24    2
     3    25    27    2
     4    24    22    2
     5    27    28    2
     6    22    23    2
     7    22    21    1
     8    28    21    1
     9    28    18    1
    10    21    20    2
    11    12    17    1
    12    12    11    1
    13    18    17    1
    14    18    19    1
    15    17    15    1
    16    20    19    1
    17    11    10    1
    18    11    13    1
    19    14    13    1
    20    15    13    1
    21    15    16    1
    22    10     9    1
    23     9     6    1
    24     4     1    2
    25     5     1    1
    26     5     6    1
    27     3     1    1
    28     1     2    1
    29     6     7    2
    30     6     8    1
