@<TRIPOS>MOLECULE
3rap_GTP_R_1.pdb
 32 34 0 0 0
SMALL
GASTEIGER

@<TRIPOS>ATOM
      1  PG        -9.4120    0.5460   34.1390 P.3   180  GTP180      0.5373
      2  O1G      -10.8150    0.9670   34.1730 O.2   180  GTP180     -0.2221
      3  O2G       -8.4630    1.5970   34.5200 O.3   180  GTP180     -0.1143
      4  O3G       -9.2020   -0.7320   34.8560 O.3   180  GTP180     -0.1143
      5  O3B       -9.0990    0.2150   32.5870 O.3   180  GTP180     -0.2258
      6  PB        -7.8980   -0.6210   31.9280 P.3   180  GTP180      0.2277
      7  O1B       -6.8320    0.3290   31.5430 O.2   180  GTP180     -0.5168
      8  O2B       -7.5720   -1.7830   32.7970 O.3   180  GTP180     -0.4368
      9  O3A       -8.5510   -1.2000   30.5810 O.3   180  GTP180     -0.2700
     10  PA        -8.8200   -2.7210   30.1520 P.3   180  GTP180      0.2189
     11  O1A       -9.9660   -3.2290   30.9230 O.3   180  GTP180     -0.4371
     12  O2A       -7.5350   -3.4560   30.1840 O.2   180  GTP180     -0.5170
     13  O5'       -9.2660   -2.5500   28.6150 O.3   180  GTP180     -0.3112
     14  C5'      -10.4150   -1.7720   28.2940 C.3   180  GTP180      0.1813
     15  C4'      -11.0400   -2.1450   26.9540 C.3   180  GTP180      0.1799
     16  O4'      -10.0910   -1.9200   25.8890 O.3   180  GTP180     -0.3326
     17  C3'      -11.4270   -3.6190   26.9070 C.3   180  GTP180      0.2158
     18  O3'      -12.5310   -3.8050   26.0470 O.3   180  GTP180     -0.2175
     19  C2'      -10.1810   -4.2320   26.2960 C.3   180  GTP180      0.2310
     20  O2'      -10.4820   -5.4570   25.6700 O.3   180  GTP180     -0.2158
     21  C1'       -9.7400   -3.1860   25.3430 C.3   180  GTP180      0.2293
     22  N9        -8.3020   -3.2510   25.0730 N.pl3 180  GTP180     -0.2354
     23  C8        -7.2220   -3.2160   25.9180 C.3   180  GTP180      0.2246
     24  N7        -6.0660   -3.3180   25.3150 N.2   180  GTP180     -0.2322
     25  C5        -6.4140   -3.4450   23.9780 C.2   180  GTP180      0.2182
     26  C6        -5.5920   -3.5960   22.8250 C.1   180  GTP180      0.2372
     27  O6        -4.3590   -3.6270   22.7650 O.2   180  GTP180     -0.2069
     28  N1        -6.3620   -3.6910   21.6710 N.2   180  GTP180     -0.2485
     29  C2        -7.7400   -3.6320   21.6180 C.1   180  GTP180      0.2531
     30  N2        -8.3370   -3.8010   20.4470 N.pl3 180  GTP180     -0.0226
     31  N3        -8.5050   -3.4890   22.7030 N.2   180  GTP180     -0.3074
     32  C4        -7.7810   -3.4010   23.8260 C.2   180  GTP180      0.2300
@<TRIPOS>BOND
     1    30    29    1
     2    29    28    2
     3    29    31    2
     4    28    26    2
     5    31    32    2
     6    27    26    2
     7    26    25    1
     8    32    25    1
     9    32    22    1
    10    25    24    2
    11    22    21    1
    12    22    23    1
    13    24    23    1
    14    21    16    1
    15    21    19    1
    16    20    19    1
    17    16    15    1
    18    18    17    1
    19    19    17    1
    20    17    15    1
    21    15    14    1
    22    14    13    1
    23    13    10    1
    24    10    12    2
    25    10     9    1
    26    10    11    1
    27     9     6    1
    28     7     6    2
    29     6     5    1
    30     6     8    1
    31     5     1    1
    32     1     2    2
    33     1     3    1
    34     1     4    1
