@<TRIPOS>MOLECULE
3raq_DGT_A_1.pdb
 31 33 0 0 0
SMALL
GASTEIGER

@<TRIPOS>ATOM
      1  PG        11.7780    3.2590    6.5310 P.3   414  DGT414      0.5373
      2  O1G       10.7830    4.0270    5.7030 O.3   414  DGT414     -0.1143
      3  O2G       13.0190    3.8840    7.1280 O.3   414  DGT414     -0.1143
      4  O3G       12.6110    3.0790    5.2800 O.2   414  DGT414     -0.2221
      5  O3B       11.6090    1.6520    6.6190 O.3   414  DGT414     -0.2258
      6  PB        10.1170    1.2220    7.0430 P.3   414  DGT414      0.2277
      7  O1B        9.4450    2.2860    7.9250 O.3   414  DGT414     -0.4368
      8  O2B       10.2300   -0.0910    7.7690 O.2   414  DGT414     -0.5168
      9  O3A        9.3840    0.9730    5.6330 O.3   414  DGT414     -0.2700
     10  PA         7.9780    1.6220    5.1810 P.3   414  DGT414      0.2189
     11  O1A        7.7700    3.0890    5.4950 O.3   414  DGT414     -0.4371
     12  O2A        7.9020    1.3350    3.7170 O.2   414  DGT414     -0.5170
     13  O5'        6.8270    0.7330    5.8370 O.3   414  DGT414     -0.3112
     14  C5'        6.3980    0.9460    7.1750 C.3   414  DGT414      0.1812
     15  C4'        6.0540   -0.3940    7.7960 C.3   414  DGT414      0.1772
     16  O4'        5.1750   -1.1010    6.9080 O.3   414  DGT414     -0.3347
     17  C3'        7.2670   -1.2850    7.9800 C.3   414  DGT414      0.1857
     18  O3'        8.0140   -0.9710    9.1740 O.3   414  DGT414     -0.2203
     19  C2'        6.6320   -2.6580    7.9340 C.3   414  DGT414      0.0865
     20  C1'        5.4190   -2.5000    7.0090 C.3   414  DGT414      0.1981
     21  N9         5.8750   -3.1160    5.7690 N.pl3 414  DGT414     -0.2374
     22  C8         6.5400   -2.5370    4.7210 C.3   414  DGT414      0.2245
     23  N7         6.8710   -3.3810    3.7920 N.2   414  DGT414     -0.2322
     24  C5         6.4030   -4.6010    4.2500 C.2   414  DGT414      0.2182
     25  C6         6.4650   -5.9110    3.6890 C.1   414  DGT414      0.2372
     26  O6         6.9850   -6.2460    2.6150 O.2   414  DGT414     -0.2069
     27  N1         5.8630   -6.8800    4.5180 N.2   414  DGT414     -0.2485
     28  C2         5.2740   -6.6270    5.7410 C.1   414  DGT414      0.2531
     29  N2         4.7380   -7.6300    6.4360 N.pl3 414  DGT414     -0.0226
     30  N3         5.2230   -5.3920    6.2440 N.2   414  DGT414     -0.3074
     31  C4         5.7940   -4.4480    5.4690 C.2   414  DGT414      0.2299
@<TRIPOS>BOND
     1    26    25    2
     2    25    24    1
     3    25    27    2
     4    12    10    2
     5    23    24    2
     6    23    22    1
     7    24    31    1
     8    27    28    2
     9    22    21    1
    10    10    11    1
    11    10     9    1
    12    10    13    1
    13     4     1    2
    14    31    21    1
    15    31    30    2
    16     9     6    1
    17     2     1    1
    18    28    30    2
    19    28    29    1
    20    21    20    1
    21    13    14    1
    22     1     5    1
    23     1     3    1
    24     5     6    1
    25    16    20    1
    26    16    15    1
    27    20    19    1
    28     6     8    2
    29     6     7    1
    30    14    15    1
    31    15    17    1
    32    19    17    1
    33    17    18    1
