@<TRIPOS>MOLECULE
3rar_IAN_A_1.pdb
 13 13 0 0 0
SMALL
GASTEIGER

@<TRIPOS>ATOM
      1  C1        65.3400   55.7520  -16.1770 C.ar  560  IAN560      0.0132
      2  O1        67.4250   52.3280  -14.8970 O.3   560  IAN560     -0.3129
      3  P1        66.9670   53.4790  -15.9380 P.3   560  IAN560      0.2527
      4  C2        65.9460   55.8380  -17.4760 C.ar  560  IAN560     -0.0014
      5  C3        65.5260   56.8090  -18.4270 C.ar  560  IAN560     -0.0002
      6  O3        66.5670   55.1640  -13.9840 O.3   560  IAN560     -0.3401
      7  C4        64.4850   57.7210  -18.1040 C.ar  560  IAN560     -0.0000
      8  O4        68.2110   54.1960  -16.3740 O.3   560  IAN560     -0.1745
      9  C5        63.8670   57.6580  -16.8280 C.ar  560  IAN560     -0.0002
     10  C6        64.2870   56.6830  -15.8730 C.ar  560  IAN560     -0.0014
     11  C7        68.2900   52.5200  -13.7730 C.3   560  IAN560      0.1811
     12  C8        65.8020   54.6510  -15.1230 C.3   560  IAN560      0.2086
     13  C9        65.8970   56.0930  -13.1140 C.3   560  IAN560      0.1752
@<TRIPOS>BOND
     1     5     7   ar
     2     5     4   ar
     3     7     9   ar
     4     4     1   ar
     5     9    10   ar
     6     8     3    1
     7     1    10   ar
     8     1    12    1
     9     3    12    1
    10     3     2    1
    11    12     6    1
    12     2    11    1
    13     6    13    1
