@<TRIPOS>MOLECULE
3ras_NDP_A_1.pdb
 48 52 0 0 0
SMALL
GASTEIGER

@<TRIPOS>ATOM
      1  PA        19.0700    7.9030  -50.4430 P.3   1391  NDP1391     0.2189
      2  O1A       19.1250    7.0590  -51.6670 O.2   1391  NDP1391    -0.5170
      3  O2A       17.6700    7.7100  -49.6890 O.3   1391  NDP1391    -0.4371
      4  O5B       19.2510    9.4610  -50.8540 O.3   1391  NDP1391    -0.3112
      5  C5B       20.4890    9.7830  -51.5700 C.3   1391  NDP1391     0.1813
      6  C4B       20.4720   11.3390  -51.8370 C.3   1391  NDP1391     0.1820
      7  O4B       21.6310   11.8140  -52.5530 O.3   1391  NDP1391    -0.3136
      8  C3B       19.2420   11.8240  -52.6410 C.3   1391  NDP1391     0.2157
      9  O3B       18.6310   12.9880  -52.0810 O.3   1391  NDP1391    -0.2175
     10  C2B       19.7710   12.0680  -54.0490 C.3   1391  NDP1391     0.2314
     11  O2B       19.0230   13.0340  -54.7960 O.3   1391  NDP1391    -0.2630
     12  C1B       21.1700   12.5600  -53.7390 C.3   1391  NDP1391     0.3158
     13  N9A       22.1130   12.3270  -54.8180 N.pl3 1391  NDP1391    -0.1439
     14  C8A       22.3770   11.1960  -55.5490 C.3   1391  NDP1391     0.3377
     15  N7A       23.3070   11.4190  -56.4300 N.2   1391  NDP1391    -0.2095
     16  C5A       23.6880   12.7050  -56.3120 C.2   1391  NDP1391     0.2526
     17  C6A       24.6320   13.4830  -56.9860 C.2   1391  NDP1391     0.4393
     18  N6A       25.3850   12.9080  -58.0030 N.pl3 1391  NDP1391     0.2180
     19  N1A       24.7920   14.7920  -56.6290 N.2   1391  NDP1391     0.0021
     20  C2A       24.0650   15.3510  -55.6420 C.3   1391  NDP1391     0.5254
     21  N3A       23.1380   14.6340  -54.9590 N.2   1391  NDP1391    -0.0055
     22  C4A       22.9310   13.3270  -55.2690 C.2   1391  NDP1391     0.3518
     23  O3        20.2990    7.4110  -49.4510 O.3   1391  NDP1391    -0.2703
     24  PN        20.1150    7.5430  -47.8130 P.3   1391  NDP1391     0.2189
     25  O1N       19.3510    6.3730  -47.2980 O.3   1391  NDP1391    -0.4371
     26  O2N       19.3500    8.8900  -47.3910 O.2   1391  NDP1391    -0.5170
     27  O5D       21.5760    7.5290  -47.1410 O.3   1391  NDP1391    -0.3112
     28  C5D       22.4550    8.6040  -47.5380 C.3   1391  NDP1391     0.1813
     29  C4D       23.7640    8.3660  -46.8000 C.3   1391  NDP1391     0.1799
     30  O4D       23.5070    8.1940  -45.3660 O.3   1391  NDP1391    -0.3327
     31  C3D       24.4250    7.0820  -47.3390 C.3   1391  NDP1391     0.2158
     32  O3D       25.8040    7.2440  -47.6140 O.3   1391  NDP1391    -0.2175
     33  C2D       24.1010    6.0340  -46.2470 C.3   1391  NDP1391     0.2309
     34  O2D       25.0870    5.0090  -46.1640 O.3   1391  NDP1391    -0.2158
     35  C1D       23.9920    6.8470  -44.9900 C.3   1391  NDP1391     0.2263
     36  N1N       23.0780    6.2230  -43.9800 N.pl3 1391  NDP1391    -0.2787
     37  C2N       21.6710    6.0680  -44.2060 C.3   1391  NDP1391     0.1244
     38  C3N       20.8440    5.4930  -43.2440 C.2   1391  NDP1391     0.0544
     39  C7N       19.4200    5.3490  -43.4860 C.2   1391  NDP1391     0.2818
     40  O7N       18.6960    4.8480  -42.6310 O.2   1391  NDP1391    -0.2670
     41  N7N       18.8700    5.7670  -44.6490 N.am  1391  NDP1391    -0.0839
     42  C4N       21.4900    5.0340  -41.9470 C.2   1391  NDP1391     0.0033
     43  C5N       22.9950    5.2470  -41.8520 C.2   1391  NDP1391     0.0157
     44  C6N       23.6890    5.7950  -42.8000 C.2   1391  NDP1391     0.0633
     45  P2B       17.8730   12.4140  -55.7550 P.3   1391  NDP1391     0.5328
     46  O1X       17.8830   10.9440  -55.7000 O.3   1391  NDP1391    -0.1145
     47  O2X       16.4650   12.9770  -55.2780 O.3   1391  NDP1391    -0.1145
     48  O3X       18.1100   12.8720  -57.2680 O.2   1391  NDP1391    -0.2224
@<TRIPOS>BOND
     1    18    17    1
     2    48    45    2
     3    17    19    2
     4    17    16    1
     5    19    20    1
     6    15    16    2
     7    15    14    1
     8    16    22    1
     9    45    46    1
    10    45    47    1
    11    45    11    1
    12    20    21    1
    13    14    13    1
    14    22    21    2
    15    22    13    1
    16    13    12    1
    17    11    10    1
    18    10    12    1
    19    10     8    1
    20    12     7    1
    21     8     9    1
    22     8     6    1
    23     7     6    1
    24     6     5    1
    25     2     1    2
    26     5     4    1
    27     4     1    1
    28     1     3    1
    29     1    23    1
    30    23    24    1
    31    24    26    2
    32    24    25    1
    33    24    27    1
    34    32    31    1
    35    28    27    1
    36    28    29    1
    37    31    29    1
    38    31    33    1
    39    29    30    1
    40    33    34    1
    41    33    35    1
    42    30    35    1
    43    35    36    1
    44    41    39   am
    45    37    36    1
    46    37    38    1
    47    36    44    1
    48    39    38    1
    49    39    40    2
    50    38    42    2
    51    44    43    2
    52    42    43    1
