@<TRIPOS>MOLECULE
3ras_FM5_A_1.pdb
 20 20 0 0 0
SMALL
GASTEIGER

@<TRIPOS>ATOM
      1 CL2        16.4020   -1.5820  -37.7850 Cl    390  FM5390     -0.0814
      2  C9        17.9670   -1.6240  -38.5190 C.ar  390  FM5390      0.0682
      3  C10       18.1260   -2.4140  -39.7200 C.ar  390  FM5390      0.0119
      4  C11       19.4050   -2.4790  -40.3650 C.ar  390  FM5390     -0.0029
      5  C8        19.0910   -0.9120  -37.9730 C.ar  390  FM5390      0.0679
      6 CL1        19.0130    0.0670  -36.5350 Cl    390  FM5390     -0.0814
      7  C7        20.3490   -0.9840  -38.6140 C.ar  390  FM5390      0.0084
      8  C6        20.5290   -1.7480  -39.8070 C.ar  390  FM5390     -0.0147
      9  C4        21.8940   -1.6670  -40.5070 C.3   390  FM5390      0.0760
     10  PA1       22.6860   -3.1170  -40.4610 P.3   390  FM5390      0.1209
     11  OP1       23.0480   -3.4470  -39.0210 O.3   390  FM5390     -0.3569
     12  OP2       23.9690   -3.0450  -41.2700 O.2   390  FM5390     -0.4598
     13  OP3       21.8240   -4.2010  -41.0390 O.3   390  FM5390     -0.3569
     14  C3        21.7170   -0.9160  -41.8130 C.3   390  FM5390      0.0337
     15  C2        21.1120    0.5190  -41.5820 C.3   390  FM5390      0.0985
     16  N1        22.0440    1.2450  -40.7180 N.am  390  FM5390     -0.2845
     17  O2        23.4370    1.0070  -40.9000 O.3   390  FM5390     -0.4197
     18  C1        21.5640    2.2130  -39.6950 C.2   390  FM5390      0.0679
     19  O1        22.3330    2.7480  -39.0710 O.2   390  FM5390     -0.5413
     20  C5        20.0950    2.5080  -39.4760 C.3   390  FM5390      0.0561
@<TRIPOS>BOND
     1    14    15    1
     2    14     9    1
     3    15    16    1
     4    12    10    2
     5    13    10    1
     6    17    16    1
     7    16    18   am
     8     9    10    1
     9     9     8    1
    10    10    11    1
    11     4     8   ar
    12     4     3   ar
    13     8     7   ar
    14     3     2   ar
    15    18    20    1
    16    18    19    2
    17     7     5   ar
    18     2     5   ar
    19     2     1    1
    20     5     6    1
