@<TRIPOS>MOLECULE
3ras_DCV_A_1.pdb
 20 20 0 0 0
SMALL
GASTEIGER

@<TRIPOS>ATOM
      1  C1        21.6040    2.2980  -39.8900 C.2   391  DCV391      0.0679
      2  N1        22.3100    1.4680  -40.8960 N.am  391  DCV391     -0.2845
      3  O1        22.1940    3.1030  -39.3590 O.2   391  DCV391     -0.5413
      4 CL1        19.2690   -0.1160  -36.6080 Cl    391  DCV391     -0.0814
      5  C2        21.6180    0.4240  -41.6000 C.3   391  DCV391      0.0985
      6  O2        23.6900    1.6550  -41.2210 O.3   391  DCV391     -0.4197
      7 CL2        16.4720   -1.5550  -37.7120 Cl    391  DCV391     -0.0814
      8  C3        22.4400   -0.7310  -41.0620 C.3   391  DCV391      0.0337
      9  C4        21.7070   -2.0360  -40.9690 C.3   391  DCV391      0.0760
     10  C5        20.1510    2.1190  -39.5580 C.3   391  DCV391      0.0561
     11  PA1       22.6390   -3.2620  -40.4900 P.3   391  DCV391      0.1209
     12  CAC       20.4330   -1.9430  -40.0970 C.ar  391  DCV391     -0.0147
     13  CAD       19.1980   -2.5740  -40.5410 C.ar  391  DCV391     -0.0029
     14  CAE       20.3930   -1.1950  -38.8290 C.ar  391  DCV391      0.0084
     15  CAF       18.0060   -2.4420  -39.7740 C.ar  391  DCV391      0.0119
     16  CAG       19.1870   -1.0580  -38.0670 C.ar  391  DCV391      0.0679
     17  CAH       17.9820   -1.6780  -38.5490 C.ar  391  DCV391      0.0682
     18  OP1       22.9990   -3.1230  -39.0150 O.3   391  DCV391     -0.3569
     19  OP2       23.8970   -3.3000  -41.3250 O.2   391  DCV391     -0.4598
     20  OP3       21.9010   -4.5540  -40.7210 O.3   391  DCV391     -0.3569
@<TRIPOS>BOND
     1     5     8    1
     2     5     2    1
     3    19    11    2
     4     6     2    1
     5     8     9    1
     6     9    11    1
     7     9    12    1
     8     2     1   am
     9    20    11    1
    10    13    12   ar
    11    13    15   ar
    12    11    18    1
    13    12    14   ar
    14     1    10    1
    15     1     3    2
    16    15    17   ar
    17    14    16   ar
    18    17    16   ar
    19    17     7    1
    20    16     4    1
