@<TRIPOS>MOLECULE
3rav_RAV_A_1.pdb
 16 16 0 0 0
SMALL
GASTEIGER

@<TRIPOS>ATOM
      1  C1        34.9350    0.0560   34.9560 C.3   183  RAV183      0.2080
      2  C2        34.9490    1.3230   34.1420 C.1   183  RAV183      0.2071
      3  N3        35.1080    1.2930   32.8130 N.2   183  RAV183     -0.2354
      4  C4        35.2600    0.1520   32.1370 C.1   183  RAV183      0.3752
      5  N5        35.2630   -1.0290   32.7560 N.2   183  RAV183     -0.2354
      6  C6        35.1180   -1.1460   34.0780 C.1   183  RAV183      0.2071
      7  O7        35.1280   -2.2890   34.5860 O.2   183  RAV183     -0.2123
      8  O8        34.8170    2.4390   34.6900 O.2   183  RAV183     -0.2123
      9  O9        35.4030    0.1860   30.8970 O.2   183  RAV183     -0.1738
     10  C12       36.0750    0.1080   35.9600 C.3   183  RAV183      0.0335
     11  C13       33.6320   -0.1160   35.7350 C.3   183  RAV183      0.0314
     12  C14       33.2320    1.1460   36.4820 C.3   183  RAV183      0.0023
     13  C15       32.4980   -0.6480   34.8630 C.3   183  RAV183      0.0022
     14  C16       31.2050   -0.7700   35.6640 C.3   183  RAV183      0.0001
     15  C17       30.0930    0.0210   35.0090 C.3   183  RAV183      0.0000
     16  C18       35.7720   -0.8090   37.1300 C.3   183  RAV183      0.0023
@<TRIPOS>BOND
     1     9     4    2
     2     4     5    2
     3     4     3    2
     4     5     6    2
     5     3     2    2
     6     6     7    2
     7     6     1    1
     8     2     8    2
     9     2     1    1
    10    13    14    1
    11    13    11    1
    12     1    11    1
    13     1    10    1
    14    15    14    1
    15    11    12    1
    16    10    16    1
