@<TRIPOS>MOLECULE
3raw_3RA_A_1.pdb
 23 26 0 0 0
SMALL
GASTEIGER

@<TRIPOS>ATOM
      1  CAA       92.2910   27.2770   19.2160 C.ar    1  3RA1        0.0174
      2  CAB       93.6780   27.4170   19.2490 C.ar    1  3RA1        0.0014
      3  CAC       94.4830   26.6780   18.3870 C.ar    1  3RA1        0.0001
      4  CAD       93.8980   25.8060   17.4750 C.ar    1  3RA1        0.0014
      5  CAE       92.5120   25.6700   17.4520 C.ar    1  3RA1        0.0174
      6  CAF       91.6850   26.4060   18.3070 C.ar    1  3RA1        0.0835
      7  NAG       90.3330   26.2870   18.3230 N.pl3   1  3RA1       -0.1248
      8  CAH       89.5420   25.8100   17.3320 C.1     1  3RA1        0.2354
      9  NAI       89.9300   25.4120   16.1200 N.2     1  3RA1       -0.3174
     10  CAJ       88.8640   25.0160   15.4290 C.2     1  3RA1        0.2209
     11  CAK       87.7870   25.1660   16.2990 C.1     1  3RA1        0.2428
     12  NAL       88.2210   25.6520   17.4590 N.2     1  3RA1       -0.2489
     13  OAM       86.6160   24.9120   16.0040 O.2     1  3RA1       -0.2062
     14  CAN       88.6600   24.5470   14.1340 C.3     1  3RA1        0.0998
     15  CAO       89.6260   24.5430   13.1180 C.ar    1  3RA1       -0.0111
     16  CAP       90.9890   24.7410   13.3380 C.ar    1  3RA1        0.0364
     17  CAQ       91.8600   24.7140   12.2490 C.ar    1  3RA1        0.1761
     18  CAR       91.3930   24.4960   10.9710 C.ar    1  3RA1        0.1764
     19  CAS       90.0510   24.2720   10.7480 C.ar    1  3RA1        0.0399
     20  CAT       89.1940   24.2870   11.8310 C.ar    1  3RA1       -0.0005
     21  OAU       93.2070   24.8990   12.1680 O.3     1  3RA1       -0.4346
     22  CAV       93.5030   25.1360   10.8230 C.3     1  3RA1        0.4294
     23  OAW       92.4650   24.4740   10.1420 O.3     1  3RA1       -0.4346
@<TRIPOS>BOND
     1    23    22    1
     2    23    18    1
     3    19    18   ar
     4    19    20   ar
     5    22    21    1
     6    18    17   ar
     7    20    15   ar
     8    21    17    1
     9    17    16   ar
    10    15    16   ar
    11    15    14    1
    12    14    10    1
    13    10     9    2
    14    10    11    1
    15    13    11    2
    16     9     8    2
    17    11    12    2
    18     8    12    2
    19     8     7    1
    20     5     4   ar
    21     5     6   ar
    22     4     3   ar
    23     6     7    1
    24     6     1   ar
    25     3     2   ar
    26     1     2   ar
