@<TRIPOS>MOLECULE
3rax_DGT_A_1.pdb
 31 33 0 0 0
SMALL
GASTEIGER

@<TRIPOS>ATOM
      1  PG        12.0030    3.3900    6.7660 P.3   414  DGT414      0.5373
      2  O1G       10.9210    4.1640    6.0810 O.3   414  DGT414     -0.1143
      3  O2G       13.2200    4.0090    7.3940 O.3   414  DGT414     -0.1143
      4  O3G       12.7320    3.1900    5.4820 O.2   414  DGT414     -0.2221
      5  O3B       11.7910    1.8050    6.9500 O.3   414  DGT414     -0.2258
      6  PB        10.2950    1.4010    7.3830 P.3   414  DGT414      0.2277
      7  O1B        9.5940    2.3720    8.2970 O.3   414  DGT414     -0.4368
      8  O2B       10.4140    0.0280    8.0490 O.2   414  DGT414     -0.5168
      9  O3A        9.5210    1.1380    5.9970 O.3   414  DGT414     -0.2700
     10  PA         8.1370    1.7980    5.5300 P.3   414  DGT414      0.2189
     11  O1A        8.0460    1.4800    4.0640 O.2   414  DGT414     -0.5170
     12  O2A        7.9300    3.2740    5.8310 O.3   414  DGT414     -0.4371
     13  O5'        6.9480    0.9090    6.1520 O.3   414  DGT414     -0.3112
     14  C5'        6.5050    1.0910    7.4910 C.3   414  DGT414      0.1812
     15  C4'        6.2580   -0.2600    8.1430 C.3   414  DGT414      0.1772
     16  O4'        5.3090   -0.9990    7.3610 O.3   414  DGT414     -0.3347
     17  C3'        7.5040   -1.1300    8.2460 C.3   414  DGT414      0.1857
     18  O3'        8.3070   -0.7770    9.3780 O.3   414  DGT414     -0.2203
     19  C2'        6.8500   -2.5010    8.3040 C.3   414  DGT414      0.0865
     20  C1'        5.6300   -2.3870    7.3830 C.3   414  DGT414      0.1981
     21  N9         6.0520   -2.9190    6.0830 N.pl3 414  DGT414     -0.2374
     22  C8         6.7520   -2.3030    5.0680 C.3   414  DGT414      0.2245
     23  N7         7.0180   -3.0890    4.0490 N.2   414  DGT414     -0.2322
     24  C5         6.4650   -4.3050    4.4240 C.2   414  DGT414      0.2182
     25  C6         6.4180   -5.5490    3.7470 C.1   414  DGT414      0.2372
     26  O6         6.8910   -5.8200    2.6390 O.2   414  DGT414     -0.2069
     27  N1         5.7380   -6.5330    4.4890 N.2   414  DGT414     -0.2485
     28  C2         5.1900   -6.3680    5.7450 C.1   414  DGT414      0.2531
     29  N2         4.5680   -7.4020    6.3370 N.pl3 414  DGT414     -0.0226
     30  N3         5.2310   -5.1760    6.3560 N.2   414  DGT414     -0.3074
     31  C4         5.8720   -4.2150    5.6550 C.2   414  DGT414      0.2299
@<TRIPOS>BOND
     1    26    25    2
     2    25    24    1
     3    25    27    2
     4    23    24    2
     5    23    22    1
     6    11    10    2
     7    24    31    1
     8    27    28    2
     9    22    21    1
    10     4     1    2
    11    10    12    1
    12    10     9    1
    13    10    13    1
    14    31    21    1
    15    31    30    2
    16    28    29    1
    17    28    30    2
    18     9     6    1
    19     2     1    1
    20    21    20    1
    21    13    14    1
    22     1     5    1
    23     1     3    1
    24     5     6    1
    25    16    20    1
    26    16    15    1
    27    20    19    1
    28     6     8    2
    29     6     7    1
    30    14    15    1
    31    15    17    1
    32    17    19    1
    33    17    18    1
