@<TRIPOS>MOLECULE
3rb0_DGT_A_1.pdb
 31 33 0 0 0
SMALL
GASTEIGER

@<TRIPOS>ATOM
      1  PG         2.7030    4.8260   -0.6500 P.3   414  DGT414      0.5373
      2  O1G        2.5620    4.0610    0.6570 O.3   414  DGT414     -0.1143
      3  O2G        2.1840    6.2640   -0.8080 O.2   414  DGT414     -0.2221
      4  O3G        1.2400    4.5190   -0.7770 O.3   414  DGT414     -0.1143
      5  O3B        2.9060    3.9830   -1.9960 O.3   414  DGT414     -0.2258
      6  PB         4.2970    3.2260   -1.8950 P.3   414  DGT414      0.2277
      7  O1B        5.3730    3.9330   -2.6660 O.2   414  DGT414     -0.5168
      8  O2B        4.0450    1.9230   -2.5870 O.3   414  DGT414     -0.4368
      9  O3A        4.6930    3.0890   -0.3350 O.3   414  DGT414     -0.2700
     10  PA         6.2410    3.3050    0.0530 P.3   414  DGT414      0.2189
     11  O1A        6.4330    2.9360    1.4950 O.3   414  DGT414     -0.4371
     12  O2A        6.6320    4.7400   -0.0560 O.2   414  DGT414     -0.5170
     13  O5'        7.1940    2.3900   -0.8470 O.3   414  DGT414     -0.3112
     14  C5'        7.9850    2.8940   -1.9170 C.3   414  DGT414      0.1812
     15  C4'        8.2540    1.8410   -3.0030 C.3   414  DGT414      0.1772
     16  O4'        9.2410    0.9160   -2.5500 O.3   414  DGT414     -0.3347
     17  C3'        7.0780    0.9740   -3.4450 C.3   414  DGT414      0.1857
     18  O3'        6.3010    1.5130   -4.5180 O.3   414  DGT414     -0.2203
     19  C2'        7.7440   -0.2880   -3.9170 C.3   414  DGT414      0.0865
     20  C1'        8.9560   -0.3960   -3.0230 C.3   414  DGT414      0.1981
     21  N9         8.5610   -1.2790   -1.9270 N.pl3 414  DGT414     -0.2374
     22  C8         7.9010   -0.9090   -0.7910 C.3   414  DGT414      0.2245
     23  N7         7.6580   -1.9030    0.0060 N.2   414  DGT414     -0.2322
     24  C5         8.1880   -3.0020   -0.6420 C.2   414  DGT414      0.2182
     25  C6         8.2180   -4.3510   -0.2640 C.1   414  DGT414      0.2372
     26  O6         7.7650   -4.8620    0.7590 O.2   414  DGT414     -0.2069
     27  N1         8.8400   -5.1420   -1.2120 N.2   414  DGT414     -0.2485
     28  C2         9.3800   -4.7110   -2.4050 C.1   414  DGT414      0.2531
     29  N2         9.9600   -5.6070   -3.2230 N.pl3 414  DGT414     -0.0226
     30  N3         9.3390   -3.4280   -2.7380 N.2   414  DGT414     -0.3074
     31  C4         8.7370   -2.6390   -1.8310 C.2   414  DGT414      0.2299
@<TRIPOS>BOND
     1    18    17    1
     2    19    17    1
     3    19    20    1
     4    17    15    1
     5    29    28    1
     6    20    16    1
     7    20    21    1
     8    15    16    1
     9    15    14    1
    10    30    28    2
    11    30    31    2
    12     7     6    2
    13     8     6    1
    14    28    27    2
    15     5     6    1
    16     5     1    1
    17    21    31    1
    18    21    22    1
    19    14    13    1
    20     6     9    1
    21    31    24    1
    22    27    25    2
    23    13    10    1
    24     3     1    2
    25    22    23    1
    26     4     1    1
    27     1     2    1
    28    24    25    1
    29    24    23    2
    30     9    10    1
    31    25    26    2
    32    12    10    2
    33    10    11    1
