@<TRIPOS>MOLECULE
3rb3_DGT_A_1.pdb
 31 33 0 0 0
SMALL
GASTEIGER

@<TRIPOS>ATOM
      1  PG        24.6200   21.0770    2.4490 P.3   414  DGT414      0.5373
      2  O1G       23.5670   21.8560    3.2440 O.3   414  DGT414     -0.1143
      3  O2G       25.1310   21.7700    1.1730 O.2   414  DGT414     -0.2221
      4  O3G       23.3640   20.6280    1.7050 O.3   414  DGT414     -0.1143
      5  O3B       24.8690   19.4590    2.5710 O.3   414  DGT414     -0.2258
      6  PB        25.2440   18.9670    4.0450 P.3   414  DGT414      0.2277
      7  O1B       25.8320   20.0990    4.8620 O.3   414  DGT414     -0.4368
      8  O2B       26.2410   17.8530    3.8880 O.2   414  DGT414     -0.5168
      9  O3A       23.8870   18.3570    4.6760 O.3   414  DGT414     -0.2700
     10  PA        23.2410   18.9260    6.0520 P.3   414  DGT414      0.2189
     11  O1A       21.8180   18.4380    6.0720 O.2   414  DGT414     -0.5170
     12  O2A       23.1890   20.4390    6.2310 O.3   414  DGT414     -0.4371
     13  O5'       23.9900   18.2130    7.2740 O.3   414  DGT414     -0.3112
     14  C5'       25.2510   18.6910    7.7160 C.3   414  DGT414      0.1812
     15  C4'       26.1320   17.5110    8.0470 C.3   414  DGT414      0.1772
     16  O4'       25.4350   16.6010    8.8980 O.3   414  DGT414     -0.3347
     17  C3'       26.5090   16.6980    6.8260 C.3   414  DGT414      0.1857
     18  O3'       27.6220   17.2430    6.1100 O.3   414  DGT414     -0.2203
     19  C2'       26.8340   15.3540    7.4360 C.3   414  DGT414      0.0865
     20  C1'       25.9050   15.2750    8.6410 C.3   414  DGT414      0.1981
     21  N9        24.8190   14.3600    8.2490 N.pl3 414  DGT414     -0.2374
     22  C8        23.6310   14.6590    7.6060 C.3   414  DGT414      0.2245
     23  N7        22.8830   13.6100    7.3880 N.2   414  DGT414     -0.2322
     24  C5        23.6300   12.5550    7.9170 C.2   414  DGT414      0.2182
     25  C6        23.3660   11.1700    7.9810 C.1   414  DGT414      0.2372
     26  O6        22.3710   10.5650    7.5690 O.2   414  DGT414     -0.2069
     27  N1        24.3750   10.4520    8.6030 N.2   414  DGT414     -0.2485
     28  C2        25.5400   10.9610    9.1250 C.1   414  DGT414      0.2531
     29  N2        26.4100   10.1080    9.6970 N.pl3 414  DGT414     -0.0226
     30  N3        25.7880   12.2710    9.0490 N.2   414  DGT414     -0.3074
     31  C4        24.8130   12.9960    8.4430 C.2   414  DGT414      0.2299
@<TRIPOS>BOND
     1     3     1    2
     2     4     1    1
     3     1     5    1
     4     1     2    1
     5     5     6    1
     6     8     6    2
     7     6     9    1
     8     6     7    1
     9     9    10    1
    10    10    11    2
    11    10    12    1
    12    10    13    1
    13    18    17    1
    14    17    19    1
    15    17    15    1
    16    13    14    1
    17    23    22    1
    18    23    24    2
    19    19    20    1
    20    26    25    2
    21    22    21    1
    22    14    15    1
    23    24    25    1
    24    24    31    1
    25    25    27    2
    26    15    16    1
    27    21    31    1
    28    21    20    1
    29    31    30    2
    30    27    28    2
    31    20    16    1
    32    30    28    2
    33    28    29    1
