@<TRIPOS>MOLECULE
3rb4_DGT_A_1.pdb
 31 33 0 0 0
SMALL
GASTEIGER

@<TRIPOS>ATOM
      1  PG         2.4020    5.2120   -1.1250 P.3   414  DGT414      0.5373
      2  O1G        3.5350    5.6320   -0.1680 O.3   414  DGT414     -0.1143
      3  O2G        1.1280    6.0100   -1.2600 O.2   414  DGT414     -0.2221
      4  O3G        1.7930    4.5860    0.1160 O.3   414  DGT414     -0.1143
      5  O3B        2.4660    3.7470   -1.8140 O.3   414  DGT414     -0.2258
      6  PB         3.9950    3.3510   -2.0930 P.3   414  DGT414      0.2277
      7  O1B        4.7580    4.4620   -2.7740 O.3   414  DGT414     -0.4368
      8  O2B        4.0160    2.1810   -3.0120 O.2   414  DGT414     -0.5168
      9  O3A        4.5650    2.9740   -0.6310 O.3   414  DGT414     -0.2700
     10  PA         6.1140    3.2180   -0.2670 P.3   414  DGT414      0.2189
     11  O1A        6.3590    2.7030    1.1190 O.3   414  DGT414     -0.4371
     12  O2A        6.3730    4.6860   -0.3350 O.2   414  DGT414     -0.5170
     13  O5'        7.1390    2.3690   -1.1710 O.3   414  DGT414     -0.3112
     14  C5'        7.7280    2.9370   -2.3470 C.3   414  DGT414      0.1812
     15  C4'        8.0870    1.8420   -3.3420 C.3   414  DGT414      0.1772
     16  O4'        9.0590    0.9360   -2.8030 O.3   414  DGT414     -0.3347
     17  C3'        6.8850    0.9850   -3.6860 C.3   414  DGT414      0.1857
     18  O3'        6.2030    1.4760   -4.8460 O.3   414  DGT414     -0.2203
     19  C2'        7.4850   -0.3840   -3.9430 C.3   414  DGT414      0.0865
     20  C1'        8.7660   -0.4330   -3.1340 C.3   414  DGT414      0.1981
     21  N9         8.3630   -1.2830   -2.0030 N.pl3 414  DGT414     -0.2374
     22  C8         7.7280   -0.8670   -0.8740 C.3   414  DGT414      0.2245
     23  N7         7.4820   -1.8560   -0.0490 N.2   414  DGT414     -0.2322
     24  C5         7.9710   -2.9930   -0.6690 C.2   414  DGT414      0.2182
     25  C6         7.9630   -4.3590   -0.2640 C.1   414  DGT414      0.2372
     26  O6         7.4960   -4.8380    0.7890 O.2   414  DGT414     -0.2069
     27  N1         8.5600   -5.2000   -1.2000 N.2   414  DGT414     -0.2485
     28  C2         9.1000   -4.7780   -2.3930 C.1   414  DGT414      0.2531
     29  N2         9.6360   -5.6690   -3.2280 N.pl3 414  DGT414     -0.0226
     30  N3         9.0820   -3.5050   -2.7520 N.2   414  DGT414     -0.3074
     31  C4         8.5100   -2.6550   -1.8680 C.2   414  DGT414      0.2299
@<TRIPOS>BOND
     1    18    17    1
     2    19    17    1
     3    19    20    1
     4    17    15    1
     5    15    16    1
     6    15    14    1
     7    29    28    1
     8    20    16    1
     9    20    21    1
    10     8     6    2
    11     7     6    1
    12    30    28    2
    13    30    31    2
    14    28    27    2
    15    14    13    1
    16     6     5    1
    17     6     9    1
    18    21    31    1
    19    21    22    1
    20    31    24    1
    21     5     1    1
    22     3     1    2
    23    27    25    2
    24    13    10    1
    25     1     2    1
    26     1     4    1
    27    22    23    1
    28    24    25    1
    29    24    23    2
    30     9    10    1
    31    12    10    2
    32    10    11    1
    33    25    26    2
