@<TRIPOS>MOLECULE
3rb6_DGT_A_1.pdb
 31 33 0 0 0
SMALL
GASTEIGER

@<TRIPOS>ATOM
      1  PG         2.4840    4.9670   -0.8640 P.3   414  DGT414      0.5373
      2  O1G        1.4800    4.4700    0.1790 O.3   414  DGT414     -0.1143
      3  O2G        3.0880    6.3320   -0.7050 O.3   414  DGT414     -0.1143
      4  O3G        1.3390    5.6750   -1.5820 O.2   414  DGT414     -0.2221
      5  O3B        2.5970    4.1540   -2.2470 O.3   414  DGT414     -0.2258
      6  PB         4.0550    3.4930   -2.3110 P.3   414  DGT414      0.2277
      7  O1B        5.0150    4.5040   -2.8860 O.3   414  DGT414     -0.4368
      8  O2B        3.9570    2.2820   -3.1780 O.2   414  DGT414     -0.5168
      9  O3A        4.4760    3.0590   -0.8310 O.3   414  DGT414     -0.2700
     10  PA         6.0310    3.2080   -0.4130 P.3   414  DGT414      0.2189
     11  O1A        6.1270    2.6370    0.9670 O.3   414  DGT414     -0.4371
     12  O2A        6.3640    4.6770   -0.4200 O.2   414  DGT414     -0.5170
     13  O5'        7.0670    2.4190   -1.3310 O.3   414  DGT414     -0.3112
     14  C5'        7.7280    3.0460   -2.4380 C.3   414  DGT414      0.1812
     15  C4'        8.1140    1.9430   -3.3890 C.3   414  DGT414      0.1772
     16  O4'        9.0140    1.0350   -2.7300 O.3   414  DGT414     -0.3347
     17  C3'        6.9090    1.1020   -3.7940 C.3   414  DGT414      0.1857
     18  O3'        6.2210    1.6550   -4.9120 O.3   414  DGT414     -0.2203
     19  C2'        7.5310   -0.2440   -4.0940 C.3   414  DGT414      0.0865
     20  C1'        8.7340   -0.2930   -3.1420 C.3   414  DGT414      0.1981
     21  N9         8.3190   -1.1340   -2.0030 N.pl3 414  DGT414     -0.2374
     22  C8         7.6630   -0.7580   -0.8500 C.3   414  DGT414      0.2245
     23  N7         7.4220   -1.7710   -0.0450 N.2   414  DGT414     -0.2322
     24  C5         7.9400   -2.8730   -0.6980 C.2   414  DGT414      0.2182
     25  C6         7.9680   -4.2380   -0.3250 C.1   414  DGT414      0.2372
     26  O6         7.5240   -4.7750    0.7110 O.2   414  DGT414     -0.2069
     27  N1         8.6000   -5.0230   -1.2940 N.2   414  DGT414     -0.2485
     28  C2         9.1340   -4.5830   -2.4860 C.1   414  DGT414      0.2531
     29  N2         9.7020   -5.5030   -3.2740 N.pl3 414  DGT414     -0.0226
     30  N3         9.1000   -3.2860   -2.8300 N.2   414  DGT414     -0.3074
     31  C4         8.4990   -2.5010   -1.9020 C.2   414  DGT414      0.2299
@<TRIPOS>BOND
     1    18    17    1
     2    19    17    1
     3    19    20    1
     4    17    15    1
     5    15    16    1
     6    15    14    1
     7    29    28    1
     8     8     6    2
     9    20    16    1
    10    20    21    1
    11     7     6    1
    12    30    28    2
    13    30    31    2
    14    28    27    2
    15    14    13    1
    16     6     5    1
    17     6     9    1
    18     5     1    1
    19    21    31    1
    20    21    22    1
    21    31    24    1
    22     4     1    2
    23    13    10    1
    24    27    25    2
    25     1     3    1
    26     1     2    1
    27    22    23    1
    28     9    10    1
    29    24    25    1
    30    24    23    2
    31    12    10    2
    32    10    11    1
    33    25    26    2
