@<TRIPOS>MOLECULE
3rb8_GDP_A_1.pdb
 28 30 0 0 0
SMALL
GASTEIGER

@<TRIPOS>ATOM
      1  PB        15.8320   -4.1750   -5.9270 P.3   400  GDP400      0.5373
      2  O1B       15.8090   -3.0180   -4.9800 O.3   400  GDP400     -0.1143
      3  O2B       14.4460   -4.7570   -5.8950 O.2   400  GDP400     -0.2221
      4  O3B       16.7790   -5.2510   -5.4900 O.3   400  GDP400     -0.1143
      5  O3A       16.2380   -3.7920   -7.4430 O.3   400  GDP400     -0.2261
      6  PA        16.3210   -2.3130   -8.0620 P.3   400  GDP400      0.2231
      7  O1A       17.2840   -1.4450   -7.3030 O.3   400  GDP400     -0.4370
      8  O2A       14.9570   -1.6670   -8.0680 O.2   400  GDP400     -0.5169
      9  O5'       16.9000   -2.5400   -9.5420 O.3   400  GDP400     -0.3111
     10  C5'       16.5270   -3.6480  -10.3580 C.3   400  GDP400      0.1813
     11  C4'       16.7250   -3.3050  -11.8300 C.3   400  GDP400      0.1799
     12  O4'       15.8580   -2.2480  -12.2500 O.3   400  GDP400     -0.3326
     13  C3'       18.1150   -2.8160  -12.1460 C.3   400  GDP400      0.2158
     14  O3'       18.8330   -3.9530  -12.5780 O.3   400  GDP400     -0.2175
     15  C2'       17.8970   -1.8870  -13.3110 C.3   400  GDP400      0.2310
     16  O2'       17.7340   -2.7190  -14.4610 O.3   400  GDP400     -0.2158
     17  C1'       16.5250   -1.2980  -13.1060 C.3   400  GDP400      0.2293
     18  N9        16.3640   -0.0530  -12.3190 N.pl3 400  GDP400     -0.2354
     19  C8        17.0090    0.3010  -11.1920 C.3   400  GDP400      0.2246
     20  N7        16.5210    1.4730  -10.7100 N.2   400  GDP400     -0.2322
     21  C5        15.5130    1.8660  -11.5200 C.2   400  GDP400      0.2182
     22  C6        14.5520    2.9990  -11.5910 C.1   400  GDP400      0.2372
     23  O6        14.5530    3.9130  -10.7400 O.2   400  GDP400     -0.2069
     24  N1        13.6660    3.0140  -12.5950 N.2   400  GDP400     -0.2485
     25  C2        13.6150    2.0480  -13.5330 C.1   400  GDP400      0.2531
     26  N2        12.6820    2.1410  -14.5180 N.pl3 400  GDP400     -0.0226
     27  N3        14.4630    0.9860  -13.5320 N.2   400  GDP400     -0.3074
     28  C4        15.4070    0.8440  -12.5680 C.2   400  GDP400      0.2300
@<TRIPOS>BOND
     1    26    25    1
     2    16    15    1
     3    25    27    2
     4    25    24    2
     5    27    28    2
     6    15    17    1
     7    15    13    1
     8    17    18    1
     9    17    12    1
    10    24    22    2
    11    14    13    1
    12    28    18    1
    13    28    21    1
    14    18    19    1
    15    12    11    1
    16    13    11    1
    17    11    10    1
    18    22    21    1
    19    22    23    2
    20    21    20    2
    21    19    20    1
    22    10     9    1
    23     9     6    1
    24     8     6    2
    25     6     5    1
    26     6     7    1
    27     5     1    1
    28     1     3    2
    29     1     4    1
    30     1     2    1
