@<TRIPOS>MOLECULE
3rba_COD_A_1.pdb
 44 46 0 0 0
SMALL
GASTEIGER

@<TRIPOS>ATOM
      1  N1         1.5970   40.5290   13.1900 N.2   3000  COD3000     0.0021
      2  C2         0.2660   40.6470   13.3690 C.3   3000  COD3000     0.5254
      3  N3        -0.5780   41.0510   12.4040 N.2   3000  COD3000    -0.0055
      4  C4        -0.0930   41.3870   11.1870 C.2   3000  COD3000     0.3518
      5  C5         1.3450   41.3010   10.9240 C.2   3000  COD3000     0.2526
      6  C6         2.2010   40.8400   12.0270 C.2   3000  COD3000     0.4393
      7  N7         3.5400   40.7380   11.8520 N.pl3 3000  COD3000     0.2180
      8  N8         1.5440   41.6850    9.6550 N.2   3000  COD3000    -0.2095
      9  C9         0.3360   41.9890    9.1310 C.3   3000  COD3000     0.3377
     10  N10       -0.6250   41.8190   10.0590 N.pl3 3000  COD3000    -0.1439
     11  C11       -2.0570   42.0430    9.8830 C.3   3000  COD3000     0.3186
     12  C12       -2.3110   43.4610    9.4310 C.3   3000  COD3000     0.2570
     13  O13       -2.4200   44.3260   10.5590 O.3   3000  COD3000    -0.2130
     14  C14       -3.6410   43.3200    8.7390 C.3   3000  COD3000     0.2184
     15  O15       -4.6180   43.5390    9.7560 O.3   3000  COD3000    -0.2174
     16  C16       -3.6790   41.8630    8.2810 C.3   3000  COD3000     0.1821
     17  O17       -2.5390   41.2170    8.8350 O.3   3000  COD3000    -0.3135
     18  C18       -3.5890   41.6790    6.7770 C.3   3000  COD3000     0.1813
     19  O19       -2.4290   42.3480    6.2990 O.3   3000  COD3000    -0.3112
     20  P20       -2.5170   42.8730    4.7950 P.3   3000  COD3000     0.2189
     21  O21       -1.6940   44.1280    4.6310 O.3   3000  COD3000    -0.4371
     22  O22       -2.3110   41.6330    3.9540 O.2   3000  COD3000    -0.5170
     23  O23       -4.0840   43.2400    4.6950 O.3   3000  COD3000    -0.2703
     24  P24       -4.6490   44.6860    4.2530 P.3   3000  COD3000     0.2188
     25  O25       -4.4590   45.6430    5.4080 O.3   3000  COD3000    -0.4371
     26  O26       -4.0900   45.0070    2.8900 O.2   3000  COD3000    -0.5170
     27  O27       -6.2230   44.3920    4.1170 O.3   3000  COD3000    -0.3138
     28  C28       -7.1770   45.4410    3.9640 C.3   3000  COD3000     0.1519
     29  C29       -8.5320   44.8360    3.6310 C.3   3000  COD3000     0.0645
     30  C30       -8.3790   43.9220    2.4260 C.3   3000  COD3000     0.0056
     31  C31       -9.0590   44.0450    4.8210 C.3   3000  COD3000     0.0056
     32  C32       -9.4920   45.9730    3.2830 C.3   3000  COD3000     0.2312
     33  O33       -8.9660   46.6830    2.1590 O.3   3000  COD3000    -0.2131
     34  C34      -10.8620   45.4720    2.9310 C.2   3000  COD3000     0.2719
     35  O35      -11.6550   45.1610    3.7990 O.2   3000  COD3000    -0.2706
     36  N36      -11.1560   45.4100    1.6370 N.am  3000  COD3000    -0.2028
     37  C37      -12.4700   45.0140    1.1630 C.3   3000  COD3000     0.1248
     38  C38      -13.3940   46.1990    0.8820 C.3   3000  COD3000     0.1102
     39  C39      -14.0140   46.7000    2.1700 C.2   3000  COD3000     0.2432
     40  O40      -14.5480   45.9360    2.9590 O.2   3000  COD3000    -0.2733
     41  N41      -13.9500   48.0100    2.3840 N.am  3000  COD3000    -0.2044
     42  C42      -14.6000   48.6130    3.5330 C.3   3000  COD3000     0.1276
     43  C43      -13.6510   48.6950    4.7220 C.3   3000  COD3000     0.0920
     44  S44      -14.5360   49.3690    6.1490 S.3   3000  COD3000    -0.0802
@<TRIPOS>BOND
     1    38    37    1
     2    38    39    1
     3    37    36    1
     4    36    34   am
     5    33    32    1
     6    39    41   am
     7    39    40    2
     8    41    42    1
     9    30    29    1
    10    26    24    2
    11    34    32    1
    12    34    35    2
    13    32    29    1
    14    42    43    1
    15    29    28    1
    16    29    31    1
    17    22    20    2
    18    28    27    1
    19    27    24    1
    20    24    23    1
    21    24    25    1
    22    21    20    1
    23    23    20    1
    24    43    44    1
    25    20    19    1
    26    19    18    1
    27    18    16    1
    28    16    14    1
    29    16    17    1
    30    14    12    1
    31    14    15    1
    32    17    11    1
    33     9     8    1
    34     9    10    1
    35    12    11    1
    36    12    13    1
    37     8     5    2
    38    11    10    1
    39    10     4    1
    40     5     4    1
    41     5     6    1
    42     4     3    2
    43     7     6    1
    44     6     1    2
    45     3     2    1
    46     1     2    1
