@<TRIPOS>MOLECULE
3rbd_DGT_A_1.pdb
 31 33 0 0 0
SMALL
GASTEIGER

@<TRIPOS>ATOM
      1  PG         2.3920    5.2210   -1.3890 P.3   414  DGT414      0.5373
      2  O1G        3.1620    5.8690   -0.2590 O.3   414  DGT414     -0.1143
      3  O2G        1.1420    5.8660   -1.9560 O.2   414  DGT414     -0.2221
      4  O3G        1.4600    4.7480   -0.2920 O.3   414  DGT414     -0.1143
      5  O3B        2.6280    3.6550   -1.7180 O.3   414  DGT414     -0.2258
      6  PB         4.0770    3.3140   -2.3340 P.3   414  DGT414      0.2277
      7  O1B        4.8730    4.4380   -2.9450 O.3   414  DGT414     -0.4368
      8  O2B        3.9230    2.2670   -3.3900 O.2   414  DGT414     -0.5168
      9  O3A        4.7150    2.5920   -1.0650 O.3   414  DGT414     -0.2700
     10  PA         6.0640    3.0720   -0.3930 P.3   414  DGT414      0.2189
     11  O1A        5.9560    2.5210    1.0030 O.3   414  DGT414     -0.4371
     12  O2A        6.2810    4.5760   -0.3720 O.2   414  DGT414     -0.5170
     13  O5'        7.2590    2.3350   -1.1610 O.3   414  DGT414     -0.3112
     14  C5'        7.8500    2.9720   -2.3000 C.3   414  DGT414      0.1812
     15  C4'        8.1440    1.8980   -3.3250 C.3   414  DGT414      0.1772
     16  O4'        9.0040    0.9210   -2.7190 O.3   414  DGT414     -0.3347
     17  C3'        6.9240    1.0920   -3.7320 C.3   414  DGT414      0.1857
     18  O3'        6.1960    1.6810   -4.8110 O.3   414  DGT414     -0.2203
     19  C2'        7.5090   -0.2570   -4.1000 C.3   414  DGT414      0.0865
     20  C1'        8.7290   -0.3870   -3.2000 C.3   414  DGT414      0.1981
     21  N9         8.3330   -1.2540   -2.0790 N.pl3 414  DGT414     -0.2374
     22  C8         7.6750   -0.9010   -0.9120 C.3   414  DGT414      0.2245
     23  N7         7.4440   -1.9030   -0.1080 N.2   414  DGT414     -0.2322
     24  C5         7.9930   -2.9840   -0.7830 C.2   414  DGT414      0.2182
     25  C6         8.0550   -4.3590   -0.4410 C.1   414  DGT414      0.2372
     26  O6         7.6350   -4.9100    0.5760 O.2   414  DGT414     -0.2069
     27  N1         8.7100   -5.1260   -1.4040 N.2   414  DGT414     -0.2485
     28  C2         9.2280   -4.6500   -2.5760 C.1   414  DGT414      0.2531
     29  N2         9.8100   -5.5230   -3.3820 N.pl3 414  DGT414     -0.0226
     30  N3         9.1640   -3.3560   -2.9020 N.2   414  DGT414     -0.3074
     31  C4         8.5430   -2.5970   -1.9810 C.2   414  DGT414      0.2299
@<TRIPOS>BOND
     1    18    17    1
     2    19    17    1
     3    19    20    1
     4    17    15    1
     5     8     6    2
     6    29    28    1
     7    15    16    1
     8    15    14    1
     9    20    16    1
    10    20    21    1
    11     7     6    1
    12    30    28    2
    13    30    31    2
    14    28    27    2
    15     6     5    1
    16     6     9    1
    17    14    13    1
    18    21    31    1
    19    21    22    1
    20    31    24    1
    21     3     1    2
    22     5     1    1
    23    27    25    2
    24     1     4    1
    25     1     2    1
    26    13    10    1
    27     9    10    1
    28    22    23    1
    29    24    25    1
    30    24    23    2
    31    25    26    2
    32    10    12    2
    33    10    11    1
