@<TRIPOS>MOLECULE
3rbe_DGT_A_1.pdb
 31 33 0 0 0
SMALL
GASTEIGER

@<TRIPOS>ATOM
      1  PG         2.3440    5.1010   -1.1970 P.3   414  DGT414      0.5373
      2  O1G        3.3840    5.4950   -0.1490 O.3   414  DGT414     -0.1143
      3  O2G        1.0340    5.8890   -1.2140 O.2   414  DGT414     -0.2221
      4  O3G        1.6750    4.2620   -0.1160 O.3   414  DGT414     -0.1143
      5  O3B        2.4560    3.6570   -1.9300 O.3   414  DGT414     -0.2258
      6  PB         3.9940    3.3400   -2.2430 P.3   414  DGT414      0.2277
      7  O1B        4.6360    4.4560   -3.0570 O.2   414  DGT414     -0.5168
      8  O2B        4.1070    2.0410   -3.0060 O.3   414  DGT414     -0.4368
      9  O3A        4.5660    3.2110   -0.7360 O.3   414  DGT414     -0.2700
     10  PA         6.1360    3.2690   -0.3930 P.3   414  DGT414      0.2189
     11  O1A        6.2650    2.6130    0.9530 O.3   414  DGT414     -0.4371
     12  O2A        6.5870    4.7120   -0.4300 O.2   414  DGT414     -0.5170
     13  O5'        7.0560    2.3790   -1.3520 O.3   414  DGT414     -0.3112
     14  C5'        7.7710    2.9700   -2.4290 C.3   414  DGT414      0.1812
     15  C4'        8.1120    1.8300   -3.3560 C.3   414  DGT414      0.1772
     16  O4'        8.9060    0.8650   -2.6550 O.3   414  DGT414     -0.3347
     17  C3'        6.8680    1.0580   -3.7830 C.3   414  DGT414      0.1857
     18  O3'        6.2440    1.6200   -4.9410 O.3   414  DGT414     -0.2203
     19  C2'        7.3970   -0.3400   -4.0570 C.3   414  DGT414      0.0865
     20  C1'        8.5960   -0.4610   -3.1270 C.3   414  DGT414      0.1981
     21  N9         8.2300   -1.3270   -2.0040 N.pl3 414  DGT414     -0.2374
     22  C8         7.6520   -0.9440   -0.8300 C.3   414  DGT414      0.2245
     23  N7         7.4510   -1.9300    0.0070 N.2   414  DGT414     -0.2322
     24  C5         7.9500   -3.0420   -0.6610 C.2   414  DGT414      0.2182
     25  C6         8.0200   -4.4100   -0.2810 C.1   414  DGT414      0.2372
     26  O6         7.6200   -4.9240    0.7750 O.2   414  DGT414     -0.2069
     27  N1         8.5900   -5.2110   -1.2660 N.2   414  DGT414     -0.2485
     28  C2         9.0590   -4.7740   -2.4850 C.1   414  DGT414      0.2531
     29  N2         9.5730   -5.6530   -3.3580 N.pl3 414  DGT414     -0.0226
     30  N3         8.9780   -3.4960   -2.8220 N.2   414  DGT414     -0.3074
     31  C4         8.4190   -2.6830   -1.8960 C.2   414  DGT414      0.2299
@<TRIPOS>BOND
     1    18    17    1
     2    19    17    1
     3    19    20    1
     4    17    15    1
     5    29    28    1
     6    15    16    1
     7    15    14    1
     8    20    16    1
     9    20    21    1
    10     7     6    2
    11     8     6    1
    12    30    28    2
    13    30    31    2
    14    28    27    2
    15    14    13    1
    16     6     5    1
    17     6     9    1
    18    21    31    1
    19    21    22    1
    20     5     1    1
    21    31    24    1
    22    13    10    1
    23    27    25    2
    24     3     1    2
    25     1     2    1
    26     1     4    1
    27    22    23    1
    28     9    10    1
    29    24    25    1
    30    24    23    2
    31    12    10    2
    32    10    11    1
    33    25    26    2
