@<TRIPOS>MOLECULE
3rbf_PLP_A_1.pdb
 16 16 0 0 0
SMALL
GASTEIGER

@<TRIPOS>ATOM
      1  N1       -50.5350  -26.8450  -18.6740 N.ar  481  PLP481     -0.2452
      2  C2       -51.3360  -27.8700  -18.1980 C.ar  481  PLP481      0.0982
      3  C2A      -51.3400  -28.2230  -16.7380 C.3   481  PLP481      0.0555
      4  C3       -52.1450  -28.5790  -19.0820 C.ar  481  PLP481      0.2120
      5  O3       -52.9480  -29.5830  -18.6050 O.3   481  PLP481     -0.2852
      6  C4       -52.1330  -28.2640  -20.4420 C.ar  481  PLP481      0.0822
      7  C4A      -53.0280  -28.9880  -21.4070 C.2   481  PLP481      0.2372
      8  O4A      -53.4720  -28.3460  -22.3930 O.2   481  PLP481     -0.2830
      9  C5       -51.3290  -27.2330  -20.9180 C.ar  481  PLP481      0.0333
     10  C6       -50.5280  -26.5250  -20.0200 C.ar  481  PLP481      0.0969
     11  C5A      -51.3280  -26.8780  -22.4010 C.3   481  PLP481      0.1819
     12  O4P      -52.6290  -26.5390  -22.8610 O.3   481  PLP481     -0.2653
     13  P        -52.8690  -26.1690  -24.4190 P.3   481  PLP481      0.5329
     14  O1P      -53.2000  -27.4510  -25.1610 O.2   481  PLP481     -0.2224
     15  O2P      -51.5890  -25.5550  -24.9300 O.3   481  PLP481     -0.1145
     16  O3P      -54.0050  -25.1880  -24.6350 O.3   481  PLP481     -0.1145
@<TRIPOS>BOND
     1    14    13    2
     2    15    13    1
     3    16    13    1
     4    13    12    1
     5    12    11    1
     6    11     9    1
     7     8     7    2
     8     7     6    1
     9     9     6   ar
    10     9    10   ar
    11     6     4   ar
    12    10     1   ar
    13     4     5    1
    14     4     2   ar
    15     1     2   ar
    16     2     3    1
