@<TRIPOS>MOLECULE
3rbh_C8E_A_1.pdb
 13 12 0 0 0
SMALL
GASTEIGER

@<TRIPOS>ATOM
      1  C1       -21.5490   -8.5670  -38.1780 C.3   494  C8E494      0.0000
      2  C2       -23.0330   -8.2850  -37.9750 C.3   494  C8E494      0.0000
      3  C3       -23.3060   -6.8240  -37.6250 C.3   494  C8E494      0.0000
      4  C4       -24.7840   -6.4900  -37.8250 C.3   494  C8E494      0.0000
      5  C5       -25.3430   -5.6400  -36.6900 C.3   494  C8E494      0.0001
      6  C6       -26.2400   -6.4680  -35.7760 C.3   494  C8E494      0.0026
      7  C7       -27.2550   -5.5920  -35.0510 C.3   494  C8E494      0.0321
      8  C8       -26.9380   -5.4360  -33.5650 C.3   494  C8E494      0.1423
      9  O9       -27.8060   -6.1980  -32.7470 O.3   494  C8E494     -0.3511
     10  C10      -27.7030   -5.7970  -31.3910 C.3   494  C8E494      0.1741
     11  C11      -29.0000   -6.0920  -30.6410 C.3   494  C8E494      0.1742
     12  O12      -29.1780   -5.1980  -29.5660 O.3   494  C8E494     -0.3484
     13  C13      -30.3930   -4.4920  -29.6820 C.3   494  C8E494      0.1742
@<TRIPOS>BOND
     1     1     2    1
     2     2     3    1
     3     4     3    1
     4     4     5    1
     5     5     6    1
     6     6     7    1
     7     7     8    1
     8     8     9    1
     9     9    10    1
    10    10    11    1
    11    11    12    1
    12    13    12    1
