@<TRIPOS>MOLECULE
3rbm_B73_A_1.pdb
 27 27 0 0 0
SMALL
GASTEIGER

@<TRIPOS>ATOM
      1  CAA      -32.4000   10.7370   -5.4540 C.3   2001  B732001     0.0000
      2  OAB      -40.2220    8.3240  -22.1210 O.2   2001  B732001    -0.4596
      3  OAC      -40.7580   10.8510  -21.3370 O.2   2001  B732001    -0.4596
      4  OAD      -37.8050    7.4990  -21.7210 O.3   2001  B732001    -0.3568
      5  OAE      -39.5720    7.1610  -19.8250 O.3   2001  B732001    -0.3568
      6  OAF      -40.3130   10.7300  -18.7390 O.3   2001  B732001    -0.3568
      7  OAG      -38.9400   12.3560  -20.1470 O.3   2001  B732001    -0.3568
      8  CAH      -35.3230   12.6680  -19.2940 C.3   2001  B732001     0.0907
      9  CAI      -35.8100   11.7900  -20.1710 C.3   2001  B732001     0.0907
     10  CAJ      -36.3890   11.0630  -18.1830 C.3   2001  B732001     0.1494
     11  CAK      -33.5750    9.9220   -6.0280 C.3   2001  B732001     0.0000
     12  CAL      -34.6850   10.8280   -6.5790 C.3   2001  B732001     0.0000
     13  CAM      -34.6590   10.8990   -8.1080 C.3   2001  B732001     0.0000
     14  CAN      -33.8250   12.0920   -8.5630 C.3   2001  B732001     0.0000
     15  CAO      -33.5260   12.0540  -10.0630 C.3   2001  B732001     0.0000
     16  CAP      -34.7720   12.5070  -10.7830 C.3   2001  B732001     0.0000
     17  CAQ      -34.4190   13.1280  -12.1350 C.3   2001  B732001     0.0000
     18  CAR      -35.0860   12.3160  -13.2410 C.3   2001  B732001     0.0000
     19  CAS      -34.4020   12.6400  -14.5640 C.3   2001  B732001     0.0014
     20  CAT      -35.0820   11.8850  -15.6980 C.3   2001  B732001     0.0174
     21  CAU      -35.2200   12.8520  -16.8560 C.3   2001  B732001     0.0734
     22  CAV      -37.1010    9.7300  -20.1550 C.3   2001  B732001     0.0879
     23  CAW      -38.6210    9.5070  -20.0490 C.3   2001  B732001     0.1198
     24  NAX      -35.5430   12.1200  -18.0910 N.3   2001  B732001    -0.2576
     25  NAY      -36.6000   10.9300  -19.4920 N.3   2001  B732001    -0.2567
     26  PAZ      -39.1730    8.1260  -21.0850 P.3   2001  B732001     0.1250
     27  PBA      -39.7440   10.9070  -20.2580 P.3   2001  B732001     0.1250
@<TRIPOS>BOND
     1     2    26    2
     2     4    26    1
     3     3    27    2
     4    26    23    1
     5    26     5    1
     6    27     7    1
     7    27    23    1
     8    27     6    1
     9     9    25    1
    10     9     8    1
    11    22    23    1
    12    22    25    1
    13    25    10    1
    14     8    24    1
    15    10    24    1
    16    24    21    1
    17    21    20    1
    18    20    19    1
    19    19    18    1
    20    18    17    1
    21    17    16    1
    22    16    15    1
    23    15    14    1
    24    14    13    1
    25    13    12    1
    26    12    11    1
    27    11     1    1
