@<TRIPOS>MOLECULE
3rbo_ADP_A_1.pdb
 27 29 0 0 0
SMALL
GASTEIGER

@<TRIPOS>ATOM
      1  PB        23.2040   29.0340   78.6930 P.3   700  ADP700      0.5373
      2  O1B       23.3500   30.4060   78.1790 O.3   700  ADP700     -0.1143
      3  O2B       24.5330   28.1700   78.3810 O.3   700  ADP700     -0.1143
      4  O3B       21.9870   28.2970   78.0010 O.2   700  ADP700     -0.2221
      5  PA        21.8950   30.1760   80.8320 P.3   700  ADP700      0.2231
      6  O1A       22.4330   31.5320   80.6240 O.3   700  ADP700     -0.4370
      7  O2A       20.4690   30.0260   80.0770 O.2   700  ADP700     -0.5169
      8  O3A       22.9610   29.0300   80.3020 O.3   700  ADP700     -0.2261
      9  O5'       21.6340   29.8660   82.4060 O.3   700  ADP700     -0.3111
     10  C5'       20.7650   30.8820   82.8870 C.3   700  ADP700      0.1813
     11  C4'       20.3960   30.6660   84.3410 C.3   700  ADP700      0.1821
     12  O4'       21.5420   30.4920   85.2080 O.3   700  ADP700     -0.3135
     13  C3'       19.5540   31.8850   84.7870 C.3   700  ADP700      0.2184
     14  O3'       18.2180   31.5410   85.1770 O.3   700  ADP700     -0.2174
     15  C2'       20.3910   32.5360   85.9150 C.3   700  ADP700      0.2570
     16  O2'       19.6240   32.6910   87.1340 O.3   700  ADP700     -0.2130
     17  C1'       21.6580   31.6260   86.1030 C.3   700  ADP700      0.3186
     18  N9        22.9060   32.3470   85.8040 N.pl3 700  ADP700     -0.1439
     19  C8        23.3730   32.7520   84.5840 C.3   700  ADP700      0.3377
     20  N7        24.5250   33.3660   84.7190 N.2   700  ADP700     -0.2095
     21  C5        24.8520   33.4010   86.0350 C.2   700  ADP700      0.2526
     22  C6        25.9580   33.9070   86.7900 C.2   700  ADP700      0.4393
     23  N6        27.0140   34.5780   86.1760 N.pl3 700  ADP700      0.2180
     24  N1        25.9390   33.7430   88.1400 N.2   700  ADP700      0.0021
     25  C2        24.9440   33.1090   88.7600 C.3   700  ADP700      0.5254
     26  N3        23.9070   32.6180   88.0910 N.2   700  ADP700     -0.0055
     27  C4        23.8210   32.7290   86.7480 C.2   700  ADP700      0.3518
@<TRIPOS>BOND
     1     4     1    2
     2     2     1    1
     3     3     1    1
     4     1     8    1
     5     7     5    2
     6     8     5    1
     7     6     5    1
     8     5     9    1
     9     9    10    1
    10    10    11    1
    11    11    13    1
    12    11    12    1
    13    19    20    1
    14    19    18    1
    15    20    21    2
    16    13    14    1
    17    13    15    1
    18    12    17    1
    19    18    17    1
    20    18    27    1
    21    15    17    1
    22    15    16    1
    23    21    27    1
    24    21    22    1
    25    23    22    1
    26    27    26    2
    27    22    24    2
    28    26    25    1
    29    24    25    1
