@<TRIPOS>MOLECULE
3rbq_III_I_1.pdb
 31 30 0 0 0
SMALL
GASTEIGER

@<TRIPOS>ATOM
      1  O1        43.9260   12.2340   -8.1890 O.2   500  DAO500     -0.2733
      2  C1        45.0050   12.6650   -8.6090 C.2   500  DAO500      0.2418
      3  C2        46.0270   11.8500   -9.3900 C.3   500  DAO500      0.0868
      4  C3        46.1550   10.3970   -8.9750 C.3   500  DAO500      0.0096
      5  C4        47.1770    9.7580   -9.9090 C.3   500  DAO500      0.0005
      6  C5        47.5200    8.3600   -9.4170 C.3   500  DAO500      0.0000
      7  C6        48.4950    7.6760  -10.3960 C.3   500  DAO500      0.0000
      8  C7        49.9580    8.1150  -10.1210 C.3   500  DAO500      0.0000
      9  C8        50.9550    7.2490  -10.8110 C.3   500  DAO500      0.0000
     10  C9        52.4280    7.6580  -10.5820 C.3   500  DAO500      0.0000
     11  C10       52.9730    7.6420   -9.1640 C.3   500  DAO500      0.0000
     12  C11       54.4940    7.8560   -9.2960 C.3   500  DAO500      0.0000
     13  C12       55.2580    7.1760   -8.1650 C.3   500  DAO500      0.0000
     14  N         45.3850   14.0650   -8.5300 N.am  501  GLY501     -0.1954
     15  CA        44.4300   14.9420   -7.8170 C.3   501  GLY501      0.2013
     16  C         43.1210   15.1530   -8.5230 C.2   501  GLY501      0.2639
     17  O         42.1330   15.5830   -7.8670 O.2   501  GLY501     -0.2714
     18  N         43.0900   14.8480   -9.8190 N.am  502  ALA502     -0.1963
     19  CA        41.8420   14.9080  -10.6000 C.3   502  ALA502      0.1728
     20  C         40.7650   13.9360  -10.0520 C.2   502  ALA502      0.2617
     21  O         39.5550   14.1800  -10.1740 O.2   502  ALA502     -0.2715
     22  CB        42.1240   14.6680  -12.1320 C.3   502  ALA502      0.0334
     23  N         41.2030   12.8670   -9.4060 N.am  503  GLY503     -0.1940
     24  CA        40.2570   12.0000   -8.6740 C.3   503  GLY503      0.2014
     25  C         39.4510   12.6720   -7.5250 C.2   503  GLY503      0.2638
     26  O         38.4570   12.1270   -7.1120 O.2   503  GLY503     -0.2714
     27  N         39.8300   13.8350   -7.0340 N.am  504  ALA504     -0.1977
     28  CA        39.0650   14.4340   -5.9540 C.3   504  ALA504      0.1597
     29  C         37.7100   15.0400   -6.4440 C.2   504  ALA504      0.2287
     30  O         36.7260   14.8450   -5.7200 O.2   504  ALA504     -0.2864
     31  CB        39.8650   15.4630   -5.2630 C.3   504  ALA504      0.0319
@<TRIPOS>BOND
     1    22    19    1
     2     9    10    1
     3     9     8    1
     4    19    20    1
     5    19    18    1
     6    10    11    1
     7     7     8    1
     8     7     6    1
     9    21    20    2
    10    20    23   am
    11     5     6    1
    12     5     4    1
    13    18    16   am
    14    23    24    1
    15     3     4    1
    16     3     2    1
    17    12    11    1
    18    12    13    1
    19    24    25    1
    20     2    14   am
    21     2     1    2
    22    14    15    1
    23    16    17    2
    24    16    15    1
    25    25    26    2
    26    25    27   am
    27    27    28    1
    28    29    28    1
    29    29    30    2
    30    28    31    1
