@<TRIPOS>MOLECULE
3rbu_G88_A_1.pdb
 14 13 0 0 0
SMALL
GASTEIGER

@<TRIPOS>ATOM
      1  O6       -37.4720   18.3070   39.8580 O.co2 1800  G881800    -0.2457
      2  C6       -36.6850   17.6860   39.0960 C.2   1800  G881800     0.3649
      3  O7       -36.6890   16.4160   39.0090 O.co2 1800  G881800    -0.2457
      4  C5       -35.8390   18.4320   38.3800 C.3   1800  G881800     0.1146
      5  C4       -35.9700   19.9870   38.4110 C.3   1800  G881800     0.0235
      6  C2       -34.7070   20.6380   37.8050 C.3   1800  G881800     0.1112
      7  C3       -33.6330   20.5090   38.8410 C.2   1800  G881800     0.3648
      8  O5       -33.6840   21.2680   39.8520 O.co2 1800  G881800    -0.2457
      9  O4       -32.7150   19.6550   38.6640 O.co2 1800  G881800    -0.2457
     10  C1       -34.1740   20.1830   36.3760 C.3   1800  G881800     0.0702
     11  P1       -33.0120   21.5630   35.7480 P.3   1800  G881800     0.1177
     12  O2       -32.5450   22.3330   36.9730 O.3   1800  G881800    -0.3571
     13  O3       -31.6630   21.0830   35.2560 O.3   1800  G881800    -0.3571
     14  O1       -33.7770   22.6610   34.9530 O.2   1800  G881800    -0.4601
@<TRIPOS>BOND
     1    14    11    2
     2    13    11    1
     3    11    10    1
     4    11    12    1
     5    10     6    1
     6     6     5    1
     7     6     7    1
     8     4     5    1
     9     4     2    1
    10     9     7   ar
    11     7     8   ar
    12     3     2   ar
    13     2     1   ar
