@<TRIPOS>MOLECULE
3rbv_NAP_A_1.pdb
 48 52 0 0 0
SMALL
GASTEIGER

@<TRIPOS>ATOM
      1  PA        10.7520  -30.4850  -27.3190 P.3   334  NAP334      0.2189
      2  O1A       10.9560  -31.9850  -27.4230 O.2   334  NAP334     -0.5170
      3  O2A       11.7680  -29.4110  -27.0610 O.3   334  NAP334     -0.4371
      4  O5B       10.0630  -30.1070  -28.7300 O.3   334  NAP334     -0.3112
      5  C5B        9.8120  -28.7640  -29.1450 C.3   334  NAP334      0.1813
      6  C4B       10.1120  -28.7480  -30.6510 C.3   334  NAP334      0.1820
      7  O4B        9.9280  -27.3980  -31.0830 O.3   334  NAP334     -0.3136
      8  C3B       11.5320  -29.1430  -31.0330 C.3   334  NAP334      0.2157
      9  O3B       11.5740  -30.5200  -31.4240 O.3   334  NAP334     -0.2175
     10  C2B       11.8400  -28.2650  -32.2450 C.3   334  NAP334      0.2314
     11  O2B       11.3280  -28.8510  -33.4360 O.3   334  NAP334     -0.2630
     12  C1B       10.8980  -27.0790  -32.0750 C.3   334  NAP334      0.3158
     13  N9A       11.5530  -25.7600  -31.9000 N.pl3 334  NAP334     -0.1439
     14  C8A       11.3630  -24.6650  -32.6500 C.3   334  NAP334      0.3377
     15  N7A       12.1520  -23.6740  -32.1840 N.2   334  NAP334     -0.2095
     16  C5A       12.8420  -24.1600  -31.1340 C.2   334  NAP334      0.2526
     17  C6A       13.8070  -23.6380  -30.2850 C.2   334  NAP334      0.4393
     18  N6A       14.2180  -22.3550  -30.4350 N.pl3 334  NAP334      0.2180
     19  N1A       14.3040  -24.4390  -29.3110 N.2   334  NAP334      0.0021
     20  C2A       13.9120  -25.7160  -29.1600 C.3   334  NAP334      0.5254
     21  N3A       12.9860  -26.2540  -29.9750 N.2   334  NAP334     -0.0055
     22  C4A       12.4560  -25.4820  -30.9530 C.2   334  NAP334      0.3518
     23  O3         9.6350  -30.1340  -26.1980 O.3   334  NAP334     -0.2703
     24  PN         8.4080  -31.0190  -25.5890 P.3   334  NAP334      0.2189
     25  O1N        7.9920  -32.1450  -26.5180 O.2   334  NAP334     -0.5170
     26  O2N        8.8340  -31.4430  -24.2000 O.3   334  NAP334     -0.4371
     27  O5D        7.3690  -29.8040  -25.2820 O.3   334  NAP334     -0.3112
     28  C5D        6.5900  -29.2890  -26.3640 C.3   334  NAP334      0.1813
     29  C4D        5.3360  -28.6400  -25.7950 C.3   334  NAP334      0.1799
     30  O4D        4.7320  -29.6830  -25.0310 O.3   334  NAP334     -0.3327
     31  C3D        5.5610  -27.4660  -24.8350 C.3   334  NAP334      0.2158
     32  O3D        4.3560  -26.6970  -24.9810 O.3   334  NAP334     -0.2175
     33  C2D        5.6530  -28.1580  -23.4750 C.3   334  NAP334      0.2309
     34  O2D        5.0360  -27.4460  -22.3980 O.3   334  NAP334     -0.2158
     35  C1D        4.6950  -29.3340  -23.6390 C.3   334  NAP334      0.2263
     36  N1N        4.9990  -30.4370  -22.7130 N.pl3 334  NAP334     -0.2787
     37  C2N        5.5780  -31.5140  -23.2710 C.3   334  NAP334      0.1244
     38  C3N        5.9100  -32.6110  -22.4820 C.2   334  NAP334      0.0544
     39  C7N        6.5840  -33.8210  -23.0790 C.2   334  NAP334      0.2818
     40  O7N        6.0080  -34.8400  -22.7220 O.2   334  NAP334     -0.2670
     41  N7N        7.6740  -33.8290  -23.8590 N.am  334  NAP334     -0.0839
     42  C4N        5.6060  -32.5650  -21.1180 C.2   334  NAP334      0.0033
     43  C5N        4.9640  -31.4470  -20.5830 C.2   334  NAP334      0.0157
     44  C6N        4.6720  -30.3590  -21.4010 C.2   334  NAP334      0.0633
     45  P2B       12.2400  -28.8680  -34.7720 P.3   334  NAP334      0.5328
     46  O1X       11.8670  -30.1680  -35.4610 O.3   334  NAP334     -0.1145
     47  O2X       13.6250  -28.7490  -34.2020 O.3   334  NAP334     -0.1145
     48  O3X       11.8080  -27.5990  -35.4680 O.2   334  NAP334     -0.2224
@<TRIPOS>BOND
     1    48    45    2
     2    46    45    1
     3    45    47    1
     4    45    11    1
     5    11    10    1
     6    14    15    1
     7    14    13    1
     8    10    12    1
     9    10     8    1
    10    15    16    2
    11    12    13    1
    12    12     7    1
    13    13    22    1
    14     9     8    1
    15    16    22    1
    16    16    17    1
    17     7     6    1
    18     8     6    1
    19    22    21    2
    20     6     5    1
    21    18    17    1
    22    17    19    2
    23    21    20    1
    24    19    20    1
    25     5     4    1
    26     4     1    1
    27     2     1    2
    28     1     3    1
    29     1    23    1
    30    25    24    2
    31    28    29    1
    32    28    27    1
    33    23    24    1
    34    29    30    1
    35    29    31    1
    36    24    27    1
    37    24    26    1
    38    30    35    1
    39    32    31    1
    40    31    33    1
    41    41    39   am
    42    35    33    1
    43    35    36    1
    44    33    34    1
    45    37    36    1
    46    37    38    1
    47    39    40    2
    48    39    38    1
    49    36    44    1
    50    38    42    2
    51    44    43    2
    52    42    43    1
