@<TRIPOS>MOLECULE
3rc0_SAM_A_1.pdb
 27 29 0 0 0
SMALL
GASTEIGER

@<TRIPOS>ATOM
      1  N         12.7430   14.7350  -28.8060 N.3   484  SAM484     -0.1208
      2  CA        13.3330   15.8540  -28.0910 C.3   484  SAM484      0.1952
      3  C         14.3260   16.5750  -29.0000 C.2   484  SAM484      0.3819
      4  O         14.4040   16.2810  -30.2000 O.co2 484  SAM484     -0.2441
      5  OXT       15.0660   17.4640  -28.5670 O.co2 484  SAM484     -0.2441
      6  CB        13.9780   15.3790  -26.7880 C.3   484  SAM484      0.0414
      7  CG        13.0460   15.3210  -25.5740 C.3   484  SAM484      0.0503
      8  SD        12.6790   16.9510  -24.8490 S.3   484  SAM484     -0.1761
      9  CE        13.1100   16.6840  -23.1010 C.3   484  SAM484      0.0590
     10  C5'       10.8690   17.0170  -24.7610 C.3   484  SAM484      0.0806
     11  C4'       10.2300   17.2700  -26.1220 C.3   484  SAM484      0.1622
     12  O4'       10.3410   16.0900  -26.9000 O.3   484  SAM484     -0.3153
     13  C3'        8.7520   17.5910  -26.0430 C.3   484  SAM484      0.2168
     14  O3'        8.5190   18.9800  -25.9880 O.3   484  SAM484     -0.2175
     15  C2'        8.2070   16.9720  -27.3100 C.3   484  SAM484      0.2569
     16  O2'        8.4120   17.8310  -28.4040 O.3   484  SAM484     -0.2130
     17  C1'        9.1230   15.7980  -27.5520 C.3   484  SAM484      0.3185
     18  N9         8.5690   14.5290  -27.0270 N.pl3 484  SAM484     -0.1439
     19  C8         8.9160   13.8960  -25.8640 C.3   484  SAM484      0.3377
     20  N7         8.1900   12.7650  -25.7550 N.2   484  SAM484     -0.2095
     21  C5         7.3760   12.6660  -26.8270 C.2   484  SAM484      0.2526
     22  C6         6.4340   11.7230  -27.2190 C.2   484  SAM484      0.4393
     23  N6         6.1740   10.6450  -26.4850 N.pl3 484  SAM484      0.2180
     24  N1         5.7520   11.9140  -28.3950 N.2   484  SAM484      0.0021
     25  C2         6.0000   13.0210  -29.1770 C.3   484  SAM484      0.5254
     26  N3         6.9310   13.9470  -28.7820 N.2   484  SAM484     -0.0055
     27  C4         7.6100   13.7710  -27.6320 C.2   484  SAM484      0.3518
@<TRIPOS>BOND
     1     4     3   ar
     2    25    26    1
     3    25    24    1
     4     3     5   ar
     5     3     2    1
     6     1     2    1
     7    26    27    2
     8    16    15    1
     9    24    22    2
    10     2     6    1
    11    27    18    1
    12    27    21    1
    13    17    15    1
    14    17    18    1
    15    17    12    1
    16    15    13    1
    17    22    21    1
    18    22    23    1
    19    18    19    1
    20    12    11    1
    21    21    20    2
    22     6     7    1
    23    11    13    1
    24    11    10    1
    25    13    14    1
    26    19    20    1
    27     7     8    1
    28     8    10    1
    29     8     9    1
