@<TRIPOS>MOLECULE
3rc0_III_P_1.pdb
 43 43 0 0 0
SMALL
GASTEIGER

@<TRIPOS>ATOM
      1  N         11.0290   26.9270   -9.7080 N.3   307  GLU307     -0.1231
      2  CA        10.2430   25.6980   -9.8380 C.3   307  GLU307      0.1694
      3  C         10.0770   25.2780  -11.3080 C.2   307  GLU307      0.2593
      4  O          9.3330   25.9100  -12.0500 O.2   307  GLU307     -0.2718
      5  CB         8.8790   25.8750   -9.1660 C.3   307  GLU307      0.0304
      6  N         10.7470   24.1950  -11.7140 N.am  308  THR308     -0.1942
      7  CA        10.9350   23.8910  -13.1320 C.3   308  THR308      0.2014
      8  C         10.3100   22.6560  -13.7730 C.2   308  THR308      0.2639
      9  O         10.7650   22.2050  -14.8410 O.2   308  THR308     -0.2714
     10  N          9.2860   22.1050  -13.1210 N.am  309  PHE309     -0.1959
     11  CA         8.4210   21.0810  -13.7260 C.3   309  PHE309      0.1771
     12  C          8.9480   19.6350  -13.6940 C.2   309  PHE309      0.2619
     13  O          8.7050   18.8870  -12.7310 O.2   309  PHE309     -0.2715
     14  CB         8.0690   21.4690  -15.1680 C.3   309  PHE309      0.0574
     15  CG         6.6940   21.0500  -15.5800 C.ar  309  PHE309     -0.0200
     16  CD1        5.5790   21.5360  -14.9030 C.ar  309  PHE309     -0.0042
     17  CD2        6.5080   20.1810  -16.6410 C.ar  309  PHE309     -0.0042
     18  CE1        4.2970   21.1580  -15.2800 C.ar  309  PHE309     -0.0003
     19  CE2        5.2350   19.7980  -17.0230 C.ar  309  PHE309     -0.0003
     20  CZ         4.1250   20.2860  -16.3410 C.ar  309  PHE309     -0.0000
     21  N          9.6410   19.2500  -14.7670 N.am  310  LYS310     -0.1963
     22  CA        10.1740   17.8920  -14.9240 C.3   310  LYS310      0.1728
     23  C         11.2460   17.5940  -13.8680 C.2   310  LYS310      0.2617
     24  O         12.3400   18.1480  -13.8940 O.2   310  LYS310     -0.2715
     25  CB        10.7490   17.7340  -16.3270 C.3   310  LYS310      0.0311
     26  CG        11.0810   16.3210  -16.7520 C.3   310  LYS310      0.0038
     27  CD        11.9850   16.3400  -17.9780 C.3   310  LYS310      0.0206
     28  CE        11.3890   17.1280  -19.1380 C.3   310  LYS310      0.1093
     29  NZ        11.1110   18.5520  -18.8110 N.3   310  LYS310     -0.1314
     30  N         10.9200   16.7000  -12.9450 N.am  311  SER311     -0.1936
     31  CA        11.7720   16.4450  -11.7910 C.3   311  SER311      0.2055
     32  C         12.6520   15.1960  -11.9410 C.2   311  SER311      0.2642
     33  O         13.8720   15.2690  -11.7500 O.2   311  SER311     -0.2714
     34  CB        10.9120   16.3560  -10.5200 C.3   311  SER311      0.2130
     35  OG        11.6770   15.8960   -9.4170 O.3   311  SER311     -0.2179
     36  N         12.0210   14.0710  -12.2950 N.am  312  ILE312     -0.1977
     37  CA        12.6650   12.7470  -12.3460 C.3   312  ILE312      0.1596
     38  C         13.6070   12.4920  -11.1600 C.2   312  ILE312      0.2287
     39  O         13.1790   12.0900  -10.0730 O.2   312  ILE312     -0.2864
     40  CB        13.4280   12.4920  -13.6850 C.3   312  ILE312      0.0276
     41  CG1       13.2280   13.6500  -14.6700 C.3   312  ILE312      0.0022
     42  CG2       13.0650   11.1100  -14.2700 C.3   312  ILE312      0.0022
     43  CD1       12.1810   13.4270  -15.7350 C.3   312  ILE312      0.0001
@<TRIPOS>BOND
     1    28    29    1
     2    28    27    1
     3    27    26    1
     4    19    17   ar
     5    19    20   ar
     6    26    25    1
     7    17    15   ar
     8    20    18   ar
     9    25    22    1
    10    43    41    1
    11    15    14    1
    12    15    16   ar
    13    18    16   ar
    14    14    11    1
    15    22    21    1
    16    22    23    1
    17     9     8    2
    18    21    12   am
    19    41    40    1
    20    42    40    1
    21    24    23    2
    22    23    30   am
    23     8     7    1
    24     8    10   am
    25    11    12    1
    26    11    10    1
    27    12    13    2
    28    40    37    1
    29     7     6    1
    30    30    31    1
    31    37    36    1
    32    37    38    1
    33    36    32   am
    34     4     3    2
    35    32    31    1
    36    32    33    2
    37    31    34    1
    38     6     3   am
    39     3     2    1
    40    38    39    2
    41    34    35    1
    42     2     1    1
    43     2     5    1
