@<TRIPOS>MOLECULE
3rc1_TLO_A_1.pdb
 31 33 0 0 0
SMALL
GASTEIGER

@<TRIPOS>ATOM
      1  N1        45.8470   11.3670  -15.8470 N.am  334  TLO334     -0.1794
      2  C2        46.4970   10.9060  -14.7630 C.1   334  TLO334      0.2844
      3  O2        47.5450   11.5310  -14.4030 O.2   334  TLO334     -0.1918
      4  N3        46.0690    9.8010  -14.1070 N.2   334  TLO334     -0.2455
      5  C4        44.9280    9.2020  -14.5360 C.1   334  TLO334      0.2134
      6  O4        44.5260    8.2140  -13.9020 O.2   334  TLO334     -0.2088
      7  C5        44.2340    9.6440  -15.6560 C.2   334  TLO334      0.0891
      8  C6        44.7380   10.7600  -16.3120 C.2   334  TLO334      0.0877
      9  PA        41.8180   12.8240  -18.5250 P.3   334  TLO334      0.2197
     10  PB        41.5620   14.3630  -21.0490 P.3   334  TLO334      0.2746
     11  CG        41.8860   16.7960  -20.1960 C.ar  334  TLO334      0.1446
     12  CZ        43.1210   18.5650  -18.5370 C.ar  334  TLO334      0.0002
     13  C1'       46.3660   12.5570  -16.5190 C.3   334  TLO334      0.2090
     14  O1A       41.7890   11.4680  -19.1310 O.2   334  TLO334     -0.5170
     15  O1B       40.4340   13.6640  -21.7700 O.2   334  TLO334     -0.5080
     16  C2'       46.5120   12.4120  -18.0350 C.3   334  TLO334      0.0874
     17  O2A       41.0260   13.0800  -17.2500 O.3   334  TLO334     -0.4371
     18  O2B       43.0200   14.1060  -21.3440 O.3   334  TLO334     -0.4272
     19  C3'       46.1060   13.7960  -18.5090 C.3   334  TLO334      0.1857
     20  O3'       47.2370   14.6700  -18.6950 O.3   334  TLO334     -0.2203
     21  O3A       41.2970   14.0010  -19.4790 O.3   334  TLO334     -0.2612
     22  O3B       41.2070   15.9100  -20.9830 O.3   334  TLO334     -0.4398
     23  C4'       45.2290   14.4660  -17.4620 C.3   334  TLO334      0.1773
     24  O4'       45.3510   13.5660  -16.3660 O.3   334  TLO334     -0.3339
     25  C5'       43.7330   14.4580  -17.8260 C.3   334  TLO334      0.1812
     26  O5'       43.3890   13.1910  -18.3780 O.3   334  TLO334     -0.3112
     27  C5M       42.9680    8.9370  -16.0890 C.3   334  TLO334      0.0462
     28  CD1       43.1980   17.1540  -20.5030 C.ar  334  TLO334      0.0373
     29  CD2       41.1950   17.2980  -19.0990 C.ar  334  TLO334      0.0373
     30  CE1       43.8040   18.0600  -19.6380 C.ar  334  TLO334      0.0031
     31  CE2       41.8090   18.2020  -18.2400 C.ar  334  TLO334      0.0031
@<TRIPOS>BOND
     1    15    10    2
     2    18    10    1
     3    10    22    1
     4    10    21    1
     5    22    11    1
     6    28    11   ar
     7    28    30   ar
     8    11    29   ar
     9    30    12   ar
    10    21     9    1
    11    14     9    2
    12    29    31   ar
    13    20    19    1
    14    12    31   ar
    15     9    26    1
    16     9    17    1
    17    19    16    1
    18    19    23    1
    19    26    25    1
    20    16    13    1
    21    25    23    1
    22    23    24    1
    23    13    24    1
    24    13     1    1
    25     8     1    1
    26     8     7    2
    27    27     7    1
    28     1     2   am
    29     7     5    1
    30     2     3    2
    31     2     4    2
    32     5     4    2
    33     5     6    2
