@<TRIPOS>MOLECULE
3rc1_NAP_A_1.pdb
 48 52 0 0 0
SMALL
GASTEIGER

@<TRIPOS>ATOM
      1  PA        46.9480   21.0340  -27.9720 P.3   335  NAP335      0.2189
      2  O1A       47.3270   19.6310  -28.3390 O.2   335  NAP335     -0.5170
      3  O2A       47.9790   22.1170  -27.7300 O.3   335  NAP335     -0.4371
      4  O5B       46.1950   21.5610  -29.3010 O.3   335  NAP335     -0.3112
      5  C5B       45.9160   22.9330  -29.6040 C.3   335  NAP335      0.1813
      6  C4B       46.0510   23.0060  -31.1370 C.3   335  NAP335      0.1820
      7  O4B       45.8890   24.3900  -31.4230 O.3   335  NAP335     -0.3136
      8  C3B       47.5160   22.7670  -31.4780 C.3   335  NAP335      0.2157
      9  O3B       47.6550   21.3960  -31.8410 O.3   335  NAP335     -0.2175
     10  C2B       47.6880   23.6240  -32.7380 C.3   335  NAP335      0.2314
     11  O2B       47.2420   22.9310  -33.9010 O.3   335  NAP335     -0.2630
     12  C1B       46.7370   24.7940  -32.5120 C.3   335  NAP335      0.3158
     13  N9A       47.4280   26.0870  -32.2670 N.pl3 335  NAP335     -0.1439
     14  C8A       47.2760   27.2510  -32.9160 C.3   335  NAP335      0.3377
     15  N7A       48.0880   28.1900  -32.3870 N.2   335  NAP335     -0.2095
     16  C5A       48.7770   27.5780  -31.3970 C.2   335  NAP335      0.2526
     17  C6A       49.7610   28.0110  -30.5190 C.2   335  NAP335      0.4393
     18  N6A       50.1910   29.2970  -30.5440 N.pl3 335  NAP335      0.2180
     19  N1A       50.2320   27.0860  -29.6560 N.2   335  NAP335      0.0021
     20  C2A       49.8090   25.8150  -29.6110 C.3   335  NAP335      0.5254
     21  N3A       48.8500   25.3490  -30.4340 N.2   335  NAP335     -0.0055
     22  C4A       48.3510   26.2560  -31.3140 C.2   335  NAP335      0.3518
     23  O3        45.8900   21.3160  -26.7680 O.3   335  NAP335     -0.2703
     24  PN        44.5700   20.4610  -26.2990 P.3   335  NAP335      0.2189
     25  O1N       44.1910   19.4750  -27.3460 O.2   335  NAP335     -0.5170
     26  O2N       44.9620   19.7640  -25.0020 O.3   335  NAP335     -0.4371
     27  O5D       43.6880   21.7470  -25.9160 O.3   335  NAP335     -0.3112
     28  C5D       43.0620   22.5060  -26.9520 C.3   335  NAP335      0.1813
     29  C4D       41.6560   22.9570  -26.5690 C.3   335  NAP335      0.1799
     30  O4D       40.9430   21.7520  -26.2820 O.3   335  NAP335     -0.3327
     31  C3D       41.6660   23.8710  -25.3550 C.3   335  NAP335      0.2158
     32  O3D       40.6370   24.8810  -25.4110 O.3   335  NAP335     -0.2175
     33  C2D       41.4440   22.8060  -24.2710 C.3   335  NAP335      0.2309
     34  O2D       40.9460   23.4180  -23.0780 O.3   335  NAP335     -0.2158
     35  C1D       40.4800   21.8350  -24.9370 C.3   335  NAP335      0.2263
     36  N1N       40.4360   20.5030  -24.3120 N.pl3 335  NAP335     -0.2787
     37  C2N       39.1900   20.0890  -24.0160 C.3   335  NAP335      0.1244
     38  C3N       39.0340   18.8460  -23.4110 C.2   335  NAP335      0.0544
     39  C7N       37.6260   18.4390  -23.0950 C.2   335  NAP335      0.2818
     40  O7N       37.5440   17.5530  -22.2580 O.2   335  NAP335     -0.2670
     41  N7N       36.5600   19.0300  -23.6630 N.am  335  NAP335     -0.0839
     42  C4N       40.1630   18.0670  -23.1250 C.2   335  NAP335      0.0033
     43  C5N       41.4590   18.4910  -23.4470 C.2   335  NAP335      0.0157
     44  C6N       41.5210   19.7580  -24.0330 C.2   335  NAP335      0.0633
     45  P2B       48.0820   23.0680  -35.2980 P.3   335  NAP335      0.5328
     46  O1X       47.7570   21.8100  -36.0480 O.2   335  NAP335     -0.2224
     47  O2X       49.5280   22.9990  -34.8660 O.3   335  NAP335     -0.1145
     48  O3X       47.7700   24.4160  -35.9030 O.3   335  NAP335     -0.1145
@<TRIPOS>BOND
     1    46    45    2
     2    48    45    1
     3    45    47    1
     4    45    11    1
     5    11    10    1
     6    14    15    1
     7    14    13    1
     8    10    12    1
     9    10     8    1
    10    12    13    1
    11    12     7    1
    12    15    16    2
    13    13    22    1
    14     9     8    1
    15     8     6    1
    16     7     6    1
    17    16    22    1
    18    16    17    1
    19    22    21    2
    20     6     5    1
    21    18    17    1
    22    17    19    2
    23    21    20    1
    24    19    20    1
    25     5     4    1
    26     4     1    1
    27     2     1    2
    28     1     3    1
    29     1    23    1
    30    25    24    2
    31    28    29    1
    32    28    27    1
    33    23    24    1
    34    29    30    1
    35    29    31    1
    36    24    27    1
    37    24    26    1
    38    30    35    1
    39    32    31    1
    40    31    33    1
    41    35    36    1
    42    35    33    1
    43    36    44    1
    44    36    37    1
    45    33    34    1
    46    44    43    2
    47    37    38    1
    48    41    39   am
    49    43    42    1
    50    38    42    2
    51    38    39    1
    52    39    40    2
