@<TRIPOS>MOLECULE
3rc2_TLO_A_1.pdb
 31 33 0 0 0
SMALL
GASTEIGER

@<TRIPOS>ATOM
      1  N1         9.4950  -41.3470  -15.7550 N.am  335  TLO335     -0.1794
      2  C2        10.1740  -41.7860  -14.6860 C.1   335  TLO335      0.2844
      3  O2        11.2370  -41.1880  -14.3960 O.2   335  TLO335     -0.1918
      4  N3         9.7390  -42.8450  -13.9610 N.2   335  TLO335     -0.2455
      5  C4         8.5750  -43.4380  -14.3310 C.1   335  TLO335      0.2134
      6  O4         8.1450  -44.4170  -13.6880 O.2   335  TLO335     -0.2088
      7  C5         7.8450  -43.0100  -15.4280 C.2   335  TLO335      0.0891
      8  C6         8.3510  -41.9300  -16.1430 C.2   335  TLO335      0.0877
      9  PA         5.5360  -39.8510  -18.3270 P.3   335  TLO335      0.2197
     10  PB         5.2110  -38.5080  -20.9070 P.3   335  TLO335      0.2746
     11  CG         5.5910  -36.0760  -20.1510 C.ar  335  TLO335      0.1446
     12  CZ         7.1170  -34.2990  -18.6800 C.ar  335  TLO335      0.0002
     13  C1'       10.0500  -40.1810  -16.4730 C.3   335  TLO335      0.2090
     14  O1A        5.5140  -41.2510  -18.9040 O.2   335  TLO335     -0.5170
     15  O1B        4.0700  -39.2910  -21.5480 O.2   335  TLO335     -0.5080
     16  C2'       10.0890  -40.3550  -17.9900 C.3   335  TLO335      0.0874
     17  O2A        4.8190  -39.4230  -17.0480 O.3   335  TLO335     -0.4371
     18  O2B        6.6780  -38.6960  -21.2290 O.3   335  TLO335     -0.4272
     19  C3'        9.7520  -38.9710  -18.5260 C.3   335  TLO335      0.1857
     20  O3'       10.9750  -38.2280  -18.5450 O.3   335  TLO335     -0.2203
     21  O3A        5.1270  -38.6220  -19.2890 O.3   335  TLO335     -0.2612
     22  O3B        4.8220  -36.9360  -20.8930 O.3   335  TLO335     -0.4398
     23  C4'        8.9770  -38.2700  -17.4180 C.3   335  TLO335      0.1773
     24  O4'        9.1830  -39.0610  -16.2400 O.3   335  TLO335     -0.3339
     25  C5'        7.5020  -38.2840  -17.8140 C.3   335  TLO335      0.1812
     26  O5'        7.1360  -39.6040  -18.2210 O.3   335  TLO335     -0.3112
     27  C5M        6.5580  -43.6950  -15.8340 C.3   335  TLO335      0.0462
     28  CD1        6.9750  -36.0310  -20.3430 C.ar  335  TLO335      0.0373
     29  CD2        4.9850  -35.2390  -19.2170 C.ar  335  TLO335      0.0373
     30  CE1        7.7450  -35.1380  -19.6030 C.ar  335  TLO335      0.0031
     31  CE2        5.7410  -34.3400  -18.4640 C.ar  335  TLO335      0.0031
@<TRIPOS>BOND
     1    15    10    2
     2    18    10    1
     3    10    22    1
     4    10    21    1
     5    22    11    1
     6    28    11   ar
     7    28    30   ar
     8    11    29   ar
     9    30    12   ar
    10    21     9    1
    11    29    31   ar
    12    14     9    2
    13    12    31   ar
    14    20    19    1
    15    19    16    1
    16    19    23    1
    17     9    26    1
    18     9    17    1
    19    26    25    1
    20    16    13    1
    21    25    23    1
    22    23    24    1
    23    13    24    1
    24    13     1    1
    25     8     1    1
    26     8     7    2
    27    27     7    1
    28     1     2   am
    29     7     5    1
    30     2     3    2
    31     2     4    2
    32     5     4    2
    33     5     6    2
