@<TRIPOS>MOLECULE
3rc2_NAP_A_1.pdb
 48 52 0 0 0
SMALL
GASTEIGER

@<TRIPOS>ATOM
      1  PA        10.5540  -30.7900  -27.4850 P.3   336  NAP336      0.2189
      2  O1A       10.7930  -32.2720  -27.5990 O.2   336  NAP336     -0.5170
      3  O2A       11.6710  -29.7860  -27.3280 O.3   336  NAP336     -0.4371
      4  O5B        9.8060  -30.4040  -28.8560 O.3   336  NAP336     -0.3112
      5  C5B        9.6060  -29.0490  -29.2720 C.3   336  NAP336      0.1813
      6  C4B        9.8670  -29.0440  -30.7850 C.3   336  NAP336      0.1820
      7  O4B        9.6970  -27.6810  -31.1760 O.3   336  NAP336     -0.3136
      8  C3B       11.3480  -29.2520  -31.0930 C.3   336  NAP336      0.2157
      9  O3B       11.5090  -30.6350  -31.4040 O.3   336  NAP336     -0.2175
     10  C2B       11.6320  -28.3850  -32.3270 C.3   336  NAP336      0.2314
     11  O2B       11.1290  -28.9870  -33.5230 O.3   336  NAP336     -0.2630
     12  C1B       10.6190  -27.2550  -32.1710 C.3   336  NAP336      0.3158
     13  N9A       11.2790  -25.9420  -31.9520 N.pl3 336  NAP336     -0.1439
     14  C8A       11.1230  -24.8300  -32.6960 C.3   336  NAP336      0.3377
     15  N7A       11.9160  -23.8480  -32.2100 N.2   336  NAP336     -0.2095
     16  C5A       12.5870  -24.3760  -31.1590 C.2   336  NAP336      0.2526
     17  C6A       13.5200  -23.8940  -30.2650 C.2   336  NAP336      0.4393
     18  N6A       13.9390  -22.6170  -30.3800 N.pl3 336  NAP336      0.2180
     19  N1A       14.0040  -24.6830  -29.2810 N.2   336  NAP336      0.0021
     20  C2A       13.5970  -25.9560  -29.1630 C.3   336  NAP336      0.5254
     21  N3A       12.6860  -26.4650  -30.0060 N.2   336  NAP336     -0.0055
     22  C4A       12.1790  -25.6970  -30.9960 C.2   336  NAP336      0.3518
     23  O3         9.4750  -30.3710  -26.3460 O.3   336  NAP336     -0.2703
     24  PN         8.2980  -31.3280  -25.7440 P.3   336  NAP336      0.2189
     25  O1N        7.9030  -32.3820  -26.7370 O.2   336  NAP336     -0.5170
     26  O2N        8.5790  -31.8060  -24.3370 O.3   336  NAP336     -0.4371
     27  O5D        7.1860  -30.2080  -25.3590 O.3   336  NAP336     -0.3112
     28  C5D        6.5500  -29.4940  -26.4110 C.3   336  NAP336      0.1813
     29  C4D        5.2200  -28.9650  -25.8800 C.3   336  NAP336      0.1799
     30  O4D        4.6440  -30.0530  -25.1460 O.3   336  NAP336     -0.3327
     31  C3D        5.3920  -27.7760  -24.9320 C.3   336  NAP336      0.2158
     32  O3D        4.2370  -26.9060  -24.9230 O.3   336  NAP336     -0.2175
     33  C2D        5.4710  -28.5370  -23.6040 C.3   336  NAP336      0.2309
     34  O2D        4.9130  -27.7910  -22.5300 O.3   336  NAP336     -0.2158
     35  C1D        4.5330  -29.7220  -23.7550 C.3   336  NAP336      0.2263
     36  N1N        4.8840  -30.8390  -22.8720 N.pl3 336  NAP336     -0.2787
     37  C2N        5.4610  -31.9010  -23.4510 C.3   336  NAP336      0.1244
     38  C3N        5.8100  -32.9840  -22.6560 C.2   336  NAP336      0.0544
     39  C7N        6.4450  -34.2020  -23.2630 C.2   336  NAP336      0.2818
     40  O7N        5.8060  -35.2040  -22.9820 O.2   336  NAP336     -0.2670
     41  N7N        7.5620  -34.2140  -23.9990 N.am  336  NAP336     -0.0839
     42  C4N        5.5570  -32.9530  -21.2860 C.2   336  NAP336      0.0033
     43  C5N        4.9450  -31.8390  -20.7170 C.2   336  NAP336      0.0157
     44  C6N        4.6270  -30.7760  -21.5500 C.2   336  NAP336      0.0633
     45  P2B       11.9700  -28.9960  -34.8940 P.3   336  NAP336      0.5328
     46  O1X       11.6300  -30.3040  -35.5540 O.2   336  NAP336     -0.2224
     47  O2X       13.4300  -29.0290  -34.4880 O.3   336  NAP336     -0.1145
     48  O3X       11.6420  -27.6470  -35.4720 O.3   336  NAP336     -0.1145
@<TRIPOS>BOND
     1    46    45    2
     2    48    45    1
     3    45    47    1
     4    45    11    1
     5    11    10    1
     6    14    15    1
     7    14    13    1
     8    10    12    1
     9    10     8    1
    10    15    16    2
    11    12    13    1
    12    12     7    1
    13    13    22    1
    14     9     8    1
    15     7     6    1
    16    16    22    1
    17    16    17    1
    18     8     6    1
    19    22    21    2
    20     6     5    1
    21    18    17    1
    22    17    19    2
    23    21    20    1
    24    19    20    1
    25     5     4    1
    26     4     1    1
    27     2     1    2
    28     1     3    1
    29     1    23    1
    30    25    24    2
    31    28    29    1
    32    28    27    1
    33    23    24    1
    34    29    30    1
    35    29    31    1
    36    24    27    1
    37    24    26    1
    38    30    35    1
    39    31    32    1
    40    31    33    1
    41    41    39   am
    42    35    33    1
    43    35    36    1
    44    33    34    1
    45    37    36    1
    46    37    38    1
    47    39    40    2
    48    39    38    1
    49    36    44    1
    50    38    42    2
    51    44    43    2
    52    42    43    1
