@<TRIPOS>MOLECULE
3rc3_ANP_A_1.pdb
 31 33 0 0 0
SMALL
GASTEIGER

@<TRIPOS>ATOM
      1  PG        28.6540   76.1760   27.1140 P.3   801  ANP801      0.4884
      2  O1G       29.1780   75.4430   25.8720 O.2   801  ANP801     -0.2331
      3  O2G       27.8570   75.3250   28.1210 O.3   801  ANP801     -0.1240
      4  O3G       27.9810   77.5300   26.7680 O.3   801  ANP801     -0.1240
      5  PB        31.6260   76.7710   27.2480 P.3   801  ANP801      0.4669
      6  O1B       32.0330   75.4920   26.5270 O.3   801  ANP801     -0.1253
      7  O2B       31.2500   78.0330   26.4450 O.2   801  ANP801     -0.2351
      8  N3B       30.1050   76.4630   28.0680 N.3   801  ANP801     -0.0163
      9  PA        33.0500   78.1690   29.3680 P.3   801  ANP801      0.2220
     10  O1A       32.2690   79.3470   28.9520 O.2   801  ANP801     -0.5170
     11  O2A       33.3760   77.8410   30.8390 O.3   801  ANP801     -0.4370
     12  O3A       32.6400   76.8910   28.5180 O.3   801  ANP801     -0.2360
     13  O5'       34.5190   78.3170   28.5580 O.3   801  ANP801     -0.3111
     14  C5'       34.5380   78.4370   27.1050 C.3   801  ANP801      0.1813
     15  C4'       35.7270   77.6620   26.5010 C.3   801  ANP801      0.1821
     16  O4'       36.9570   78.2330   26.9700 O.3   801  ANP801     -0.3135
     17  C3'       35.7870   76.1800   26.9370 C.3   801  ANP801      0.2184
     18  O3'       36.4630   75.4290   25.9380 O.3   801  ANP801     -0.2174
     19  C2'       36.6960   76.1860   28.1380 C.3   801  ANP801      0.2570
     20  O2'       37.2210   74.8850   28.5290 O.3   801  ANP801     -0.2130
     21  C1'       37.7080   77.2740   27.7570 C.3   801  ANP801      0.3186
     22  N9        38.2820   77.9170   28.9780 N.pl3 801  ANP801     -0.1439
     23  C8        37.5640   78.7220   29.8390 C.3   801  ANP801      0.3377
     24  N7        38.3180   79.1560   30.8720 N.2   801  ANP801     -0.2095
     25  C5        39.5530   78.6380   30.6770 C.2   801  ANP801      0.2526
     26  C6        40.8680   78.7260   31.3940 C.2   801  ANP801      0.4393
     27  N6        40.9530   79.4670   32.5370 N.pl3 801  ANP801      0.2180
     28  N1        41.9270   78.0350   30.8380 N.2   801  ANP801      0.0021
     29  C2        41.8340   77.2740   29.6850 C.3   801  ANP801      0.5254
     30  N3        40.6750   77.2040   28.9800 N.2   801  ANP801     -0.0055
     31  C4        39.5360   77.8180   29.4170 C.2   801  ANP801      0.3518
@<TRIPOS>BOND
     1     2     1    2
     2    18    17    1
     3     7     5    2
     4    15    17    1
     5    15    16    1
     6    15    14    1
     7     6     5    1
     8     4     1    1
     9    17    19    1
    10    16    21    1
    11    14    13    1
    12     1     8    1
    13     1     3    1
    14     5     8    1
    15     5    12    1
    16    21    19    1
    17    21    22    1
    18    19    20    1
    19    12     9    1
    20    13     9    1
    21    10     9    2
    22    22    31    1
    23    22    23    1
    24    30    31    2
    25    30    29    1
    26     9    11    1
    27    31    25    1
    28    29    28    1
    29    23    24    1
    30    25    24    2
    31    25    26    1
    32    28    26    2
    33    26    27    1
