@<TRIPOS>MOLECULE
3rc4_III_B_1.pdb
 40 41 0 0 0
SMALL
GASTEIGER

@<TRIPOS>ATOM
      1  N        -28.6110   -9.1620   15.6860 N.3     2  PRO2       -0.2102
      2  CA       -27.2340   -9.1400   15.1690 C.3     2  PRO2        0.1504
      3  C        -26.5480   -7.7940   15.4560 C.2     2  PRO2        0.2576
      4  O        -27.2520   -6.8220   15.7530 O.2     2  PRO2       -0.2718
      5  CB       -27.4200   -9.3640   13.6600 C.3     2  PRO2        0.0282
      6  CG       -28.7850   -9.9440   13.5030 C.3     2  PRO2        0.0208
      7  CD       -29.6050   -9.4000   14.6250 C.3     2  PRO2        0.0893
      8  N        -25.2140   -7.7010   15.3710 N.am    3  SER3       -0.1938
      9  CA       -24.3110   -8.7720   14.9230 C.3     3  SER3        0.2055
     10  C        -22.8930   -8.5750   15.5020 C.2     3  SER3        0.2644
     11  O        -22.6950   -7.7830   16.4270 O.2     3  SER3       -0.2714
     12  CB       -24.2470   -8.8030   13.3910 C.3     3  SER3        0.2130
     13  OG       -24.0890  -10.1300   12.9160 O.3     3  SER3       -0.2179
     14  N        -21.9110   -9.2820   14.9420 N.am    4  SER4       -0.1935
     15  CA       -20.5530   -9.3200   15.5000 C.3     4  SER4        0.2055
     16  C        -19.4750   -9.0370   14.4470 C.2     4  SER4        0.2644
     17  O        -19.6780   -9.3110   13.2600 O.2     4  SER4       -0.2714
     18  CB       -20.3210  -10.6960   16.1290 C.3     4  SER4        0.2130
     19  OG       -21.0310  -10.8180   17.3540 O.3     4  SER4       -0.2179
     20  N        -18.3310   -8.5000   14.8820 N.am    5  THR5       -0.1937
     21  CA       -17.2300   -8.1720   13.9610 C.3     5  THR5        0.2013
     22  C        -15.8390   -8.1910   14.6220 C.2     5  THR5        0.2484
     23  O        -15.4990   -7.2750   15.3850 O.2     5  THR5       -0.2729
     24  CB       -17.4630   -6.7930   13.2450 C.3     5  THR5        0.1807
     25  OG1      -16.2250   -6.0680   13.1420 O.3     5  THR5       -0.2208
     26  CG2      -18.4930   -5.9330   13.9900 C.3     5  THR5        0.0379
     27  N        -15.0190   -9.2210   14.3150 N.am    6  PRO6       -0.2715
     28  CA       -13.6440   -9.2600   14.8320 C.3     6  PRO6        0.1536
     29  C        -12.9330   -7.9320   14.5920 C.2     6  PRO6        0.2599
     30  O        -13.0020   -7.3980   13.4810 O.2     6  PRO6       -0.2715
     31  CB       -12.9860  -10.3780   14.0160 C.3     6  PRO6        0.0310
     32  CG       -14.0970  -11.2620   13.6040 C.3     6  PRO6        0.0237
     33  CD       -15.3280  -10.3990   13.4810 C.3     6  PRO6        0.0939
     34  N        -12.2630   -7.4010   15.6160 N.am    7  CYS7       -0.1932
     35  CA       -11.6860   -6.0440   15.5300 C.3     7  CYS7        0.2093
     36  C        -10.1900   -6.0270   15.2210 C.2     7  CYS7        0.3851
     37  O         -9.4870   -5.1020   15.6190 O.co2   7  CYS7       -0.2437
     38  CB       -11.9830   -5.2510   16.8100 C.3     7  CYS7        0.1019
     39  SG       -13.5940   -4.4410   16.7570 S.3     7  CYS7       -0.0797
     40  OXT       -9.6570   -6.9250   14.5730 O.co2   7  CYS7       -0.2437
@<TRIPOS>BOND
     1    13    12    1
     2    25    24    1
     3    24    21    1
     4    24    26    1
     5    17    16    2
     6    12     9    1
     7    33    32    1
     8    33    27    1
     9    30    29    2
    10     6     5    1
    11     6     7    1
    12    32    31    1
    13     5     2    1
    14    21    22    1
    15    21    20    1
    16    31    28    1
    17    27    22   am
    18    27    28    1
    19    16    20   am
    20    16    15    1
    21    40    36   ar
    22    29    28    1
    23    29    34   am
    24    22    23    2
    25     7     1    1
    26     9     8    1
    27     9    10    1
    28    14    15    1
    29    14    10   am
    30     2     3    1
    31     2     1    1
    32    36    35    1
    33    36    37   ar
    34     8     3   am
    35     3     4    2
    36    15    18    1
    37    10    11    2
    38    35    34    1
    39    35    38    1
    40    18    19    1
    41    39    38    1
