@<TRIPOS>MOLECULE
3rc7_NAP_A_1.pdb
 48 52 0 0 0
SMALL
GASTEIGER

@<TRIPOS>ATOM
      1  PA       -46.8670  -21.0690  -27.9840 P.3   333  NAP333      0.2189
      2  O1A      -47.1060  -19.5860  -28.1640 O.2   333  NAP333     -0.5170
      3  O2A      -47.9620  -22.0810  -27.7410 O.3   333  NAP333     -0.4371
      4  O5B      -46.0710  -21.6420  -29.2650 O.3   333  NAP333     -0.3112
      5  C5B      -45.9150  -23.0340  -29.5860 C.3   333  NAP333      0.1813
      6  C4B      -46.0400  -23.0680  -31.1140 C.3   333  NAP333      0.1820
      7  O4B      -45.8520  -24.4200  -31.5220 O.3   333  NAP333     -0.3136
      8  C3B      -47.4750  -22.7620  -31.5430 C.3   333  NAP333      0.2157
      9  O3B      -47.6310  -21.3840  -31.9230 O.3   333  NAP333     -0.2175
     10  C2B      -47.6990  -23.6980  -32.7300 C.3   333  NAP333      0.2314
     11  O2B      -47.1970  -23.1380  -33.9380 O.3   333  NAP333     -0.2630
     12  C1B      -46.7020  -24.8370  -32.5850 C.3   333  NAP333      0.3158
     13  N9A      -47.4130  -26.1070  -32.2970 N.pl3 333  NAP333     -0.1439
     14  C8A      -47.2360  -27.2840  -32.9380 C.3   333  NAP333      0.3377
     15  N7A      -48.0470  -28.2210  -32.4080 N.2   333  NAP333     -0.2095
     16  C5A      -48.7450  -27.5790  -31.4380 C.2   333  NAP333      0.2526
     17  C6A      -49.7460  -27.9890  -30.5670 C.2   333  NAP333      0.4393
     18  N6A      -50.1480  -29.2840  -30.6110 N.pl3 333  NAP333      0.2180
     19  N1A      -50.2660  -27.0770  -29.7090 N.2   333  NAP333      0.0021
     20  C2A      -49.8580  -25.7980  -29.6570 C.3   333  NAP333      0.5254
     21  N3A      -48.8890  -25.3560  -30.4750 N.2   333  NAP333     -0.0055
     22  C4A      -48.3510  -26.2430  -31.3580 C.2   333  NAP333      0.3518
     23  O3       -45.7140  -21.3910  -26.8790 O.3   333  NAP333     -0.2703
     24  PN       -44.4990  -20.4160  -26.3880 P.3   333  NAP333      0.2189
     25  O1N      -44.0660  -19.3860  -27.3960 O.2   333  NAP333     -0.5170
     26  O2N      -44.8330  -19.8320  -25.0330 O.3   333  NAP333     -0.4371
     27  O5D      -43.4620  -21.6050  -26.0340 O.3   333  NAP333     -0.3112
     28  C5D      -42.8220  -22.3970  -27.0360 C.3   333  NAP333      0.1813
     29  C4D      -41.4670  -22.9270  -26.5620 C.3   333  NAP333      0.1799
     30  O4D      -40.7110  -21.8120  -26.0990 O.3   333  NAP333     -0.3327
     31  C3D      -41.5320  -23.9260  -25.4100 C.3   333  NAP333      0.2158
     32  O3D      -40.4480  -24.8780  -25.5100 O.3   333  NAP333     -0.2175
     33  C2D      -41.4160  -23.0310  -24.1700 C.3   333  NAP333      0.2309
     34  O2D      -40.9630  -23.8010  -23.0420 O.3   333  NAP333     -0.2158
     35  C1D      -40.4840  -21.9330  -24.6840 C.3   333  NAP333      0.2263
     36  N1N      -40.7350  -20.6060  -24.1110 N.pl3 333  NAP333     -0.2787
     37  C2N      -41.9800  -20.1110  -24.1720 C.3   333  NAP333      0.1244
     38  C3N      -42.2970  -18.8430  -23.6950 C.2   333  NAP333      0.0544
     39  C7N      -43.7120  -18.3400  -23.7810 C.2   333  NAP333      0.2818
     40  O7N      -44.4910  -18.9050  -23.0310 O.2   333  NAP333     -0.2670
     41  N7N      -44.1470  -17.3580  -24.5730 N.am  333  NAP333     -0.0839
     42  C4N      -41.2590  -18.1110  -23.1240 C.2   333  NAP333      0.0033
     43  C5N      -39.9630  -18.6180  -23.0540 C.2   333  NAP333      0.0157
     44  C6N      -39.7370  -19.8900  -23.5760 C.2   333  NAP333      0.0633
     45  P2B      -48.1200  -23.1560  -35.2540 P.3   333  NAP333      0.5328
     46  O1X      -47.6950  -21.8960  -35.9680 O.2   333  NAP333     -0.2224
     47  O2X      -49.5620  -23.1070  -34.8190 O.3   333  NAP333     -0.1145
     48  O3X      -47.8220  -24.5090  -35.8610 O.3   333  NAP333     -0.1145
@<TRIPOS>BOND
     1    46    45    2
     2    48    45    1
     3    45    47    1
     4    45    11    1
     5    11    10    1
     6    14    15    1
     7    14    13    1
     8    10    12    1
     9    10     8    1
    10    12    13    1
    11    12     7    1
    12    15    16    2
    13    13    22    1
    14     9     8    1
    15     8     6    1
    16     7     6    1
    17    16    22    1
    18    16    17    1
    19    22    21    2
    20     6     5    1
    21    18    17    1
    22    17    19    2
    23    21    20    1
    24    19    20    1
    25     5     4    1
    26     4     1    1
    27     2     1    2
    28     1     3    1
    29     1    23    1
    30    25    24    2
    31    28    29    1
    32    28    27    1
    33    23    24    1
    34    29    30    1
    35    29    31    1
    36    24    27    1
    37    24    26    1
    38    30    35    1
    39    32    31    1
    40    31    33    1
    41    35    33    1
    42    35    36    1
    43    41    39   am
    44    37    36    1
    45    37    38    1
    46    33    34    1
    47    36    44    1
    48    39    38    1
    49    39    40    2
    50    38    42    2
    51    44    43    2
    52    42    43    1
