@<TRIPOS>MOLECULE
3rc7_TLO_A_1.pdb
 31 33 0 0 0
SMALL
GASTEIGER

@<TRIPOS>ATOM
      1  N1       -45.8340  -11.4090  -15.9490 N.am  337  TLO337     -0.1794
      2  C2       -46.5070  -10.9350  -14.8930 C.1   337  TLO337      0.2844
      3  O2       -47.5470  -11.5170  -14.4820 O.2   337  TLO337     -0.1918
      4  N3       -46.0500   -9.8570  -14.2190 N.2   337  TLO337     -0.2455
      5  C4       -44.9090   -9.2390  -14.6070 C.1   337  TLO337      0.2134
      6  O4       -44.5180   -8.2160  -13.9960 O.2   337  TLO337     -0.2088
      7  C5       -44.2070   -9.7040  -15.7130 C.2   337  TLO337      0.0891
      8  C6       -44.7050  -10.8250  -16.3640 C.2   337  TLO337      0.0877
      9  PA       -41.7740  -12.8520  -18.6360 P.3   337  TLO337      0.2197
     10  PB       -41.3880  -14.4310  -21.0780 P.3   337  TLO337      0.2746
     11  CG       -41.7190  -16.8610  -20.3400 C.ar  337  TLO337      0.1446
     12  CZ       -43.0730  -18.6830  -18.8130 C.ar  337  TLO337      0.0002
     13  C1'      -46.3250  -12.5940  -16.6720 C.3   337  TLO337      0.2090
     14  O1A      -41.7800  -11.5240  -19.3180 O.2   337  TLO337     -0.5170
     15  O1B      -40.3960  -13.5390  -21.7660 O.2   337  TLO337     -0.5080
     16  C2'      -46.5550  -12.4470  -18.1830 C.3   337  TLO337      0.0874
     17  O2A      -41.0180  -13.0050  -17.3440 O.3   337  TLO337     -0.4371
     18  O2B      -42.8800  -14.4450  -21.3110 O.3   337  TLO337     -0.4272
     19  C3'      -46.0980  -13.8350  -18.6370 C.3   337  TLO337      0.1857
     20  O3'      -47.2490  -14.6910  -18.6350 O.3   337  TLO337     -0.2203
     21  O3A      -41.1730  -14.0580  -19.5150 O.3   337  TLO337     -0.2612
     22  O3B      -41.0020  -15.9870  -21.0960 O.3   337  TLO337     -0.4398
     23  C4'      -45.2050  -14.4940  -17.5910 C.3   337  TLO337      0.1773
     24  O4'      -45.3270  -13.5980  -16.4900 O.3   337  TLO337     -0.3339
     25  C5'      -43.7080  -14.4910  -17.9420 C.3   337  TLO337      0.1812
     26  O5'      -43.3580  -13.1920  -18.4390 O.3   337  TLO337     -0.3112
     27  C5M      -42.9200   -9.0450  -16.1590 C.3   337  TLO337      0.0462
     28  CD1      -43.0290  -17.1330  -20.7040 C.ar  337  TLO337      0.0373
     29  CD2      -41.0950  -17.4860  -19.2640 C.ar  337  TLO337      0.0373
     30  CE1      -43.6830  -18.0580  -19.8920 C.ar  337  TLO337      0.0031
     31  CE2      -41.7460  -18.4300  -18.4720 C.ar  337  TLO337      0.0031
@<TRIPOS>BOND
     1    15    10    2
     2    18    10    1
     3    22    10    1
     4    22    11    1
     5    10    21    1
     6    28    11   ar
     7    28    30   ar
     8    11    29   ar
     9    30    12   ar
    10    21     9    1
    11    14     9    2
    12    29    31   ar
    13    12    31   ar
    14    19    20    1
    15    19    16    1
    16    19    23    1
    17     9    26    1
    18     9    17    1
    19    26    25    1
    20    16    13    1
    21    25    23    1
    22    23    24    1
    23    13    24    1
    24    13     1    1
    25     8     1    1
    26     8     7    2
    27    27     7    1
    28     1     2   am
    29     7     5    1
    30     2     3    2
    31     2     4    2
    32     5     4    2
    33     5     6    2
