@<TRIPOS>MOLECULE
3rc9_NAP_A_1.pdb
 48 52 0 0 0
SMALL
GASTEIGER

@<TRIPOS>ATOM
      1  PA       -47.3420  -21.7870  -27.4630 P.3   333  NAP333      0.2189
      2  O1A      -47.5180  -20.2900  -27.5470 O.2   333  NAP333     -0.5170
      3  O2A      -48.3420  -22.8710  -27.1690 O.3   333  NAP333     -0.4371
      4  O5B      -46.7260  -21.8410  -28.9600 O.3   333  NAP333     -0.3112
      5  C5B      -46.2680  -23.0940  -29.4350 C.3   333  NAP333      0.1813
      6  C4B      -46.4370  -22.9830  -30.9500 C.3   333  NAP333      0.1820
      7  O4B      -46.2930  -24.3490  -31.3060 O.3   333  NAP333     -0.3136
      8  C3B      -47.8910  -22.7080  -31.2860 C.3   333  NAP333      0.2157
      9  O3B      -47.9300  -21.3040  -31.5680 O.3   333  NAP333     -0.2175
     10  C2B      -48.1520  -23.6150  -32.4960 C.3   333  NAP333      0.2314
     11  O2B      -47.6240  -23.0020  -33.6730 O.3   333  NAP333     -0.2630
     12  C1B      -47.1680  -24.7800  -32.3180 C.3   333  NAP333      0.3158
     13  N9A      -47.8580  -26.0680  -32.0550 N.pl3 333  NAP333     -0.1439
     14  C8A      -47.7260  -27.2230  -32.7300 C.3   333  NAP333      0.3377
     15  N7A      -48.5910  -28.1350  -32.2260 N.2   333  NAP333     -0.2095
     16  C5A      -49.2610  -27.5090  -31.2400 C.2   333  NAP333      0.2526
     17  C6A      -50.2620  -27.9360  -30.3780 C.2   333  NAP333      0.4393
     18  N6A      -50.6880  -29.2220  -30.5200 N.pl3 333  NAP333      0.2180
     19  N1A      -50.7430  -27.0390  -29.4780 N.2   333  NAP333      0.0021
     20  C2A      -50.3010  -25.7670  -29.3800 C.3   333  NAP333      0.5254
     21  N3A      -49.3050  -25.3410  -30.1900 N.2   333  NAP333     -0.0055
     22  C4A      -48.8010  -26.2010  -31.1190 C.2   333  NAP333      0.3518
     23  O3       -46.0930  -22.3760  -26.5950 O.3   333  NAP333     -0.2703
     24  PN       -45.1970  -21.5980  -25.4790 P.3   333  NAP333      0.2189
     25  O1N      -44.8440  -20.2430  -26.0850 O.2   333  NAP333     -0.5170
     26  O2N      -45.9530  -21.8900  -24.1970 O.3   333  NAP333     -0.4371
     27  O5D      -43.8890  -22.5330  -25.2480 O.3   333  NAP333     -0.3112
     28  C5D      -42.9300  -22.5840  -26.2900 C.3   333  NAP333      0.1813
     29  C4D      -41.6380  -23.0790  -25.6500 C.3   333  NAP333      0.1799
     30  O4D      -41.2740  -22.0130  -24.7680 O.3   333  NAP333     -0.3327
     31  C3D      -41.7080  -24.3840  -24.8510 C.3   333  NAP333      0.2158
     32  O3D      -40.3800  -24.9720  -24.9080 O.3   333  NAP333     -0.2175
     33  C2D      -41.9590  -23.8770  -23.4280 C.3   333  NAP333      0.2309
     34  O2D      -41.2620  -24.6370  -22.4310 O.3   333  NAP333     -0.2158
     35  C1D      -41.2530  -22.5170  -23.4330 C.3   333  NAP333      0.2263
     36  N1N      -41.8520  -21.5860  -22.4760 N.pl3 333  NAP333     -0.2787
     37  C2N      -42.6850  -20.6780  -22.9940 C.3   333  NAP333      0.1244
     38  C3N      -43.2990  -19.7770  -22.1320 C.2   333  NAP333      0.0544
     39  C7N      -44.2100  -18.7630  -22.7510 C.2   333  NAP333      0.2818
     40  O7N      -43.9000  -18.1950  -23.7920 O.2   333  NAP333     -0.2670
     41  N7N      -45.3290  -18.5320  -22.0840 N.am  333  NAP333     -0.0839
     42  C4N      -43.0470  -19.8120  -20.7570 C.2   333  NAP333      0.0033
     43  C5N      -42.1690  -20.7790  -20.2660 C.2   333  NAP333      0.0157
     44  C6N      -41.5740  -21.6660  -21.1670 C.2   333  NAP333      0.0633
     45  P2B      -48.4200  -22.9530  -35.0860 P.3   333  NAP333      0.5328
     46  O1X      -48.0410  -21.6760  -35.7620 O.2   333  NAP333     -0.2224
     47  O2X      -49.8300  -22.7670  -34.6020 O.3   333  NAP333     -0.1145
     48  O3X      -48.1050  -24.2840  -35.7120 O.3   333  NAP333     -0.1145
@<TRIPOS>BOND
     1    46    45    2
     2    48    45    1
     3    45    47    1
     4    45    11    1
     5    11    10    1
     6    14    15    1
     7    14    13    1
     8    10    12    1
     9    10     8    1
    10    12    13    1
    11    12     7    1
    12    15    16    2
    13    13    22    1
    14     9     8    1
    15     7     6    1
    16     8     6    1
    17    16    22    1
    18    16    17    1
    19    22    21    2
    20     6     5    1
    21    18    17    1
    22    17    19    2
    23    21    20    1
    24    19    20    1
    25     5     4    1
    26     4     1    1
    27     2     1    2
    28     1     3    1
    29     1    23    1
    30    23    24    1
    31    28    29    1
    32    28    27    1
    33    25    24    2
    34    29    31    1
    35    29    30    1
    36    24    27    1
    37    24    26    1
    38    32    31    1
    39    31    33    1
    40    30    35    1
    41    40    39    2
    42    35    33    1
    43    35    36    1
    44    33    34    1
    45    37    36    1
    46    37    38    1
    47    39    38    1
    48    39    41   am
    49    36    44    1
    50    38    42    2
    51    44    43    2
    52    42    43    1
