@<TRIPOS>MOLECULE
3rc9_TLO_A_1.pdb
 31 33 0 0 0
SMALL
GASTEIGER

@<TRIPOS>ATOM
      1  N1       -45.9130  -11.3410  -15.9410 N.am  337  TLO337     -0.1794
      2  C2       -46.5970  -10.9070  -14.8740 C.1   337  TLO337      0.2844
      3  O2       -47.6440  -11.4770  -14.5240 O.2   337  TLO337     -0.1918
      4  N3       -46.2010   -9.8250  -14.1800 N.2   337  TLO337     -0.2455
      5  C4       -45.0520   -9.2190  -14.5740 C.1   337  TLO337      0.2134
      6  O4       -44.6360   -8.2300  -13.9440 O.2   337  TLO337     -0.2088
      7  C5       -44.2960   -9.6500  -15.6520 C.2   337  TLO337      0.0891
      8  C6       -44.7670  -10.7630  -16.3170 C.2   337  TLO337      0.0877
      9  PA       -41.8590  -12.7300  -18.6260 P.3   337  TLO337      0.2197
     10  PB       -41.3580  -13.8030  -21.2930 P.3   337  TLO337      0.2746
     11  CG       -40.9370  -16.4680  -21.0880 C.ar  337  TLO337      0.1446
     12  CZ       -39.4320  -18.7740  -20.9400 C.ar  337  TLO337      0.0002
     13  C1'      -46.3680  -12.5250  -16.6700 C.3   337  TLO337      0.2090
     14  O1A      -41.9650  -11.2630  -18.9290 O.2   337  TLO337     -0.5170
     15  O1B      -40.0350  -13.5070  -21.9560 O.2   337  TLO337     -0.5080
     16  C2'      -46.5980  -12.3500  -18.1700 C.3   337  TLO337      0.0874
     17  O2A      -41.1370  -12.9780  -17.3290 O.3   337  TLO337     -0.4371
     18  O2B      -42.6650  -13.1110  -21.6010 O.3   337  TLO337     -0.4272
     19  C3'      -46.1760  -13.7010  -18.7300 C.3   337  TLO337      0.1857
     20  O3'      -47.3430  -14.5280  -18.6820 O.3   337  TLO337     -0.2203
     21  O3A      -41.0770  -13.6020  -19.7130 O.3   337  TLO337     -0.2612
     22  O3B      -41.7290  -15.3580  -21.1670 O.3   337  TLO337     -0.4398
     23  C4'      -45.2790  -14.3640  -17.6930 C.3   337  TLO337      0.1773
     24  O4'      -45.3610  -13.5320  -16.5310 O.3   337  TLO337     -0.3339
     25  C5'      -43.8240  -14.4960  -18.1470 C.3   337  TLO337      0.1812
     26  O5'      -43.4240  -13.1650  -18.4710 O.3   337  TLO337     -0.3112
     27  C5M      -43.0090   -8.9660  -16.0770 C.3   337  TLO337      0.0462
     28  CD1      -40.5940  -16.9630  -19.8360 C.ar  337  TLO337      0.0373
     29  CD2      -40.5570  -17.1180  -22.2640 C.ar  337  TLO337      0.0373
     30  CE1      -39.8200  -18.1190  -19.7680 C.ar  337  TLO337      0.0031
     31  CE2      -39.7900  -18.2800  -22.1950 C.ar  337  TLO337      0.0031
@<TRIPOS>BOND
     1    29    31   ar
     2    29    11   ar
     3    31    12   ar
     4    15    10    2
     5    18    10    1
     6    10    22    1
     7    10    21    1
     8    22    11    1
     9    11    28   ar
    10    12    30   ar
    11    28    30   ar
    12    21     9    1
    13    14     9    2
    14    19    20    1
    15    19    16    1
    16    19    23    1
    17     9    26    1
    18     9    17    1
    19    26    25    1
    20    16    13    1
    21    25    23    1
    22    23    24    1
    23    13    24    1
    24    13     1    1
    25     8     1    1
    26     8     7    2
    27    27     7    1
    28     1     2   am
    29     7     5    1
    30     2     3    2
    31     2     4    2
    32     5     4    2
    33     5     6    2
