@<TRIPOS>MOLECULE
3rcb_NAP_A_1.pdb
 48 52 0 0 0
SMALL
GASTEIGER

@<TRIPOS>ATOM
      1  PA       -46.6490  -21.1740  -27.8310 P.3   333  NAP333      0.2189
      2  O1A      -47.0100  -19.7250  -28.1200 O.2   333  NAP333     -0.5170
      3  O2A      -47.4390  -22.4370  -27.5460 O.3   333  NAP333     -0.4371
      4  O5B      -45.8550  -21.6930  -29.1280 O.3   333  NAP333     -0.3112
      5  C5B      -45.9400  -23.0830  -29.4320 C.3   333  NAP333      0.1813
      6  C4B      -45.9990  -22.9040  -30.9350 C.3   333  NAP333      0.1820
      7  O4B      -45.5540  -24.1370  -31.4690 O.3   333  NAP333     -0.3136
      8  C3B      -47.4270  -22.6330  -31.4140 C.3   333  NAP333      0.2157
      9  O3B      -47.4640  -21.2690  -31.8330 O.3   333  NAP333     -0.2175
     10  C2B      -47.5150  -23.5310  -32.6280 C.3   333  NAP333      0.2314
     11  O2B      -47.0450  -22.8200  -33.7600 O.3   333  NAP333     -0.2630
     12  C1B      -46.4370  -24.5930  -32.4870 C.3   333  NAP333      0.3158
     13  N9A      -47.1310  -25.8980  -32.2250 N.pl3 333  NAP333     -0.1439
     14  C8A      -46.9310  -27.0370  -32.8950 C.3   333  NAP333      0.3377
     15  N7A      -47.7780  -27.9880  -32.4290 N.2   333  NAP333     -0.2095
     16  C5A      -48.5470  -27.4170  -31.4750 C.2   333  NAP333      0.2526
     17  C6A      -49.5830  -27.8800  -30.6600 C.2   333  NAP333      0.4393
     18  N6A      -49.9690  -29.1730  -30.7120 N.pl3 333  NAP333      0.2180
     19  N1A      -50.1610  -27.0520  -29.7600 N.2   333  NAP333      0.0021
     20  C2A      -49.7440  -25.7780  -29.6440 C.3   333  NAP333      0.5254
     21  N3A      -48.7360  -25.2970  -30.4120 N.2   333  NAP333     -0.0055
     22  C4A      -48.1310  -26.0990  -31.3470 C.2   333  NAP333      0.3518
     23  O3       -45.5670  -21.2100  -26.6160 O.3   333  NAP333     -0.2703
     24  PN       -44.2400  -20.3380  -26.2240 P.3   333  NAP333      0.2189
     25  O1N      -43.7540  -19.3900  -27.3140 O.2   333  NAP333     -0.5170
     26  O2N      -44.4040  -19.7120  -24.8540 O.3   333  NAP333     -0.4371
     27  O5D      -43.3940  -21.7060  -25.9260 O.3   333  NAP333     -0.3112
     28  C5D      -42.5230  -22.3410  -26.8580 C.3   333  NAP333      0.1813
     29  C4D      -41.1840  -22.7600  -26.2580 C.3   333  NAP333      0.1799
     30  O4D      -40.5980  -21.6740  -25.5440 O.3   333  NAP333     -0.3327
     31  C3D      -41.3540  -23.9310  -25.2870 C.3   333  NAP333      0.2158
     32  O3D      -40.1920  -24.7480  -25.2680 O.3   333  NAP333     -0.2175
     33  C2D      -41.3120  -23.2690  -23.9340 C.3   333  NAP333      0.2309
     34  O2D      -40.8440  -24.0990  -22.8710 O.3   333  NAP333     -0.2158
     35  C1D      -40.4010  -22.0780  -24.1780 C.3   333  NAP333      0.2263
     36  N1N      -41.0120  -21.2510  -23.1470 N.pl3 333  NAP333     -0.2787
     37  C2N      -42.3210  -21.0010  -23.2660 C.3   333  NAP333      0.1244
     38  C3N      -43.0000  -20.2840  -22.2920 C.2   333  NAP333      0.0544
     39  C7N      -44.4670  -20.0150  -22.4690 C.2   333  NAP333      0.2818
     40  O7N      -45.1940  -20.9620  -22.2040 O.2   333  NAP333     -0.2670
     41  N7N      -44.8780  -18.8110  -22.8970 N.am  333  NAP333     -0.0839
     42  C4N      -42.2900  -19.8300  -21.1760 C.2   333  NAP333      0.0033
     43  C5N      -40.9300  -20.1160  -21.0490 C.2   333  NAP333      0.0157
     44  C6N      -40.3200  -20.8540  -22.0630 C.2   333  NAP333      0.0633
     45  P2B      -47.8260  -22.8060  -35.1680 P.3   333  NAP333      0.5328
     46  O1X      -47.2810  -21.5750  -35.8540 O.2   333  NAP333     -0.2224
     47  O2X      -49.2960  -22.6630  -34.8650 O.3   333  NAP333     -0.1145
     48  O3X      -47.5850  -24.1680  -35.7380 O.3   333  NAP333     -0.1145
@<TRIPOS>BOND
     1    46    45    2
     2    48    45    1
     3    45    47    1
     4    45    11    1
     5    11    10    1
     6    14    15    1
     7    14    13    1
     8    10    12    1
     9    10     8    1
    10    12    13    1
    11    12     7    1
    12    15    16    2
    13    13    22    1
    14     9     8    1
    15    16    22    1
    16    16    17    1
    17     7     6    1
    18     8     6    1
    19    22    21    2
    20     6     5    1
    21    18    17    1
    22    17    19    2
    23    21    20    1
    24    19    20    1
    25     5     4    1
    26     4     1    1
    27     2     1    2
    28     1     3    1
    29     1    23    1
    30    25    24    2
    31    28    29    1
    32    28    27    1
    33    23    24    1
    34    29    30    1
    35    29    31    1
    36    24    27    1
    37    24    26    1
    38    30    35    1
    39    31    32    1
    40    31    33    1
    41    35    33    1
    42    35    36    1
    43    33    34    1
    44    37    36    1
    45    37    38    1
    46    36    44    1
    47    41    39   am
    48    39    38    1
    49    39    40    2
    50    38    42    2
    51    44    43    2
    52    42    43    1
