@<TRIPOS>MOLECULE
3rcb_TLO_A_1.pdb
 31 33 0 0 0
SMALL
GASTEIGER

@<TRIPOS>ATOM
      1  N1       -45.5450  -11.1420  -15.9120 N.am  337  TLO337     -0.1794
      2  C2       -46.1790  -10.7700  -14.7950 C.1   337  TLO337      0.2844
      3  O2       -47.1730  -11.4380  -14.4570 O.2   337  TLO337     -0.1918
      4  N3       -45.7740   -9.7120  -14.0580 N.2   337  TLO337     -0.2455
      5  C4       -44.6650   -9.0480  -14.4750 C.1   337  TLO337      0.2134
      6  O4       -44.2230   -8.0670  -13.8400 O.2   337  TLO337     -0.2088
      7  C5       -43.9820   -9.4180  -15.6320 C.2   337  TLO337      0.0891
      8  C6       -44.4550  -10.5040  -16.3490 C.2   337  TLO337      0.0877
      9  PA       -41.4580  -12.5610  -18.4000 P.3   337  TLO337      0.2197
     10  PB       -41.1010  -13.8900  -20.9590 P.3   337  TLO337      0.2746
     11  CG       -41.5170  -16.3880  -20.3050 C.ar  337  TLO337      0.1446
     12  CZ       -42.2540  -18.3020  -18.4980 C.ar  337  TLO337      0.0002
     13  C1'      -46.0550  -12.3050  -16.6550 C.3   337  TLO337      0.2090
     14  O1A      -41.5380  -11.1880  -18.9720 O.2   337  TLO337     -0.5170
     15  O1B      -39.8450  -13.3150  -21.5710 O.2   337  TLO337     -0.5080
     16  C2'      -46.1520  -12.1050  -18.1650 C.3   337  TLO337      0.0874
     17  O2A      -40.7160  -12.7780  -17.1120 O.3   337  TLO337     -0.4371
     18  O2B      -42.4450  -13.4560  -21.4820 O.3   337  TLO337     -0.4272
     19  C3'      -45.7790  -13.4890  -18.6670 C.3   337  TLO337      0.1857
     20  O3'      -46.8890  -14.4000  -18.6730 O.3   337  TLO337     -0.2203
     21  O3A      -41.0250  -13.7890  -19.3480 O.3   337  TLO337     -0.2612
     22  O3B      -41.0990  -15.4650  -21.2000 O.3   337  TLO337     -0.4398
     23  C4'      -44.8990  -14.1460  -17.6100 C.3   337  TLO337      0.1773
     24  O4'      -45.1470  -13.3910  -16.4320 O.3   337  TLO337     -0.3339
     25  C5'      -43.4320  -14.2200  -18.0090 C.3   337  TLO337      0.1812
     26  O5'      -43.0310  -12.8720  -18.2460 O.3   337  TLO337     -0.3112
     27  C5M      -42.7530   -8.6620  -16.0870 C.3   337  TLO337      0.0462
     28  CD1      -42.8310  -16.8530  -20.3020 C.ar  337  TLO337      0.0373
     29  CD2      -40.5290  -16.8500  -19.4530 C.ar  337  TLO337      0.0373
     30  CE1      -43.2160  -17.8360  -19.3890 C.ar  337  TLO337      0.0031
     31  CE2      -40.9500  -17.8120  -18.5400 C.ar  337  TLO337      0.0031
@<TRIPOS>BOND
     1    15    10    2
     2    18    10    1
     3    22    10    1
     4    22    11    1
     5    10    21    1
     6    11    28   ar
     7    11    29   ar
     8    28    30   ar
     9    29    31   ar
    10    30    12   ar
    11    21     9    1
    12    14     9    2
    13    20    19    1
    14    19    16    1
    15    19    23    1
    16    31    12   ar
    17     9    26    1
    18     9    17    1
    19    26    25    1
    20    16    13    1
    21    25    23    1
    22    23    24    1
    23    13    24    1
    24    13     1    1
    25     8     1    1
    26     8     7    2
    27    27     7    1
    28     1     2   am
    29     7     5    1
    30     2     3    2
    31     2     4    2
    32     5     4    2
    33     5     6    2
