@<TRIPOS>MOLECULE
3rcd_03P_A_1.pdb
 38 41 0 0 0
SMALL
GASTEIGER

@<TRIPOS>ATOM
      1  N1        14.8150   -0.4470   28.2390 N.2   9001  03P9001    -0.0350
      2  N3        15.5000    4.5940   24.2390 N.am  9001  03P9001    -0.2035
      3  C4        17.9260    1.0920   25.3590 C.2   9001  03P9001     0.0633
      4  C5        18.0610   -0.2180   25.7530 C.2   9001  03P9001     0.0325
      5  C6        16.3730    2.9680   25.8160 C.3   9001  03P9001     0.1150
      6  C7        15.7840    3.2000   24.4470 C.3   9001  03P9001     0.1365
      7  C8        14.4340    5.2280   24.8470 C.2   9001  03P9001     0.2439
      8  C10       13.2580    1.9850   28.4970 C.ar  9001  03P9001     0.1842
      9  C13       11.1620    2.2060   30.2300 C.ar  9001  03P9001     0.1560
     10  C15       12.0190    2.3740   28.0230 C.ar  9001  03P9001     0.0476
     11  C17        7.9020    1.7640   31.2890 C.ar  9001  03P9001     0.0375
     12  C20        8.5260   -0.9110   31.3460 C.ar  9001  03P9001     0.0744
     13  C21        9.5440    0.0130   31.2270 C.ar  9001  03P9001     0.0413
     14  C22        8.8230   -2.3620   31.3740 C.3   9001  03P9001     0.4187
     15  C24       16.4580    7.5740   23.6620 C.3   9001  03P9001     0.0334
     16  F2         9.7760   -2.7010   32.2850 F     9001  03P9001    -0.1659
     17  F          7.7380   -3.1180   31.6860 F     9001  03P9001    -0.1659
     18  F1         9.2440   -2.7820   30.1520 F     9001  03P9001    -0.1659
     19  C19        7.2120   -0.5080   31.4320 C.ar  9001  03P9001     0.0041
     20  C18        6.8990    0.8310   31.4030 C.ar  9001  03P9001     0.0031
     21  C16        9.2060    1.3450   31.1980 C.ar  9001  03P9001     0.1453
     22  O1        10.1270    2.3400   31.1030 O.3   9001  03P9001    -0.4526
     23  C12       12.3990    1.8320   30.7110 C.ar  9001  03P9001     0.0956
     24 CL         12.7440    1.4780   32.3680 Cl    9001  03P9001    -0.0789
     25  C11       13.4450    1.7220   29.8340 C.ar  9001  03P9001     0.0589
     26  C14       10.9600    2.4870   28.8970 C.ar  9001  03P9001     0.0420
     27  N4        14.3790    1.8600   27.6800 N.pl3 9001  03P9001    -0.0082
     28  C1        15.1250    0.6810   27.5830 C.2   9001  03P9001     0.3628
     29  C         15.6100   -1.5070   28.0550 C.3   9001  03P9001     0.3914
     30  C3        16.2370    0.6480   26.7720 C.3   9001  03P9001     0.2238
     31  C2        16.9980   -0.4950   26.6440 C.2   9001  03P9001     0.0895
     32  N         16.7030   -1.6310   27.2950 N.2   9001  03P9001    -0.2207
     33  N2        16.8230    1.5990   25.9800 N.pl3 9001  03P9001    -0.2917
     34  O         13.7160    4.7360   25.7110 O.2   9001  03P9001    -0.2733
     35  C9        14.2050    6.6200   24.2950 C.3   9001  03P9001     0.1171
     36  C23       15.2720    7.6740   24.6010 C.3   9001  03P9001     0.1355
     37  O2        15.7590    7.5690   25.9310 O.3   9001  03P9001    -0.2252
     38  C25       14.6490    9.0450   24.4560 C.3   9001  03P9001     0.0334
@<TRIPOS>BOND
     1    15    36    1
     2     2     6    1
     3     2     7   am
     4    35    36    1
     5    35     7    1
     6     6     5    1
     7    38    36    1
     8    36    37    1
     9     7    34    2
    10     3     4    2
    11     3    33    1
    12     4    31    1
    13     5    33    1
    14    33    30    1
    15    31    30    1
    16    31    32    2
    17    30    28    1
    18    32    29    1
    19    28    27    1
    20    28     1    2
    21    27     8    1
    22    10     8   ar
    23    10    26   ar
    24    29     1    1
    25     8    25   ar
    26    26     9   ar
    27    25    23   ar
    28    18    14    1
    29     9    23   ar
    30     9    22    1
    31    23    24    1
    32    22    21    1
    33    21    13   ar
    34    21    11   ar
    35    13    12   ar
    36    11    20   ar
    37    12    14    1
    38    12    19   ar
    39    14    17    1
    40    14    16    1
    41    20    19   ar
