@<TRIPOS>MOLECULE
3rcf_BS4_A_1.pdb
 19 20 0 0 0
SMALL
GASTEIGER

@<TRIPOS>ATOM
      1  NAA        8.3290   20.5350   18.7700 N.pl3   1  BS41       -0.1281
      2  OAB        8.9960   26.2920   15.5840 O.2     1  BS41       -0.2667
      3  OAC        5.0640   24.5950   14.7060 O.2     1  BS41       -0.1482
      4  OAD        6.1450   26.2960   16.1900 O.2     1  BS41       -0.1482
      5  CAE       11.7480   25.7310   11.3660 C.ar    1  BS41        0.0000
      6  CAF       10.5850   24.9500   11.2420 C.ar    1  BS41        0.0001
      7  CAG       11.9320   26.5390   12.5030 C.ar    1  BS41        0.0001
      8  CAH        9.6060   24.9800   12.2500 C.ar    1  BS41        0.0046
      9  CAI       10.9550   26.5710   13.5150 C.ar    1  BS41        0.0046
     10  CAJ        7.5930   21.3970   16.6070 C.ar    1  BS41        0.0194
     11  CAK        7.6770   22.8970   18.5610 C.ar    1  BS41        0.0194
     12  CAL        7.1300   22.4580   15.8190 C.ar    1  BS41        0.0216
     13  CAM        7.2190   23.9500   17.7580 C.ar    1  BS41        0.0216
     14  NAN        7.5440   25.1650   14.1690 N.am    1  BS41       -0.0549
     15  CAO        8.7570   25.8090   14.4900 C.2     1  BS41        0.2857
     16  CAP        7.8710   21.6080   17.9860 C.ar    1  BS41        0.0892
     17  CAQ        9.7750   25.8050   13.3880 C.ar    1  BS41        0.0567
     18  CAR        6.9380   23.7350   16.3910 C.ar    1  BS41        0.1272
     19  SAS        6.3620   25.0380   15.3620 S.O2    1  BS41        0.0956
@<TRIPOS>BOND
     1     6     5   ar
     2     6     8   ar
     3     5     7   ar
     4     8    17   ar
     5     7     9   ar
     6    17     9   ar
     7    17    15    1
     8    14    15   am
     9    14    19    1
    10    15     2    2
    11     3    19    2
    12    19     4    2
    13    19    18    1
    14    12    18   ar
    15    12    10   ar
    16    18    13   ar
    17    10    16   ar
    18    13    11   ar
    19    16    11   ar
    20    16     1    1
