@<TRIPOS>MOLECULE
3rcg_DMF_A_1.pdb
 12 11 0 0 0
SMALL
GASTEIGER

@<TRIPOS>ATOM
      1  C1         8.7600   20.9800   18.2880 C.3     1  DMF1        0.0026
      2  C2         7.4070   22.7050   19.3570 C.3     1  DMF1        0.0026
      3  C          6.5620   20.4440   19.1800 C.2     1  DMF1        0.2020
      4  O          5.4780   20.6830   19.7890 O.2     1  DMF1       -0.2793
      5  N          7.5470   21.3030   18.9240 N.am    1  DMF1       -0.3101
      6  H11        9.5250   21.2110   18.8900 H       1  DMF1        0.0428
      7  H12        8.8430   21.5050   17.4410 H       1  DMF1        0.0428
      8  H13        8.8240   19.9910   18.1560 H       1  DMF1        0.0428
      9  H21        6.4630   23.0060   19.2190 H       1  DMF1        0.0428
     10  H22        7.4990   23.3090   18.5650 H       1  DMF1        0.0428
     11  H23        8.1530   22.9380   19.9810 H       1  DMF1        0.0428
     12  HC         6.7120   19.4620   19.0720 H       1  DMF1        0.1253
@<TRIPOS>BOND
     1     7     1    1
     2     8     1    1
     3     1     6    1
     4     1     5    1
     5    10     2    1
     6     5     3   am
     7     5     2    1
     8    12     3    1
     9     3     4    2
    10     9     2    1
    11     2    11    1
