@<TRIPOS>MOLECULE
3rch_PLP_B_1.pdb
 16 16 0 0 0
SMALL
GASTEIGER

@<TRIPOS>ATOM
      1  N1        43.5760   13.7430  -13.2310 N.ar  481  PLP481     -0.2452
      2  C2        44.4180   12.9010  -13.9240 C.ar  481  PLP481      0.0982
      3  C2A       43.9990   12.4180  -15.2810 C.3   481  PLP481      0.0555
      4  C3        45.6360   12.5180  -13.3580 C.ar  481  PLP481      0.2120
      5  O3        46.5120   11.6850  -14.0060 O.3   481  PLP481     -0.2852
      6  C4        45.9870   12.9730  -12.0980 C.ar  481  PLP481      0.0822
      7  C4A       47.4050   12.8060  -11.6220 C.2   481  PLP481      0.2372
      8  O4A       47.7920   11.7350  -11.1300 O.2   481  PLP481     -0.2830
      9  C5        45.1250   13.8130  -11.4170 C.ar  481  PLP481      0.0333
     10  C6        43.9170   14.1990  -11.9780 C.ar  481  PLP481      0.0969
     11  C5A       45.5150   14.3020  -10.0520 C.3   481  PLP481      0.1819
     12  O4P       46.6230   15.1570  -10.1390 O.3   481  PLP481     -0.2653
     13  P         47.0650   15.8790   -8.7780 P.3   481  PLP481      0.5329
     14  O1P       47.5870   14.7800   -7.8870 O.3   481  PLP481     -0.1145
     15  O2P       45.8880   16.5170   -8.0660 O.3   481  PLP481     -0.1145
     16  O3P       48.1530   16.8870   -9.0750 O.2   481  PLP481     -0.2224
@<TRIPOS>BOND
     1     3     2    1
     2     5     4    1
     3     2     4   ar
     4     2     1   ar
     5     4     6   ar
     6     1    10   ar
     7     6     7    1
     8     6     9   ar
     9    10     9   ar
    10     7     8    2
    11     9    11    1
    12    12    11    1
    13    12    13    1
    14    16    13    2
    15    13    15    1
    16    13    14    1
