@<TRIPOS>MOLECULE
3rcj_3RC_A_1.pdb
 21 24 0 0 0
SMALL
GASTEIGER

@<TRIPOS>ATOM
      1  C1       -14.1980  -26.7270   -8.9080 C.2     0  3RC0        0.0221
      2  C2       -12.8720  -26.9930   -8.5130 C.2     0  3RC0        0.1096
      3  N3       -12.1740  -26.1000   -7.7970 N.2     0  3RC0       -0.1922
      4  C4       -14.7880  -25.5030   -8.5380 C.2     0  3RC0        0.0117
      5  C5       -14.0290  -24.5710   -7.7790 C.2     0  3RC0        0.0652
      6  C6       -12.6870  -24.9130   -7.4170 C.1     0  3RC0        0.0353
      7  N7       -12.1820  -23.8680   -6.7030 N.2     0  3RC0       -0.1922
      8  C8       -13.1110  -22.8790   -6.5800 C.2     0  3RC0        0.1115
      9  C9       -14.2660  -23.2280   -7.2050 C.2     0  3RC0        0.0458
     10  C10      -15.4990  -22.3870   -7.2590 C.2     0  3RC0        0.0993
     11  N11      -15.6460  -21.1700   -6.7040 N.2     0  3RC0       -0.1496
     12  N12      -16.8360  -20.7400   -6.9380 N.pl3   0  3RC0       -0.0625
     13  N13      -17.4980  -21.6030   -7.6210 N.3     0  3RC0       -0.1586
     14  C14      -16.6990  -22.6710   -7.8550 C.3     0  3RC0        0.1430
     15  C15      -18.8900  -21.4570   -8.0720 C.3     0  3RC0        0.1221
     16  C16      -18.9440  -20.4530   -9.1900 C.ar    0  3RC0       -0.0044
     17  C17      -18.8830  -20.8880  -10.5270 C.ar    0  3RC0       -0.0029
     18  C18      -18.9300  -19.9510  -11.5750 C.ar    0  3RC0       -0.0003
     19  C19      -19.0400  -18.5760  -11.2850 C.ar    0  3RC0       -0.0000
     20  C20      -19.1030  -18.1350   -9.9440 C.ar    0  3RC0       -0.0003
     21  C21      -19.0550  -19.0760   -8.8960 C.ar    0  3RC0       -0.0029
@<TRIPOS>BOND
     1    18    19   ar
     2    18    17   ar
     3    19    20   ar
     4    17    16   ar
     5    20    21   ar
     6    16    21   ar
     7    16    15    1
     8     1     4    1
     9     1     2    2
    10     4     5    2
    11     2     3    1
    12    15    13    1
    13    14    13    1
    14    14    10    1
    15     3     6    2
    16     5     6    1
    17     5     9    1
    18    13    12    1
    19     6     7    2
    20    10     9    1
    21    10    11    2
    22     9     8    2
    23    12    11    1
    24     7     8    1
