@<TRIPOS>MOLECULE
3rcl_5AO_A_1.pdb
 12 13 0 0 0
SMALL
GASTEIGER

@<TRIPOS>ATOM
      1  NAA        0.8920   15.0430   23.7340 N.pl3   1  5AO1       -0.1281
      2  CAB        1.8100   16.5480   20.5690 C.ar    1  5AO1        0.0015
      3  CAC        1.8910   16.1270   21.8930 C.ar    1  5AO1        0.0181
      4  CAD        0.6660   16.2790   19.8200 C.ar    1  5AO1        0.0032
      5  CAE       -3.5330   14.4970   19.1650 C.ar    1  5AO1        0.2851
      6  CAF       -1.8920   15.7070   18.4270 C.ar    1  5AO1        0.1396
      7  CAG       -0.3180   15.1780   21.7160 C.ar    1  5AO1        0.0211
      8  NAH       -3.0900   15.2060   18.1280 N.ar    1  5AO1       -0.2026
      9  OAI       -2.5730   14.5530   20.1470 O.2     1  5AO1       -0.4311
     10  CAJ        0.8240   15.4440   22.4690 C.ar    1  5AO1        0.0892
     11  CAK       -0.4050   15.5930   20.3910 C.ar    1  5AO1        0.0375
     12  CAL       -1.5600   15.3160   19.6560 C.ar    1  5AO1        0.1664
@<TRIPOS>BOND
     1     8     6   ar
     2     8     5   ar
     3     6    12   ar
     4     5     9   ar
     5    12     9   ar
     6    12    11    1
     7     4    11   ar
     8     4     2   ar
     9    11     7   ar
    10     2     3   ar
    11     7    10   ar
    12     3    10   ar
    13    10     1    1
