@<TRIPOS>MOLECULE
3rcy_RIB_A_1.pdb
 10 10 0 0 0
SMALL
GASTEIGER

@<TRIPOS>ATOM
      1  O5'       34.8970   55.1040   18.2250 O.3   505  RIB505     -0.2176
      2  C5'       34.2240   55.2870   19.4750 C.3   505  RIB505      0.2142
      3  C4'       34.3860   56.7380   19.8900 C.3   505  RIB505      0.1837
      4  O4'       35.2460   56.8060   21.0260 O.3   505  RIB505     -0.3236
      5  C3'       35.0380   57.5250   18.7710 C.3   505  RIB505      0.2169
      6  O3'       34.1090   58.5080   18.2780 O.3   505  RIB505     -0.2175
      7  C2'       36.3160   58.0980   19.3670 C.3   505  RIB505      0.2433
      8  O2'       36.3990   59.5060   19.1850 O.3   505  RIB505     -0.2148
      9  C1'       36.2560   57.8000   20.8560 C.3   505  RIB505      0.3024
     10  O1'       37.5150   57.3350   21.3790 O.3   505  RIB505     -0.1869
@<TRIPOS>BOND
     1     1     2    1
     2     6     5    1
     3     5     7    1
     4     5     3    1
     5     8     7    1
     6     7     9    1
     7     2     3    1
     8     3     4    1
     9     9     4    1
    10     9    10    1
