@<TRIPOS>MOLECULE
3rd0_EDP_A_1.pdb
 16 16 0 0 0
SMALL
GASTEIGER

@<TRIPOS>ATOM
      1  C1        34.4950   -0.2260   34.9800 C.3   175  EDP175      0.2078
      2  C2        34.3540    1.1310   34.3400 C.1   175  EDP175      0.2048
      3  N3        34.7580    1.3620   33.0840 N.2   175  EDP175     -0.2619
      4  C4        35.3160    0.4130   32.3260 C.1   175  EDP175      0.2005
      5  N5        35.4980   -0.8250   32.7900 N.2   175  EDP175     -0.2619
      6  C6        35.1430   -1.1850   34.0270 C.1   175  EDP175      0.2048
      7  O7        35.3400   -2.3630   34.3980 O.2   175  EDP175     -0.2124
      8  O8        33.8490    2.0810   34.9750 O.2   175  EDP175     -0.2124
      9  S9        35.7740    0.7650   30.8380 S.2   175  EDP175      0.0589
     10  C12       35.3920   -0.1380   36.2100 C.3   175  EDP175      0.0335
     11  C13       34.6700   -0.5480   37.4770 C.3   175  EDP175      0.0023
     12  C14       33.1150   -0.7990   35.3370 C.3   175  EDP175      0.0314
     13  C15       32.5820   -1.7090   34.2330 C.3   175  EDP175      0.0023
     14  C16       32.0870    0.2720   35.6960 C.3   175  EDP175      0.0022
     15  C17       30.6820   -0.2970   35.8660 C.3   175  EDP175      0.0001
     16  C18       29.7740    0.1330   34.7310 C.3   175  EDP175      0.0000
@<TRIPOS>BOND
     1     9     4    2
     2     4     5    2
     3     4     3    2
     4     5     6    2
     5     3     2    2
     6     6     7    2
     7     6     1    1
     8    13    12    1
     9     2     8    2
    10     2     1    1
    11    16    15    1
    12     1    12    1
    13     1    10    1
    14    12    14    1
    15    14    15    1
    16    10    11    1
