@<TRIPOS>MOLECULE
3rd1_GDP_A_1.pdb
 28 30 0 0 0
SMALL
GASTEIGER

@<TRIPOS>ATOM
      1  PB        48.3280   14.2740   24.0770 P.3   172  GDP172      0.5373
      2  O1B       47.6010   13.6190   25.2280 O.3   172  GDP172     -0.1143
      3  O2B       49.8160   14.4050   24.4060 O.3   172  GDP172     -0.1143
      4  O3B       48.0870   13.4460   22.8270 O.2   172  GDP172     -0.2221
      5  O3A       47.8460   15.7920   23.9380 O.3   172  GDP172     -0.2261
      6  PA        46.7510   16.3770   22.9100 P.3   172  GDP172      0.2231
      7  O1A       45.4780   15.5600   22.8870 O.3   172  GDP172     -0.4370
      8  O2A       47.3910   16.5970   21.5620 O.2   172  GDP172     -0.5169
      9  O5'       46.5120   17.8410   23.5180 O.3   172  GDP172     -0.3111
     10  C5'       46.0590   18.0360   24.8550 C.3   172  GDP172      0.1813
     11  C4'       45.3950   19.3950   24.9870 C.3   172  GDP172      0.1799
     12  O4'       46.3680   20.4360   24.8900 O.3   172  GDP172     -0.3326
     13  C3'       44.4020   19.6680   23.8710 C.3   172  GDP172      0.2158
     14  O3'       43.3760   20.4870   24.4480 O.3   172  GDP172     -0.2175
     15  C2'       45.1500   20.4680   22.8450 C.3   172  GDP172      0.2310
     16  O2'       44.3200   21.2710   21.9800 O.3   172  GDP172     -0.2158
     17  C1'       46.0500   21.2730   23.7660 C.3   172  GDP172      0.2293
     18  N9        47.2980   21.6720   23.1300 N.pl3 172  GDP172     -0.2354
     19  C8        48.1580   20.8740   22.4550 C.3   172  GDP172      0.2246
     20  N7        49.2110   21.5980   22.0190 N.2   172  GDP172     -0.2322
     21  C5        49.0180   22.8720   22.4380 C.2   172  GDP172      0.2182
     22  C6        49.7590   24.1410   22.3460 C.1   172  GDP172      0.2372
     23  O6        50.8490   24.2210   21.7300 O.2   172  GDP172     -0.2069
     24  N1        49.2140   25.2150   22.9330 N.2   172  GDP172     -0.2485
     25  C2        48.0470   25.2000   23.5940 C.1   172  GDP172      0.2531
     26  N2        47.6040   26.3570   24.1500 N.pl3 172  GDP172     -0.0226
     27  N3        47.2900   24.0750   23.7280 N.2   172  GDP172     -0.3074
     28  C4        47.7510   22.9130   23.1690 C.2   172  GDP172      0.2300
@<TRIPOS>BOND
     1     8     6    2
     2    23    22    2
     3    16    15    1
     4    20    21    2
     5    20    19    1
     6    22    21    1
     7    22    24    2
     8    21    28    1
     9    19    18    1
    10     4     1    2
    11    15    17    1
    12    15    13    1
    13     7     6    1
    14     6     9    1
    15     6     5    1
    16    24    25    2
    17    18    28    1
    18    18    17    1
    19    28    27    2
    20     9    10    1
    21    25    27    2
    22    25    26    1
    23    17    12    1
    24    13    14    1
    25    13    11    1
    26     5     1    1
    27     1     3    1
    28     1     2    1
    29    10    11    1
    30    12    11    1
