@<TRIPOS>MOLECULE
3rd9_MSY_X_1.pdb
 17 18 0 0 0
SMALL
GASTEIGER

@<TRIPOS>ATOM
      1  N          3.2600   21.7710   18.8260 N.3   301  MSY301      0.0392
      2  S          4.5760   20.6080   18.6040 S.O2  301  MSY301      0.0935
      3  O1         5.2400   20.3030   19.9230 O.2   301  MSY301     -0.1503
      4  O2         5.5980   21.1880   17.6470 O.2   301  MSY301     -0.1503
      5  CA1        3.9480   19.1700   17.9340 C.ar  301  MSY301      0.1263
      6  CA2        3.9500   19.0820   16.5340 C.ar  301  MSY301      0.0368
      7  CA3        3.4450   17.9270   15.9200 C.ar  301  MSY301      0.0781
      8  CA4        2.9380   16.8570   16.6940 C.ar  301  MSY301      0.0169
      9  CA5        2.9400   16.9580   18.1000 C.ar  301  MSY301      0.0027
     10  CA6        3.4490   18.1140   18.7250 C.ar  301  MSY301      0.0201
     11  NB1        3.4770   17.9030   14.4590 N.am  301  MSY301     -0.1587
     12  NB2        3.3430   18.8990   13.7740 N.2   301  MSY301     -0.1798
     13  CME        3.2980   19.5800   11.3660 C.3   301  MSY301      0.0494
     14  CP3        3.4270   18.5790   12.4040 C.2   301  MSY301      0.0643
     15  CP4        3.6560   17.1540   12.1810 C.3   301  MSY301      0.1301
     16  CP5        3.6890   16.6840   13.6240 C.2   301  MSY301      0.2540
     17  OPY        3.8620   15.5550   14.0360 O.2   301  MSY301     -0.2724
@<TRIPOS>BOND
     1    13    14    1
     2    15    14    1
     3    15    16    1
     4    14    12    2
     5    16    17    2
     6    16    11   am
     7    12    11    1
     8    11     7    1
     9     7     6   ar
    10     7     8   ar
    11     6     5   ar
    12     8     9   ar
    13     4     2    2
    14     5     2    1
    15     5    10   ar
    16     9    10   ar
    17     2     1    1
    18     2     3    2
