@<TRIPOS>MOLECULE
3rdb_5MZ_A_1.pdb
 14 15 0 0 0
SMALL
GASTEIGER

@<TRIPOS>ATOM
      1  NAA        1.3900   15.3330   23.5570 N.pl3 208  5MZ208     -0.1280
      2 CLAB       -5.2000   13.4310   21.4130 Cl    208  5MZ208     -0.1018
      3  CAC        1.8840   16.6170   20.1760 C.ar  208  5MZ208      0.0021
      4  CAD        2.1110   16.2700   21.4920 C.ar  208  5MZ208      0.0181
      5  CAE        0.6580   16.3030   19.6110 C.ar  208  5MZ208      0.0112
      6  CAF       -0.0710   15.3460   21.6970 C.ar  208  5MZ208      0.0292
      7  CAG       -4.7480   13.6630   19.6940 C.3   208  5MZ208      0.1968
      8  NAH       -1.8710   15.6120   18.5490 N.2   208  5MZ208     -0.0072
      9  NAI       -2.4650   14.6060   20.4080 N.2   208  5MZ208     -0.3113
     10  OAJ       -3.1150   15.0410   18.3550 O.2   208  5MZ208     -0.3142
     11  CAK        1.1620   15.6300   22.2740 C.ar  208  5MZ208      0.0898
     12  CAL       -0.3160   15.6880   20.3880 C.ar  208  5MZ208      0.0784
     13  CAM       -3.4440   14.4250   19.5280 C.2   208  5MZ208      0.3101
     14  CAN       -1.5210   15.3410   19.8160 C.1   208  5MZ208      0.1269
@<TRIPOS>BOND
     1    10     8    1
     2    10    13    1
     3     8    14    2
     4    13     7    1
     5    13     9    2
     6     5     3   ar
     7     5    12   ar
     8     7     2    1
     9    14    12    1
    10    14     9    2
    11     3     4   ar
    12    12     6   ar
    13     4    11   ar
    14     6    11   ar
    15    11     1    1
