@<TRIPOS>MOLECULE
3rdc_EA4_A_1.pdb
 18 18 0 0 0
SMALL
GASTEIGER

@<TRIPOS>ATOM
      1  C          5.2940   20.4930   18.3120 C.2     1  EA41        0.3394
      2  N          3.0520   19.7550   17.7250 N.am    1  EA41       -0.1751
      3  O          5.0530   20.0520   19.4410 O.2     1  EA41       -0.2481
      4  CA         4.2610   20.3830   17.1910 C.3     1  EA41        0.2256
      5  CAA        8.6450   21.8410   18.4950 C.3     1  EA41        0.0513
      6  NAB        0.9070   14.8470   23.4340 N.pl3   1  EA41       -0.1281
      7  OAC        3.5580   17.7110   16.9520 O.2     1  EA41       -0.2492
      8  CAE        2.0290   16.0260   21.7490 C.ar    1  EA41        0.0178
      9  CAF       -0.0680   14.9410   21.2780 C.ar    1  EA41        0.0178
     10  CAG        2.1000   16.4680   20.4390 C.ar    1  EA41       -0.0012
     11  CAH       -0.0100   15.3950   19.9610 C.ar    1  EA41       -0.0012
     12  CAI        7.5360   20.8870   18.9350 C.3     1  EA41        0.2086
     13  CAK        1.1800   16.6580   18.0960 C.3     1  EA41        0.1432
     14  NAM        1.6480   18.0460   18.1260 N.am    1  EA41       -0.1823
     15  OAN        6.4660   21.1180   18.0130 O.3     1  EA41       -0.4473
     16  CAO        2.7930   18.4610   17.5710 C.2     1  EA41        0.3401
     17  CAQ        0.9510   15.2600   22.1710 C.ar    1  EA41        0.0891
     18  CAR        1.0840   16.1530   19.5380 C.ar    1  EA41       -0.0004
@<TRIPOS>BOND
     1     7    16    2
     2     4     2    1
     3     4     1    1
     4    16     2   am
     5    16    14   am
     6    15     1    1
     7    15    12    1
     8    13    14    1
     9    13    18    1
    10     1     3    2
    11     5    12    1
    12    18    11   ar
    13    18    10   ar
    14    11     9   ar
    15    10     8   ar
    16     9    17   ar
    17     8    17   ar
    18    17     6    1
