@<TRIPOS>MOLECULE
3rdd_EA4_A_1.pdb
 18 18 0 0 0
SMALL
GASTEIGER

@<TRIPOS>ATOM
      1  C         -0.8240   14.5870   -4.5820 C.2   166  EA4166      0.3394
      2  N         -0.9040   16.9900   -4.3640 N.am  166  EA4166     -0.1751
      3  O         -1.9770   14.6400   -5.0050 O.2   166  EA4166     -0.2481
      4  CA        -0.0850   15.8220   -4.1150 C.3   166  EA4166      0.2256
      5  CAA        0.0310   11.1110   -4.4420 C.3   166  EA4166      0.0513
      6  NAB       -6.6800   20.3830   -8.6200 N.pl3 166  EA4166     -0.1281
      7  OAC        0.1840   17.5950   -6.2500 O.2   166  EA4166     -0.2492
      8  CAE       -4.9650   18.9780   -7.8640 C.ar  166  EA4166      0.0178
      9  CAF       -4.6730   21.3590   -7.9060 C.ar  166  EA4166      0.0178
     10  CAG       -3.6900   18.8240   -7.3450 C.ar  166  EA4166     -0.0012
     11  CAH       -3.3910   21.2090   -7.3890 C.ar  166  EA4166     -0.0012
     12  CAI       -0.8060   12.2690   -5.0110 C.3   166  EA4166      0.2086
     13  CAK       -1.4850   19.7930   -6.5570 C.3   166  EA4166      0.1432
     14  NAM       -1.5260   18.8290   -5.4760 N.am  166  EA4166     -0.1823
     15  OAN       -0.1460   13.4250   -4.4690 O.3   166  EA4166     -0.4473
     16  CAO       -0.7020   17.7920   -5.4090 C.2   166  EA4166      0.3401
     17  CAQ       -5.4580   20.2440   -8.1380 C.ar  166  EA4166      0.0891
     18  CAR       -2.9020   19.9460   -7.1110 C.ar  166  EA4166     -0.0004
@<TRIPOS>BOND
     1     6    17    1
     2    17     9   ar
     3    17     8   ar
     4     9    11   ar
     5     8    10   ar
     6    11    18   ar
     7    10    18   ar
     8    18    13    1
     9    13    14    1
    10     7    16    2
    11    14    16   am
    12    16     2   am
    13    12    15    1
    14    12     5    1
    15     3     1    2
    16     1    15    1
    17     1     4    1
    18     2     4    1
