@<TRIPOS>MOLECULE
3rde_OYP_A_1.pdb
 26 26 0 0 0
SMALL
GASTEIGER

@<TRIPOS>ATOM
      1  C1       -13.4790  -41.8670  -46.0450 C.ar  664  OYP664     -0.0022
      2  O1       -14.6870  -44.9130  -48.2740 O.co2 664  OYP664     -0.2456
      3  C2       -14.3280  -41.0010  -45.3650 C.ar  664  OYP664      0.0073
      4  O2       -16.8910  -44.6380  -48.2960 O.co2 664  OYP664     -0.2456
      5  C3       -15.4230  -41.5030  -44.6810 C.ar  664  OYP664     -0.0022
      6  O3       -13.5500  -39.1440  -44.2910 O.3   664  OYP664     -0.3352
      7  C4       -15.6310  -42.8880  -44.7060 C.ar  664  OYP664     -0.0045
      8  C5       -14.7880  -43.7470  -45.3910 C.ar  664  OYP664     -0.0216
      9  C6       -13.7240  -43.2400  -46.0910 C.ar  664  OYP664     -0.0045
     10  C7       -14.9950  -45.2400  -45.3870 C.3   664  OYP664      0.0382
     11  C8       -16.0620  -45.6190  -46.3600 C.3   664  OYP664      0.1187
     12  C9       -15.8950  -45.0240  -47.7120 C.2   664  OYP664      0.3652
     13  C10      -13.9700  -39.5730  -45.4820 C.3   664  OYP664      0.1700
     14  C11      -13.3450  -37.7450  -44.1100 C.3   664  OYP664      0.2181
     15  C12      -11.9180  -37.4940  -43.8210 C.1   664  OYP664     -0.0585
     16  C13      -10.7610  -37.2650  -43.7480 C.1   664  OYP664     -0.0886
     17  C14       -9.3490  -36.9300  -43.5090 C.3   664  OYP664      0.0761
     18  C15       -8.3730  -38.0910  -43.6220 C.3   664  OYP664      0.0139
     19  C16       -8.4830  -38.8670  -44.8790 C.3   664  OYP664      0.0010
     20  C17       -7.6380  -40.1650  -44.9960 C.3   664  OYP664      0.0000
     21  C18       -7.6250  -40.7730  -46.3790 C.3   664  OYP664      0.0000
     22  C19       -6.6500  -41.9590  -46.5240 C.3   664  OYP664      0.0000
     23  C20       -7.0010  -42.7230  -47.8230 C.3   664  OYP664      0.0000
     24  C21       -6.1660  -43.9530  -48.1700 C.3   664  OYP664      0.0000
     25  C22       -6.1040  -44.9450  -46.9970 C.3   664  OYP664      0.0000
     26  C23       -5.3860  -46.2550  -47.3970 C.3   664  OYP664      0.0000
@<TRIPOS>BOND
     1     4    12   ar
     2     2    12   ar
     3    24    23    1
     4    24    25    1
     5    23    22    1
     6    12    11    1
     7    26    25    1
     8    22    21    1
     9    21    20    1
    10    11    10    1
    11     9     1   ar
    12     9     8   ar
    13     1     3   ar
    14    13     3    1
    15    13     6    1
    16     8    10    1
    17     8     7   ar
    18     3     5   ar
    19    20    19    1
    20    19    18    1
    21     7     5   ar
    22     6    14    1
    23    14    15    1
    24    15    16    3
    25    16    17    1
    26    18    17    1
