@<TRIPOS>MOLECULE
3rdh_3RD_A_1.pdb
 17 17 0 0 0
SMALL
GASTEIGER

@<TRIPOS>ATOM
      1  C1       -82.7310   66.1860   10.6760 C.2   246  3RD246      0.2205
      2  C2       -83.8610   65.3260   10.8130 C.2   246  3RD246      0.1491
      3  N2       -84.0930   64.3440    9.8940 N.2   246  3RD246     -0.3890
      4  C3       -83.2860   64.1190    8.8120 C.2   246  3RD246      0.2025
      5  C4       -82.1120   64.9270    8.5750 C.3   246  3RD246      0.1288
      6  C5       -81.8500   65.9850    9.5460 C.2   246  3RD246      0.0714
      7  C6       -80.6120   66.9330    9.4020 C.2   246  3RD246      0.2337
      8  O1       -80.1250   67.4770   10.4120 O.2   246  3RD246     -0.2834
      9  O2       -82.5060   67.1730   11.6040 O.2   246  3RD246     -0.2844
     10  C7       -84.8390   65.4750   11.9890 C.3   246  3RD246      0.0699
     11  C8       -81.1760   64.6820    7.3560 C.3   246  3RD246      0.1668
     12  O3       -80.4420   63.5880    7.9540 O.3   246  3RD246     -0.2694
     13  P1       -79.2270   62.6340    7.4780 P.3   246  3RD246      0.5326
     14  O4       -78.6550   63.0520    6.1780 O.2   246  3RD246     -0.2224
     15  O5       -79.9350   61.1900    7.2990 O.3   246  3RD246     -0.1145
     16  O6       -78.1370   62.5320    8.6590 O.3   246  3RD246     -0.1145
     17  N3       -83.7470   63.1040    8.0800 N.pl3 246  3RD246     -0.0976
@<TRIPOS>BOND
     1    14    13    2
     2    15    13    1
     3    11    12    1
     4    11     5    1
     5    13    12    1
     6    13    16    1
     7    17     4    1
     8     5     4    1
     9     5     6    1
    10     4     3    2
    11     7     6    1
    12     7     8    2
    13     6     1    2
    14     3     2    2
    15     1     2    1
    16     1     9    1
    17     2    10    1
