@<TRIPOS>MOLECULE
3rdi_CMP_A_1.pdb
 22 25 0 0 0
SMALL
GASTEIGER

@<TRIPOS>ATOM
      1  P         39.7280   40.8210   51.6710 P.3   301  CMP301      0.2141
      2  O1P       39.1370   39.8740   50.6710 O.2   301  CMP301     -0.5172
      3  O2P       40.1600   40.3270   52.9860 O.3   301  CMP301     -0.4373
      4  O5'       41.0970   41.3580   50.9220 O.3   301  CMP301     -0.3114
      5  C5'       41.2370   42.6400   50.2350 C.3   301  CMP301      0.1812
      6  C4'       40.0100   43.5700   50.2240 C.3   301  CMP301      0.1793
      7  O4'       39.6310   43.9600   48.9540 O.3   301  CMP301     -0.3136
      8  C3'       38.7820   42.8650   50.6140 C.3   301  CMP301      0.1884
      9  O3'       38.8710   42.1760   51.8400 O.3   301  CMP301     -0.3111
     10  C2'       37.7590   43.8400   50.3440 C.3   301  CMP301      0.2541
     11  O2'       37.7130   44.8030   51.3550 O.3   301  CMP301     -0.2131
     12  C1'       38.3310   44.5310   49.0990 C.3   301  CMP301      0.3185
     13  N9        37.5770   44.1430   47.8440 N.pl3 301  CMP301     -0.1439
     14  C8        37.6940   42.9550   47.0860 C.3   301  CMP301      0.3377
     15  N7        36.9010   42.8690   46.0480 N.2   301  CMP301     -0.2095
     16  C5        36.2010   44.0850   46.1100 C.2   301  CMP301      0.2526
     17  C6        35.1830   44.6520   45.2990 C.2   301  CMP301      0.4393
     18  N6        34.6830   44.0130   44.2300 N.pl3 301  CMP301      0.2180
     19  N1        34.7010   45.8840   45.6310 N.2   301  CMP301      0.0021
     20  C2        35.2000   46.5110   46.7070 C.3   301  CMP301      0.5254
     21  N3        36.1280   46.1070   47.5410 N.2   301  CMP301     -0.0055
     22  C4        36.6090   44.8610   47.1900 C.2   301  CMP301      0.3518
@<TRIPOS>BOND
     1    18    17    1
     2    17    19    2
     3    17    16    1
     4    19    20    1
     5    15    16    2
     6    15    14    1
     7    16    22    1
     8    20    21    1
     9    14    13    1
    10    22    21    2
    11    22    13    1
    12    13    12    1
    13     7    12    1
    14     7     6    1
    15    12    10    1
    16     6     5    1
    17     6     8    1
    18     5     4    1
    19    10     8    1
    20    10    11    1
    21     8     9    1
    22     2     1    2
    23     4     1    1
    24     1     9    1
    25     1     3    1
