@<TRIPOS>MOLECULE
3rdm_BTN_A_1.pdb
 16 17 0 0 0
SMALL
GASTEIGER

@<TRIPOS>ATOM
      1  C11      -19.8910  -24.8690  -13.9680 C.2   300  BTN300      0.3649
      2  O11      -19.8860  -25.8470  -14.7370 O.co2 300  BTN300     -0.2457
      3  O12      -20.9940  -24.3920  -13.6060 O.co2 300  BTN300     -0.2457
      4  C10      -18.5840  -24.2890  -13.4820 C.3   300  BTN300      0.1141
      5  C9       -17.6850  -25.3940  -12.9330 C.3   300  BTN300      0.0118
      6  C8       -18.3060  -26.0430  -11.7010 C.3   300  BTN300      0.0015
      7  C7       -17.3330  -26.9530  -10.9530 C.3   300  BTN300      0.0129
      8  C2       -18.0550  -27.6400   -9.7940 C.3   300  BTN300      0.0729
      9  S1       -17.9880  -26.7380   -8.3880 S.3   300  BTN300     -0.1369
     10  C6       -18.5400  -28.2090   -7.4890 C.3   300  BTN300      0.0848
     11  C5       -17.8470  -29.4170   -8.0790 C.3   300  BTN300      0.1509
     12  N1       -16.5560  -29.6130   -7.4510 N.2   300  BTN300     -0.1859
     13  C3       -15.5740  -29.3340   -8.3000 C.1   300  BTN300      0.2386
     14  O3       -14.2130  -29.3350   -7.9740 O.2   300  BTN300     -0.2023
     15  N2       -16.0520  -29.0390   -9.5030 N.2   300  BTN300     -0.1860
     16  C4       -17.4980  -29.0290   -9.5050 C.3   300  BTN300      0.1500
@<TRIPOS>BOND
     1     2     1   ar
     2     1     3   ar
     3     1     4    1
     4     4     5    1
     5     5     6    1
     6     6     7    1
     7     7     8    1
     8     8    16    1
     9     8     9    1
    10    16    15    1
    11    16    11    1
    12    15    13    2
    13     9    10    1
    14    13    14    2
    15    13    12    2
    16    11    10    1
    17    11    12    1
