@<TRIPOS>MOLECULE
3rdo_BTN_A_1.pdb
 16 17 0 0 0
SMALL
GASTEIGER

@<TRIPOS>ATOM
      1  C11      -24.4410  -19.6750   14.3640 C.2   300  BTN300      0.3649
      2  O11      -23.8120  -20.7430   14.1980 O.co2 300  BTN300     -0.2457
      3  O12      -25.4260  -19.6630   15.1460 O.co2 300  BTN300     -0.2457
      4  C10      -23.9890  -18.4020   13.6940 C.3   300  BTN300      0.1141
      5  C9       -25.1660  -17.5860   13.1570 C.3   300  BTN300      0.0118
      6  C8       -25.8300  -18.2890   11.9640 C.3   300  BTN300      0.0015
      7  C7       -26.9730  -17.4360   11.4130 C.3   300  BTN300      0.0129
      8  C2       -27.5900  -18.0400   10.1280 C.3   300  BTN300      0.0729
      9  S1       -26.6390  -17.9760    8.6980 S.3   300  BTN300     -0.1369
     10  C6       -28.0780  -18.5030    7.7250 C.3   300  BTN300      0.0848
     11  C5       -29.2640  -17.7400    8.3090 C.3   300  BTN300      0.1509
     12  N1       -29.4290  -16.4380    7.7140 N.2   300  BTN300     -0.1859
     13  C3       -29.1930  -15.4960    8.5970 C.1   300  BTN300      0.2386
     14  O3       -29.2060  -14.1630    8.2800 O.2   300  BTN300     -0.2023
     15  N2       -28.9660  -15.9710    9.8160 N.2   300  BTN300     -0.1860
     16  C4       -28.9560  -17.4300    9.7770 C.3   300  BTN300      0.1500
@<TRIPOS>BOND
     1    12    11    1
     2    12    13    2
     3    10    11    1
     4    10     9    1
     5    14    13    2
     6    11    16    1
     7    13    15    2
     8     9     8    1
     9    16    15    1
    10    16     8    1
    11     8     7    1
    12     7     6    1
    13     6     5    1
    14     5     4    1
    15     4     1    1
    16     2     1   ar
    17     1     3   ar
