@<TRIPOS>MOLECULE
3rdp_NMF_A_1.pdb
 16 16 0 0 0
SMALL
GASTEIGER

@<TRIPOS>ATOM
      1  F         50.2780   25.1160   53.8770 F     601  NMF601     -0.2343
      2  C1        45.8170   26.2880   55.3250 C.1   601  NMF601      0.2823
      3  N1        46.9450   25.3680   55.2010 N.am  601  NMF601     -0.2071
      4  O1        45.8810   27.2090   56.1310 O.2   601  NMF601     -0.1919
      5  C2        44.7140   25.0440   53.6890 C.1   601  NMF601      0.2130
      6  N2        44.6870   26.0800   54.5220 N.2   601  NMF601     -0.2456
      7  O2        43.6230   24.8440   52.9240 O.2   601  NMF601     -0.2088
      8  C3        45.7870   24.1100   53.5240 C.2   601  NMF601      0.0837
      9  O3        50.3220   22.0150   51.6300 O.3   601  NMF601     -0.2203
     10  C4        45.6020   23.0150   52.5370 C.3   601  NMF601      0.0458
     11  C5        46.9140   24.2980   54.3080 C.2   601  NMF601      0.0485
     12  C6        48.0980   25.6320   56.0750 C.3   601  NMF601      0.1313
     13  C11       48.0800   23.3380   54.1670 C.3   601  NMF601      0.0480
     14  C12       48.9200   23.4460   52.8810 C.3   601  NMF601      0.0740
     15  C13       50.0920   22.4310   52.9460 C.3   601  NMF601      0.1852
     16  C14       49.5860   24.8270   52.7600 C.3   601  NMF601      0.1961
@<TRIPOS>BOND
     1     9    15    1
     2    10     8    1
     3    16    14    1
     4    16     1    1
     5    14    15    1
     6    14    13    1
     7     7     5    2
     8     8     5    1
     9     8    11    2
    10     5     6    2
    11    13    11    1
    12    11     3    1
    13     6     2    2
    14     3     2   am
    15     3    12    1
    16     2     4    2
