@<TRIPOS>MOLECULE
3rdq_DTB_A_1.pdb
 15 15 0 0 0
SMALL
GASTEIGER

@<TRIPOS>ATOM
      1  CN        15.4890   28.8780   -8.5450 C.1   300  DTB300      0.2386
      2  O         14.2310   29.1070   -8.2630 O.2   300  DTB300     -0.2023
      3  N2        15.9200   28.3420   -9.6280 N.2   300  DTB300     -0.1869
      4  CR        17.3930   28.4730   -9.7300 C.3   300  DTB300      0.1393
      5  CS        17.7610   28.9460   -8.3010 C.3   300  DTB300      0.1394
      6  N1        16.4590   29.2480   -7.7170 N.2   300  DTB300     -0.1869
      7  CT        18.4750   27.8900   -7.4800 C.3   300  DTB300      0.0293
      8  CE        17.9330   27.1070  -10.1580 C.3   300  DTB300      0.0272
      9  CD        17.5570   26.7890  -11.6120 C.3   300  DTB300      0.0021
     10  CG        18.3290   25.5810  -12.1590 C.3   300  DTB300      0.0006
     11  CB        17.6020   25.0070  -13.3870 C.3   300  DTB300      0.0118
     12  CA        18.4390   23.8930  -14.0620 C.3   300  DTB300      0.1141
     13  C         19.7530   24.4100  -14.6200 C.2   300  DTB300      0.3649
     14  OI1       20.8200   23.7920  -14.3990 O.co2 300  DTB300     -0.2457
     15  OI2       19.7370   25.4410  -15.3610 O.co2 300  DTB300     -0.2457
@<TRIPOS>BOND
     1    15    13   ar
     2    13    14   ar
     3    13    12    1
     4    12    11    1
     5    11    10    1
     6    10     9    1
     7     9     8    1
     8     8     4    1
     9     4     3    1
    10     4     5    1
    11     3     1    2
    12     1     2    2
    13     1     6    2
    14     5     6    1
    15     5     7    1
