@<TRIPOS>MOLECULE
3re4_TO1_A_1.pdb
 21 23 0 0 0
SMALL
GASTEIGER

@<TRIPOS>ATOM
      1  C          7.6150    2.1430   25.3360 C.3   259  TO1259      0.3212
      2  N          8.4730    2.2490   26.5260 N.pl3 259  TO1259     -0.1462
      3  O          7.3230    0.7890   24.9830 O.3   259  TO1259     -0.3132
      4  C2         8.4550    3.3000   27.3520 C.2   259  TO1259      0.3223
      5  N2         7.7570    4.4380   27.3360 N.2   259  TO1259     -0.0106
      6  O2         7.1600    3.3050   23.2260 O.3   259  TO1259     -0.2130
      7  C3         7.8870    5.3800   28.2490 C.3   259  TO1259      0.5248
      8  N3         8.7660    5.2100   29.2390 N.2   259  TO1259     -0.0027
      9  O3         8.4710    1.9290   21.9510 O.3   259  TO1259     -0.2174
     10  C4         9.5430    4.1360   29.4310 C.2   259  TO1259      0.4072
     11  N4        11.8030    0.6450   29.3760 N.1   259  TO1259     -0.1910
     12  O4        10.1110   -0.4940   24.1190 O.3   259  TO1259     -0.2176
     13  C5         9.4170    3.0680   28.4440 C.3   259  TO1259      0.2542
     14  N5        10.4240    3.9780   30.4450 N.pl3 259  TO1259      0.2117
     15  C6         9.9800    1.7500   28.0930 C.2   259  TO1259      0.1098
     16  C7         9.3460    1.2600   26.8910 C.2   259  TO1259      0.1845
     17  C8        10.8890    1.0860   28.8100 C.1   259  TO1259      0.1008
     18  C9         8.1970    2.7860   24.0920 C.3   259  TO1259      0.2573
     19  C10        8.7600    1.6430   23.3130 C.3   259  TO1259      0.2186
     20  C11        7.9180    0.4490   23.7190 C.3   259  TO1259      0.1851
     21  C12        8.7320   -0.8220   23.8840 C.3   259  TO1259      0.2143
@<TRIPOS>BOND
     1     9    19    1
     2     6    18    1
     3    19    20    1
     4    19    18    1
     5    20    21    1
     6    20     3    1
     7    21    12    1
     8    18     1    1
     9     3     1    1
    10     1     2    1
    11     2    16    1
    12     2     4    1
    13    16    15    2
    14     5     4    2
    15     5     7    1
    16     4    13    1
    17    15    13    1
    18    15    17    1
    19     7     8    1
    20    13    10    1
    21    17    11    3
    22     8    10    2
    23    10    14    1
