@<TRIPOS>MOLECULE
3re8_HEM_A_1.pdb
 43 50 0 0 0
SMALL
GASTEIGER

@<TRIPOS>ATOM
      1  CHA        8.7990   38.7880   85.1290 C.2     1  HEM1        0.0000
      2  CHB       10.3480   42.3560   82.1980 C.2     1  HEM1        0.0000
      3  CHC        7.6370   45.5250   84.7410 C.2     1  HEM1        0.0000
      4  CHD        5.4530   41.8030   86.9410 C.2     1  HEM1        0.0000
      5  C1A        9.4850   39.5000   84.1340 C.ar    1  HEM1        0.0000
      6  C2A       10.4630   38.8920   83.2470 C.ar    1  HEM1        0.0000
      7  C3A       10.9100   39.8860   82.4210 C.ar    1  HEM1        0.0000
      8  C4A       10.2070   41.1130   82.8210 C.ar    1  HEM1        0.0000
      9  CMA       11.9320   39.7370   81.2970 C.3     1  HEM1        0.0000
     10  CAA       10.8200   37.3950   83.2480 C.3     1  HEM1        0.0000
     11  CBA        9.7060   36.5900   82.5790 C.3     1  HEM1        0.0000
     12  CGA        9.9760   35.0960   82.5920 C.2     1  HEM1        0.0000
     13  O1A       11.1540   34.7240   82.4110 O.co2   1  HEM1        0.0000
     14  O2A        9.0150   34.3050   82.7650 O.co2   1  HEM1        0.0000
     15  C1B        9.6510   43.5160   82.5840 C.2     1  HEM1        0.0000
     16  C2B        9.7870   44.7990   81.9210 C.2     1  HEM1        0.0000
     17  C3B        9.0900   45.7060   82.6630 C.2     1  HEM1        0.0000
     18  C4B        8.4960   44.9630   83.7840 C.2     1  HEM1        0.0000
     19  CMB       10.5120   45.0640   80.5970 C.3     1  HEM1        0.0000
     20  CAB        8.8980   47.0830   82.4270 C.3     1  HEM1        0.0000
     21  CBB        8.8820   47.7860   81.1670 C.3     1  HEM1        0.0000
     22  C1C        6.8200   44.7710   85.6090 C.ar    1  HEM1        0.0000
     23  C2C        5.7280   45.3070   86.4330 C.ar    1  HEM1        0.0000
     24  C3C        4.9460   44.2630   86.8130 C.ar    1  HEM1        0.0000
     25  C4C        5.6980   43.0660   86.4190 C.ar    1  HEM1        0.0000
     26  CMC        5.6640   46.7190   87.0060 C.3     1  HEM1        0.0000
     27  CAC        3.7280   44.2690   87.5160 C.3     1  HEM1        0.0000
     28  CBC        2.4920   44.9290   87.1560 C.3     1  HEM1        0.0000
     29  C1D        6.2410   40.6740   86.7060 C.2     1  HEM1        0.0000
     30  C2D        5.9400   39.3700   87.2550 C.2     1  HEM1        0.0000
     31  C3D        6.8770   38.5480   86.7430 C.2     1  HEM1        0.0000
     32  C4D        7.7840   39.3230   85.9120 C.2     1  HEM1        0.0000
     33  CMD        4.8370   38.9680   88.2240 C.3     1  HEM1        0.0000
     34  CAD        6.9080   37.0780   87.0320 C.3     1  HEM1        0.0000
     35  CBD        6.0210   36.2590   86.1180 C.3     1  HEM1        0.0000
     36  CGD        6.0430   34.7950   86.4710 C.2     1  HEM1        0.0000
     37  O1D        5.6170   34.4710   87.5960 O.co2   1  HEM1        0.0000
     38  O2D        6.4850   33.9700   85.6340 O.co2   1  HEM1        0.0000
     39  NA         9.3210   40.8610   83.8590 N.ar    1  HEM1        0.0000
     40  NB         8.8120   43.6120   83.7050 N.2     1  HEM1        0.0000
     41  NC         6.8090   43.3850   85.6390 N.ar    1  HEM1        0.0000
     42  ND         7.3640   40.6330   85.8640 N.2     1  HEM1        0.0000
     43 FE          8.0920   42.1260   84.7700 Fe      1  HEM1        0.0000
@<TRIPOS>BOND
     1    19    16    1
     2    21    20    1
     3     9     7    1
     4    16    15    1
     5    16    17    2
     6     2    15    1
     7     2     8    2
     8    13    12   ar
     9     7     8   ar
    10     7     6   ar
    11    20    17    1
    12    11    12    1
    13    11    10    1
    14    15    40    2
    15    12    14   ar
    16    17    18    1
    17     8    39   ar
    18     6    10    1
    19     6     5   ar
    20    40    18    1
    21    40    43    1
    22    18     3    2
    23    39     5   ar
    24    39    43    1
    25     5     1    2
    26     3    22    1
    27    43    41    1
    28    43    42    1
    29     1    32    1
    30    22    41   ar
    31    22    23   ar
    32    38    36   ar
    33    41    25   ar
    34    42    32    2
    35    42    29    1
    36    32    31    1
    37    35    36    1
    38    35    34    1
    39    25    24   ar
    40    25     4    1
    41    23    24   ar
    42    23    26    1
    43    36    37   ar
    44    29     4    2
    45    29    30    1
    46    31    34    1
    47    31    30    2
    48    24    27    1
    49    28    27    1
    50    30    33    1
