@<TRIPOS>MOLECULE
3ref_GDP_A_1.pdb
 28 30 0 0 0
SMALL
GASTEIGER

@<TRIPOS>ATOM
      1  PB        10.8400   -8.4610    4.8910 P.3   274  GDP274      0.5373
      2  O1B        9.5170   -8.5070    4.0900 O.2   274  GDP274     -0.2221
      3  O2B       10.8680   -9.5770    5.8550 O.3   274  GDP274     -0.1143
      4  O3B       10.9830   -7.0750    5.4440 O.3   274  GDP274     -0.1143
      5  O3A       11.9980   -8.7390    3.7910 O.3   274  GDP274     -0.2261
      6  PA        13.3770   -7.8850    3.6750 P.3   274  GDP274      0.2231
      7  O1A       14.1600   -8.0490    4.9590 O.3   274  GDP274     -0.4370
      8  O2A       13.1940   -6.4810    3.2380 O.2   274  GDP274     -0.5169
      9  O5'       14.0440   -8.7660    2.4930 O.3   274  GDP274     -0.3111
     10  C5'       14.3230  -10.1470    2.6740 C.3   274  GDP274      0.1813
     11  C4'       15.4330  -10.5120    1.6830 C.3   274  GDP274      0.1799
     12  O4'       14.9700  -10.4190    0.3300 O.3   274  GDP274     -0.3326
     13  C3'       16.6030   -9.5490    1.7860 C.3   274  GDP274      0.2158
     14  O3'       17.6780  -10.2400    2.4180 O.3   274  GDP274     -0.2175
     15  C2'       17.0730   -9.3410    0.3710 C.3   274  GDP274      0.2310
     16  O2'       18.2240  -10.1770    0.2240 O.3   274  GDP274     -0.2158
     17  C1'       15.9820   -9.9120   -0.5180 C.3   274  GDP274      0.2293
     18  N9        15.3760   -8.8520   -1.3320 N.pl3 274  GDP274     -0.2354
     19  C8        14.6520   -7.8070   -0.8740 C.3   274  GDP274      0.2246
     20  N7        14.2240   -7.0440   -1.9100 N.2   274  GDP274     -0.2322
     21  C5        14.7020   -7.6190   -3.0430 C.2   274  GDP274      0.2182
     22  C6        14.6230   -7.3460   -4.4880 C.1   274  GDP274      0.2372
     23  O6        14.0070   -6.3410   -4.9030 O.2   274  GDP274     -0.2069
     24  N1        15.2290   -8.2020   -5.3320 N.2   274  GDP274     -0.2485
     25  C2        15.9060   -9.2910   -4.8940 C.1   274  GDP274      0.2531
     26  N2        16.5240  -10.1020   -5.7820 N.pl3 274  GDP274     -0.0226
     27  N3        16.0250   -9.6050   -3.5880 N.2   274  GDP274     -0.3074
     28  C4        15.4560   -8.8080   -2.6480 C.2   274  GDP274      0.2300
@<TRIPOS>BOND
     1    26    25    1
     2    24    25    2
     3    24    22    2
     4    23    22    2
     5    25    27    2
     6    22    21    1
     7    27    28    2
     8    21    28    1
     9    21    20    2
    10    28    18    1
    11    20    19    1
    12    18    19    1
    13    18    17    1
    14    17    12    1
    15    17    15    1
    16    16    15    1
    17    12    11    1
    18    15    13    1
    19    11    13    1
    20    11    10    1
    21    13    14    1
    22     9    10    1
    23     9     6    1
    24     8     6    2
    25     6     5    1
    26     6     7    1
    27     5     1    1
    28     2     1    2
    29     1     4    1
    30     1     3    1
