@<TRIPOS>MOLECULE
3reg_GSP_A_1.pdb
 32 34 0 0 0
SMALL
GASTEIGER

@<TRIPOS>ATOM
      1  PG         8.9240    2.2810   49.5430 P.3   538  GSP538      0.4340
      2  O3B        9.4410    2.2150   48.0100 O.3   538  GSP538     -0.2405
      3  S1G        9.2910    3.9080   50.0530 S.3   538  GSP538      0.0416
      4  O2G        7.4260    2.0740   49.6190 O.2   538  GSP538     -0.2423
      5  O3G        9.6360    1.2150   50.3890 O.3   538  GSP538     -0.1305
      6  PB         9.2570    1.0560   46.9390 P.3   538  GSP538      0.2262
      7  O1B       10.4630    0.1830   47.0180 O.2   538  GSP538     -0.5168
      8  O2B        7.9890    0.3020   47.0330 O.3   538  GSP538     -0.4369
      9  PA         8.2040    1.9050   44.3930 P.3   538  GSP538      0.2189
     10  O1A        7.8200    0.5700   43.8570 O.2   538  GSP538     -0.5170
     11  O2A        7.0330    2.6660   44.8910 O.3   538  GSP538     -0.4371
     12  O3A        9.3680    1.8300   45.5190 O.3   538  GSP538     -0.2701
     13  O5'        8.9840    2.7170   43.2440 O.3   538  GSP538     -0.3112
     14  C5'        9.7030    3.8850   43.5930 C.3   538  GSP538      0.1813
     15  C4'        9.9070    4.7410   42.3510 C.3   538  GSP538      0.1799
     16  O4'       10.7050    4.0540   41.3850 O.3   538  GSP538     -0.3326
     17  C3'        8.5750    5.0370   41.6870 C.3   538  GSP538      0.2158
     18  O3'        8.6520    6.3390   41.1380 O.3   538  GSP538     -0.2175
     19  C2'        8.4940    3.9820   40.5990 C.3   538  GSP538      0.2310
     20  O2'        7.7620    4.3770   39.4660 O.3   538  GSP538     -0.2158
     21  C1'        9.9470    3.8080   40.2090 C.3   538  GSP538      0.2293
     22  N9        10.1700    2.4430   39.6980 N.pl3 538  GSP538     -0.2354
     23  C8         9.7550    1.2780   40.2950 C.3   538  GSP538      0.2246
     24  N7        10.1510    0.2400   39.5270 N.2   538  GSP538     -0.2322
     25  C5        10.8080    0.7270   38.4440 C.2   538  GSP538      0.2182
     26  C6        11.4200    0.0930   37.3620 C.1   538  GSP538      0.2372
     27  O6        11.4270   -1.1400   37.2400 O.2   538  GSP538     -0.2069
     28  N1        12.0310    0.8660   36.4050 N.2   538  GSP538     -0.2485
     29  C2        12.0260    2.2510   36.5040 C.1   538  GSP538      0.2531
     30  N2        12.6250    2.9620   35.5530 N.pl3 538  GSP538     -0.0226
     31  N3        11.4170    2.8820   37.5760 N.2   538  GSP538     -0.3074
     32  C4        10.8270    2.1170   38.5410 C.2   538  GSP538      0.2300
@<TRIPOS>BOND
     1    30    29    1
     2    28    29    2
     3    28    26    2
     4    29    31    2
     5    27    26    2
     6    26    25    1
     7    31    32    2
     8    25    32    1
     9    25    24    2
    10    32    22    1
    11    20    19    1
    12    24    23    1
    13    22    21    1
    14    22    23    1
    15    21    19    1
    16    21    16    1
    17    19    17    1
    18    18    17    1
    19    16    15    1
    20    17    15    1
    21    15    14    1
    22    13    14    1
    23    13     9    1
    24    10     9    2
    25     9    11    1
    26     9    12    1
    27    12     6    1
    28     6     7    2
    29     6     8    1
    30     6     2    1
    31     2     1    1
    32     1     4    2
    33     1     3    1
    34     1     5    1
