@<TRIPOS>MOLECULE
3reo_EUG_B_1.pdb
 12 12 0 0 0
SMALL
GASTEIGER

@<TRIPOS>ATOM
      1  C1        -8.1770   41.3030   20.4470 C.ar  369  EUG369      0.0029
      2  C2        -8.5180   41.9990   19.2850 C.ar  369  EUG369      0.0402
      3  C3        -7.8110   41.7770   18.0980 C.ar  369  EUG369      0.1774
      4  C4        -6.6930   40.7730   18.1030 C.ar  369  EUG369      0.2293
      5  C5        -6.4020   40.0980   19.2930 C.ar  369  EUG369      0.0452
      6  C6        -7.1390   40.3630   20.4480 C.ar  369  EUG369      0.0035
      7  C7        -8.9410   41.5540   21.6870 C.2   369  EUG369     -0.0045
      8  C8        -9.4280   40.4900   22.3350 C.2   369  EUG369     -0.0258
      9  C9        -8.4880   43.9280   17.0430 C.3   369  EUG369      0.2526
     10  O3        -8.1570   42.4660   16.9510 O.3   369  EUG369     -0.4682
     11  O4        -5.9500   40.5010   16.9840 O.3   369  EUG369     -0.2833
     12  C10      -10.2240   40.6250   23.6080 C.3   369  EUG369      0.0307
@<TRIPOS>BOND
     1    10     9    1
     2    10     3    1
     3    11     4    1
     4     3     4   ar
     5     3     2   ar
     6     4     5   ar
     7     2     1   ar
     8     5     6   ar
     9     1     6   ar
    10     1     7    1
    11     7     8    2
    12     8    12    1
