@<TRIPOS>MOLECULE
3reo_SAH_A_1.pdb
 26 28 0 0 0
SMALL
GASTEIGER

@<TRIPOS>ATOM
      1  N          8.8140   -1.4190   27.0520 N.3   370  SAH370     -0.1208
      2  CA         8.3900   -2.2420   25.8580 C.3   370  SAH370      0.1952
      3  CB         7.0790   -2.8670   26.3670 C.3   370  SAH370      0.0422
      4  CG         5.8260   -2.9620   25.5070 C.3   370  SAH370      0.0597
      5  SD         5.0800   -4.5700   25.7000 S.3   370  SAH370     -0.1375
      6  C          8.2670   -1.2830   24.6820 C.2   370  SAH370      0.3819
      7  O          8.5970   -1.5550   23.4650 O.co2 370  SAH370     -0.2441
      8  OXT        7.8450   -0.1450   24.9790 O.co2 370  SAH370     -0.2441
      9  C5'        4.9170   -5.1150   27.4230 C.3   370  SAH370      0.0899
     10  C4'        6.1420   -5.9040   27.9300 C.3   370  SAH370      0.1630
     11  O4'        5.8890   -6.3340   29.2910 O.3   370  SAH370     -0.3153
     12  C3'        6.3710   -7.2110   27.1300 C.3   370  SAH370      0.2168
     13  O3'        7.7480   -7.2500   26.6560 O.3   370  SAH370     -0.2175
     14  C2'        5.9820   -8.3320   28.1020 C.3   370  SAH370      0.2569
     15  O2'        6.7490   -9.5370   27.8640 O.3   370  SAH370     -0.2130
     16  C1'        6.3340   -7.6710   29.4320 C.3   370  SAH370      0.3185
     17  N9         5.6890   -8.2470   30.6130 N.pl3 370  SAH370     -0.1439
     18  C8         4.3930   -8.6600   30.7380 C.3   370  SAH370      0.3377
     19  N7         4.1610   -9.1740   32.0050 N.2   370  SAH370     -0.2095
     20  C5         5.3650   -9.0310   32.6440 C.2   370  SAH370      0.2526
     21  C6         5.9140   -9.3230   33.9720 C.2   370  SAH370      0.4393
     22  N6         5.0820   -9.8750   34.8350 N.pl3 370  SAH370      0.2180
     23  N1         7.2250   -9.0880   34.2350 N.2   370  SAH370      0.0021
     24  C2         8.0670   -8.5160   33.3840 C.3   370  SAH370      0.5254
     25  N3         7.6370   -8.2710   32.1410 N.2   370  SAH370     -0.0055
     26  C4         6.3410   -8.4620   31.7380 C.2   370  SAH370      0.3518
@<TRIPOS>BOND
     1     7     6   ar
     2     6     8   ar
     3     6     2    1
     4     4     5    1
     5     4     3    1
     6     5     9    1
     7     2     3    1
     8     2     1    1
     9    13    12    1
    10    12    10    1
    11    12    14    1
    12     9    10    1
    13    15    14    1
    14    10    11    1
    15    14    16    1
    16    11    16    1
    17    16    17    1
    18    17    18    1
    19    17    26    1
    20    18    19    1
    21    26    25    2
    22    26    20    1
    23    19    20    2
    24    25    24    1
    25    20    21    1
    26    24    23    1
    27    21    23    2
    28    21    22    1
