@<TRIPOS>MOLECULE
3rep_ATP_A_1.pdb
 31 33 0 0 0
SMALL
GASTEIGER

@<TRIPOS>ATOM
      1  PG        -6.5570   -2.4510   15.2780 P.3   502  ATP502      0.5373
      2  O1G       -5.8590   -1.1610   15.6050 O.2   502  ATP502     -0.2221
      3  O2G       -5.8170   -3.6960   15.8390 O.3   502  ATP502     -0.1143
      4  O3G       -7.9730   -2.4180   16.0220 O.3   502  ATP502     -0.1143
      5  PB        -6.8690   -1.7520   12.4950 P.3   502  ATP502      0.2277
      6  O1B       -5.7680   -0.7600   12.6110 O.3   502  ATP502     -0.4368
      7  O2B       -6.8990   -2.6770   11.3320 O.2   502  ATP502     -0.5168
      8  O3B       -6.9130   -2.7170   13.7070 O.3   502  ATP502     -0.2258
      9  PA        -8.6460    0.4630   13.0730 P.3   502  ATP502      0.2189
     10  O1A      -10.1060    0.4110   13.3750 O.2   502  ATP502     -0.5170
     11  O2A       -7.6730    0.8980   14.1000 O.3   502  ATP502     -0.4371
     12  O3A       -8.2780   -1.0160   12.5300 O.3   502  ATP502     -0.2700
     13  O5'       -8.4430    1.3050   11.7860 O.3   502  ATP502     -0.3112
     14  C5'       -9.4710    1.2730   10.7350 C.3   502  ATP502      0.1813
     15  C4'       -9.0720    2.2520    9.6020 C.3   502  ATP502      0.1821
     16  O4'       -9.0330    3.5950   10.1170 O.3   502  ATP502     -0.3135
     17  C3'       -7.6160    2.0270    9.1450 C.3   502  ATP502      0.2184
     18  O3'       -7.5600    1.0410    8.0970 O.3   502  ATP502     -0.2174
     19  C2'       -7.2270    3.3800    8.5670 C.3   502  ATP502      0.2570
     20  O2'       -7.7500    3.4760    7.2190 O.3   502  ATP502     -0.2130
     21  C1'       -8.0030    4.3370    9.4680 C.3   502  ATP502      0.3186
     22  N9        -7.1290    5.0340   10.4580 N.pl3 502  ATP502     -0.1439
     23  C8        -6.5040    4.5600   11.5460 C.3   502  ATP502      0.3377
     24  N7        -5.8540    5.5910   12.1530 N.2   502  ATP502     -0.2095
     25  C5        -6.0580    6.6910   11.4270 C.2   502  ATP502      0.2526
     26  C6        -5.6800    8.0480   11.5240 C.2   502  ATP502      0.4393
     27  N6        -4.8760    8.5590   12.4900 N.pl3 502  ATP502      0.2180
     28  N1        -6.1200    8.9050   10.5820 N.2   502  ATP502      0.0021
     29  C2        -6.9130    8.5030    9.5990 C.3   502  ATP502      0.5254
     30  N3        -7.3050    7.2470    9.4500 N.2   502  ATP502     -0.0055
     31  C4        -6.8900    6.3220   10.3660 C.2   502  ATP502      0.3518
@<TRIPOS>BOND
     1    20    19    1
     2    18    17    1
     3    19    17    1
     4    19    21    1
     5    17    15    1
     6    30    29    1
     7    30    31    2
     8    21    16    1
     9    21    22    1
    10    29    28    1
    11    15    16    1
    12    15    14    1
    13    31    22    1
    14    31    25    1
    15    22    23    1
    16    28    26    2
    17    14    13    1
    18     7     5    2
    19    25    26    1
    20    25    24    2
    21    26    27    1
    22    23    24    1
    23    13     9    1
    24     5    12    1
    25     5     6    1
    26     5     8    1
    27    12     9    1
    28     9    10    2
    29     9    11    1
    30     8     1    1
    31     1     2    2
    32     1     3    1
    33     1     4    1
