@<TRIPOS>MOLECULE
3rer_ADP_A_1.pdb
 17 19 0 0 0
SMALL
GASTEIGER

@<TRIPOS>ATOM
      1  C4'       -5.7840    9.2170   19.9340 C.3   105  ADP105      0.1820
      2  O4'       -4.7470    9.8090   19.1400 O.3   105  ADP105     -0.3135
      3  C3'       -5.5830    7.7060   19.8910 C.3   105  ADP105      0.2184
      4  O3'       -6.8070    7.0600   19.5170 O.3   105  ADP105     -0.2174
      5  C2'       -4.4760    7.4560   18.8750 C.3   105  ADP105      0.2570
      6  O2'       -4.9920    6.9470   17.6340 O.3   105  ADP105     -0.2130
      7  C1'       -3.8420    8.8180   18.6290 C.3   105  ADP105      0.3186
      8  N9        -2.5130    8.9340   19.2960 N.pl3 105  ADP105     -0.1439
      9  C8        -2.2670    9.5470   20.4760 C.3   105  ADP105      0.3377
     10  N7        -0.9530    9.4870   20.8060 N.2   105  ADP105     -0.2095
     11  C5        -0.3310    8.8230   19.8150 C.2   105  ADP105      0.2526
     12  C6         1.0600    8.4090   19.5270 C.2   105  ADP105      0.4393
     13  N6         2.0610    8.7020   20.3900 N.pl3 105  ADP105      0.2180
     14  N1         1.2870    7.7280   18.3740 N.2   105  ADP105      0.0021
     15  C2         0.3000    7.4250   17.5040 C.3   105  ADP105      0.5254
     16  N3        -0.9860    7.7710   17.7050 N.2   105  ADP105     -0.0055
     17  C4        -1.3560    8.4600   18.8200 C.2   105  ADP105      0.3518
@<TRIPOS>BOND
     1    15    16    1
     2    15    14    1
     3     6     5    1
     4    16    17    2
     5    14    12    2
     6     7     5    1
     7     7     2    1
     8     7     8    1
     9    17     8    1
    10    17    11    1
    11     5     3    1
    12     2     1    1
    13     8     9    1
    14     4     3    1
    15    12    11    1
    16    12    13    1
    17    11    10    2
    18     3     1    1
    19     9    10    1
