@<TRIPOS>MOLECULE
3res_ADP_B_1.pdb
 27 29 0 0 0
SMALL
GASTEIGER

@<TRIPOS>ATOM
      1  PB        57.6720    8.5570   31.5440 P.3    66  ADP66       0.5373
      2  O1B       57.0110    9.9190   31.5680 O.3    66  ADP66      -0.1143
      3  O2B       58.7390    8.4070   32.6110 O.3    66  ADP66      -0.1143
      4  O3B       56.7250    7.3770   31.4760 O.2    66  ADP66      -0.2221
      5  PA        58.0690    9.3200   28.7850 P.3    66  ADP66       0.2231
      6  O1A       58.5940    8.5500   27.5910 O.2    66  ADP66      -0.5169
      7  O2A       58.4620   10.7720   28.9600 O.3    66  ADP66      -0.4370
      8  O3A       58.4840    8.5090   30.1330 O.3    66  ADP66      -0.2261
      9  O5'       56.4630    9.1960   28.7520 O.3    66  ADP66      -0.3111
     10  C5'       55.5810   10.2970   28.5300 C.3    66  ADP66       0.1813
     11  C4'       54.1600    9.7710   28.6670 C.3    66  ADP66       0.1821
     12  O4'       53.9720    8.7580   27.6780 O.3    66  ADP66      -0.3135
     13  C3'       53.9200    9.1030   30.0190 C.3    66  ADP66       0.2184
     14  O3'       53.2640    9.9730   30.9470 O.3    66  ADP66      -0.2174
     15  C2'       53.0880    7.8710   29.7120 C.3    66  ADP66       0.2570
     16  O2'       51.6890    8.0960   29.9310 O.3    66  ADP66      -0.2130
     17  C1'       53.3380    7.5990   28.2340 C.3    66  ADP66       0.3186
     18  N9        54.1970    6.3940   28.0770 N.pl3  66  ADP66      -0.1439
     19  C8        55.5400    6.3350   28.1790 C.3    66  ADP66       0.3377
     20  N7        56.0070    5.0710   27.9750 N.2    66  ADP66      -0.2095
     21  C5        54.9330    4.2920   27.7390 C.2    66  ADP66       0.2526
     22  C6        54.6820    2.8480   27.4530 C.2    66  ADP66       0.4393
     23  N6        55.6990    1.9540   27.3640 N.pl3  66  ADP66       0.2180
     24  N1        53.3920    2.4570   27.2690 N.2    66  ADP66       0.0021
     25  C2        52.3610    3.3190   27.3420 C.3    66  ADP66       0.5254
     26  N3        52.5190    4.6300   27.6150 N.2    66  ADP66      -0.0055
     27  C4        53.7490    5.1700   27.8090 C.2    66  ADP66       0.3518
@<TRIPOS>BOND
     1    24    25    1
     2    24    22    2
     3    25    26    1
     4    23    22    1
     5    22    21    1
     6     6     5    2
     7    26    27    2
     8    12    17    1
     9    12    11    1
    10    21    27    1
    11    21    20    2
    12    27    18    1
    13    20    19    1
    14    18    19    1
    15    18    17    1
    16    17    15    1
    17    10    11    1
    18    10     9    1
    19    11    13    1
    20     9     5    1
    21     5     7    1
    22     5     8    1
    23    15    16    1
    24    15    13    1
    25    13    14    1
    26     8     1    1
    27     4     1    2
    28     1     2    1
    29     1     3    1
