@<TRIPOS>MOLECULE
3reu_ATP_A_1.pdb
 31 33 0 0 0
SMALL
GASTEIGER

@<TRIPOS>ATOM
      1  PG        13.6190  -11.6960    7.0150 P.3   298  ATP298      0.5373
      2  O1G       13.2380  -12.2240    5.6560 O.2   298  ATP298     -0.2221
      3  O2G       12.3050  -11.4260    7.6340 O.3   298  ATP298     -0.1143
      4  O3G       14.1170  -12.9250    7.7620 O.3   298  ATP298     -0.1143
      5  PB        14.6980   -9.2630    6.0580 P.3   298  ATP298      0.2277
      6  O1B       13.4240   -8.4790    5.9950 O.3   298  ATP298     -0.4368
      7  O2B       14.8050   -9.6250    4.6230 O.2   298  ATP298     -0.5168
      8  O3B       14.6520  -10.4820    7.0280 O.3   298  ATP298     -0.2258
      9  PA        16.2590   -6.9720    5.9460 P.3   298  ATP298      0.2189
     10  O1A       15.0880   -6.0290    5.8110 O.3   298  ATP298     -0.4371
     11  O2A       16.7300   -7.0160    4.5180 O.2   298  ATP298     -0.5170
     12  O3A       15.8680   -8.3670    6.5260 O.3   298  ATP298     -0.2700
     13  O5'       17.3830   -6.4020    6.8910 O.3   298  ATP298     -0.3112
     14  C5'       17.1400   -6.5210    8.2520 C.3   298  ATP298      0.1813
     15  C4'       18.0950   -7.3150    9.0710 C.3   298  ATP298      0.1821
     16  O4'       17.7240   -7.0970   10.4240 O.3   298  ATP298     -0.3135
     17  C3'       18.0330   -8.8260    8.9050 C.3   298  ATP298      0.2184
     18  O3'       19.1930   -9.4270    8.3320 O.3   298  ATP298     -0.2174
     19  C2'       17.7910   -9.3630   10.2460 C.3   298  ATP298      0.2570
     20  O2'       18.9310   -9.6840   10.9550 O.3   298  ATP298     -0.2130
     21  C1'       17.1300   -8.2400   11.0000 C.3   298  ATP298      0.3186
     22  N9        15.6910   -8.2600   10.8990 N.pl3 298  ATP298     -0.1439
     23  C8        14.9460   -8.0070    9.7750 C.3   298  ATP298      0.3377
     24  N7        13.6410   -8.1370   10.0370 N.2   298  ATP298     -0.2095
     25  C5        13.5410   -8.4780   11.3970 C.2   298  ATP298      0.2526
     26  C6        12.4590   -8.7330   12.2460 C.2   298  ATP298      0.4393
     27  N6        11.1210   -8.6450   11.7320 N.pl3 298  ATP298      0.2180
     28  N1        12.7560   -9.0390   13.5380 N.2   298  ATP298      0.0021
     29  C2        13.9790   -9.1090   14.0170 C.3   298  ATP298      0.5254
     30  N3        15.0440   -8.8720   13.2530 N.2   298  ATP298     -0.0055
     31  C4        14.8560   -8.5590   11.9520 C.2   298  ATP298      0.3518
@<TRIPOS>BOND
     1    11     9    2
     2     7     5    2
     3     2     1    2
     4    10     9    1
     5     9    12    1
     6     9    13    1
     7     6     5    1
     8     5    12    1
     9     5     8    1
    10    13    14    1
    11     1     8    1
    12     1     3    1
    13     1     4    1
    14    14    15    1
    15    18    17    1
    16    17    15    1
    17    17    19    1
    18    15    16    1
    19    23    24    1
    20    23    22    1
    21    24    25    2
    22    19    20    1
    23    19    21    1
    24    16    21    1
    25    22    21    1
    26    22    31    1
    27    25    31    1
    28    25    26    1
    29    27    26    1
    30    31    30    2
    31    26    28    2
    32    30    29    1
    33    28    29    1
