@<TRIPOS>MOLECULE
3rex_AMP_A_1.pdb
 23 25 0 0 0
SMALL
GASTEIGER

@<TRIPOS>ATOM
      1  P        -16.5450   -5.9190   -6.2040 P.3   295  AMP295      0.5327
      2  O1P      -17.5020   -6.3890   -5.1440 O.3   295  AMP295     -0.1145
      3  O2P      -16.3400   -4.4310   -6.3720 O.2   295  AMP295     -0.2224
      4  O3P      -15.1910   -6.6110   -6.0250 O.3   295  AMP295     -0.1145
      5  O5'      -16.9410   -6.5480   -7.5960 O.3   295  AMP295     -0.2675
      6  C5'      -18.2490   -6.3870   -8.1310 C.3   295  AMP295      0.1860
      7  C4'      -18.4530   -7.3300   -9.2780 C.3   295  AMP295      0.1823
      8  O4'      -17.5340   -6.9820  -10.3430 O.3   295  AMP295     -0.3135
      9  C3'      -18.1350   -8.7880   -8.9720 C.3   295  AMP295      0.2184
     10  O3'      -19.2200   -9.4710   -8.3640 O.3   295  AMP295     -0.2174
     11  C2'      -17.7400   -9.3510  -10.3270 C.3   295  AMP295      0.2570
     12  O2'      -18.8890   -9.6730  -11.0870 O.3   295  AMP295     -0.2130
     13  C1'      -17.0650   -8.1480  -10.9830 C.3   295  AMP295      0.3186
     14  N9       -15.6070   -8.1900  -10.8400 N.pl3 295  AMP295     -0.1439
     15  C8       -14.9220   -7.9630   -9.7030 C.3   295  AMP295      0.3377
     16  N7       -13.5850   -8.0780   -9.9270 N.2   295  AMP295     -0.2095
     17  C5       -13.4330   -8.3960  -11.2260 C.2   295  AMP295      0.2526
     18  C6       -12.2910   -8.6420  -12.1240 C.2   295  AMP295      0.4393
     19  N6       -11.0180   -8.5870  -11.6530 N.pl3 295  AMP295      0.2180
     20  N1       -12.5740   -8.9350  -13.4110 N.2   295  AMP295      0.0021
     21  C2       -13.8310   -8.9930  -13.9000 C.3   295  AMP295      0.5254
     22  N3       -14.9220   -8.7730  -13.1450 N.2   295  AMP295     -0.0055
     23  C4       -14.7700   -8.4700  -11.8300 C.2   295  AMP295      0.3518
@<TRIPOS>BOND
     1    21    20    1
     2    21    22    1
     3    20    18    2
     4    22    23    2
     5    18    19    1
     6    18    17    1
     7    23    17    1
     8    23    14    1
     9    17    16    2
    10    12    11    1
    11    13    14    1
    12    13     8    1
    13    13    11    1
    14    14    15    1
    15     8     7    1
    16    11     9    1
    17    16    15    1
    18     7     9    1
    19     7     6    1
    20     9    10    1
    21     6     5    1
    22     5     1    1
    23     3     1    2
    24     1     4    1
    25     1     2    1
