@<TRIPOS>MOLECULE
3rey_XAC_A_1.pdb
 31 33 0 0 0
SMALL
GASTEIGER

@<TRIPOS>ATOM
      1  C1        48.9990   24.1270   30.3690 C.ar  999  XAC999      0.2990
      2  N1        47.4200   21.9500   31.2320 N.ar  999  XAC999     -0.2534
      3  O1        49.7200   25.0800   30.0490 O.2   999  XAC999     -0.2638
      4  C2        47.2530   22.4800   29.9710 C.ar  999  XAC999      0.3357
      5  N2        48.0220   23.5680   29.5920 N.ar  999  XAC999     -0.2465
      6  O2        46.4130   21.9920   29.2000 O.2   999  XAC999     -0.2461
      7  C3        49.7100   23.0270   33.7450 C.1   999  XAC999      0.1398
      8  N3        48.7440   22.1450   33.4190 N.2   999  XAC999     -0.3190
      9  O3        52.1770   23.4190   38.8610 O.3   999  XAC999     -0.4656
     10  C4        48.3930   22.4870   32.1110 C.ar  999  XAC999      0.2465
     11  N4        49.9710   23.8670   32.7210 N.2   999  XAC999     -0.3306
     12  O4        53.4690   23.0250   41.5130 O.2   999  XAC999     -0.2693
     13  C5        49.1320   23.5200   31.6790 C.ar  999  XAC999      0.2467
     14  N5        51.5090   23.9920   42.0740 N.am  999  XAC999     -0.2007
     15  C6        47.7400   24.2150   28.2900 C.3   999  XAC999      0.1137
     16  N6        51.1610   25.9650   45.2170 N.3   999  XAC999     -0.1294
     17  C7        46.6940   25.3380   28.4360 C.3   999  XAC999      0.0247
     18  C8        46.5800   20.8480   31.7220 C.3   999  XAC999      0.1131
     19  C9        47.2750   19.4840   31.5650 C.3   999  XAC999      0.0247
     20  C10       46.4900   18.3500   32.2330 C.3   999  XAC999      0.0021
     21  C11       46.2680   25.9340   27.0910 C.3   999  XAC999      0.0021
     22  C12       51.5720   23.2420   37.6350 C.ar  999  XAC999      0.1393
     23  C13       50.5720   22.2760   37.3650 C.ar  999  XAC999      0.0377
     24  C14       49.9740   22.1990   36.0920 C.ar  999  XAC999      0.0151
     25  C15       50.3680   23.0770   35.0560 C.ar  999  XAC999      0.0859
     26  C16       51.3910   24.0170   35.3160 C.ar  999  XAC999      0.0151
     27  C17       51.9840   24.0960   36.5930 C.ar  999  XAC999      0.0377
     28  C18       51.6400   22.7210   39.9810 C.3   999  XAC999      0.2911
     29  C19       52.2840   23.2610   41.2620 C.2   999  XAC999      0.2859
     30  C20       51.9250   24.5800   43.3390 C.3   999  XAC999      0.1357
     31  C21       50.7600   25.3700   43.9570 C.3   999  XAC999      0.1327
@<TRIPOS>BOND
     1    21    17    1
     2    15    17    1
     3    15     5    1
     4     6     4    2
     5     5     4   ar
     6     5     1   ar
     7     4     2   ar
     8     3     1    2
     9     1    13   ar
    10     2    18    1
    11     2    10   ar
    12    19    18    1
    13    19    20    1
    14    13    10   ar
    15    13    11    2
    16    10     8    2
    17    11     7    2
    18     8     7    2
    19     7    25    1
    20    25    26   ar
    21    25    24   ar
    22    26    27   ar
    23    24    23   ar
    24    27    22   ar
    25    23    22   ar
    26    22     9    1
    27     9    28    1
    28    28    29    1
    29    29    12    2
    30    29    14   am
    31    14    30    1
    32    30    31    1
    33    31    16    1
