@<TRIPOS>MOLECULE
3rf4_FUN_A_1.pdb
 21 22 0 0 0
SMALL
GASTEIGER

@<TRIPOS>ATOM
      1  N1       -50.8250   48.7010   12.8980 N.3   201  FUN201      0.0392
      2  S1       -50.1660   47.8100   13.8770 S.O2  201  FUN201      0.0943
      3  O1       -51.1520   46.9120   14.5080 O.2   201  FUN201     -0.1503
      4  O2       -49.2080   48.5740   14.7760 O.2   201  FUN201     -0.1503
      5  C1       -49.1590   46.7810   13.0010 C.ar  201  FUN201      0.1358
      6  C2       -48.0870   47.2760   12.0780 C.ar  201  FUN201      0.0776
      7 CL1       -47.8000   48.7710   11.8270 Cl    201  FUN201     -0.0808
      8  C3       -47.3210   46.3680   11.3290 C.ar  201  FUN201      0.0291
      9  C4       -47.5260   44.9880   11.4800 C.ar  201  FUN201      0.0731
     10  N2       -46.7520   44.0570   10.7580 N.pl3 201  FUN201     -0.2292
     11  C5       -45.9250   44.6450    9.6700 C.3   201  FUN201      0.1762
     12  C6       -46.7150   44.9890    8.4510 C.ar  201  FUN201      0.1448
     13  C7       -47.4070   44.0500    7.7020 C.ar  201  FUN201      0.0380
     14  C8       -48.0280   44.7270    6.6670 C.ar  201  FUN201      0.0435
     15  C9       -47.7030   46.0600    6.7940 C.ar  201  FUN201      0.1792
     16  O3       -46.9000   46.2720    7.9350 O.2   201  FUN201     -0.4529
     17  C10      -48.5390   44.5270   12.4150 C.ar  201  FUN201      0.0960
     18  C11      -49.3230   45.4110   13.2360 C.ar  201  FUN201      0.0288
     19  C12      -48.6830   43.0520   12.6430 C.2   201  FUN201      0.3890
     20  O4       -49.3420   42.6860   13.6280 O.co2 201  FUN201     -0.2405
     21  O5       -48.1290   42.2760   11.8520 O.co2 201  FUN201     -0.2405
@<TRIPOS>BOND
     1    14    15   ar
     2    14    13   ar
     3    15    16   ar
     4    13    12   ar
     5    16    12   ar
     6    12    11    1
     7    11    10    1
     8    10     9    1
     9     8     9   ar
    10     8     6   ar
    11     9    17   ar
    12     7     6    1
    13    21    19   ar
    14     6     5   ar
    15    17    19    1
    16    17    18   ar
    17    19    20   ar
    18     1     2    1
    19     5    18   ar
    20     5     2    1
    21     2     3    2
    22     2     4    2
