@<TRIPOS>MOLECULE
3rf5_FUZ_A_1.pdb
 16 17 0 0 0
SMALL
GASTEIGER

@<TRIPOS>ATOM
      1  OAA       25.8020  -20.3750   30.8610 O.co2 202  FUZ202     -0.2405
      2  OAB       24.8190  -21.4220   32.5720 O.co2 202  FUZ202     -0.2405
      3  CAC       21.3700  -17.9520   31.2760 C.ar  202  FUZ202      0.0013
      4  CAD       21.3500  -18.9790   32.2320 C.ar  202  FUZ202      0.0003
      5  CAE       22.4450  -18.0460   25.7690 C.ar  202  FUZ202      0.0435
      6  CAF       23.3280  -19.0300   25.5810 C.ar  202  FUZ202      0.1792
      7  CAG       22.7960  -17.3510   26.8760 C.ar  202  FUZ202      0.0380
      8  CAH       22.4840  -17.7740   30.4430 C.ar  202  FUZ202      0.0163
      9  CAI       22.4810  -19.8160   32.3690 C.ar  202  FUZ202      0.0079
     10  CAJ       24.6590  -17.3910   28.6540 C.3   202  FUZ202      0.1762
     11  NAK       24.6840  -18.4220   29.7430 N.pl3 202  FUZ202     -0.2292
     12  OAL       24.3090  -18.9590   26.6140 O.2   202  FUZ202     -0.4529
     13  CAM       24.8520  -20.5460   31.6660 C.2   202  FUZ202      0.3890
     14  CAN       23.9030  -17.8830   27.4040 C.ar  202  FUZ202      0.1448
     15  CAO       23.6030  -18.6000   30.5460 C.ar  202  FUZ202      0.0722
     16  CAP       23.6040  -19.6140   31.5250 C.ar  202  FUZ202      0.0946
@<TRIPOS>BOND
     1     6     5   ar
     2     6    12   ar
     3     5     7   ar
     4    12    14   ar
     5     7    14   ar
     6    14    10    1
     7    10    11    1
     8    11    15    1
     9     8    15   ar
    10     8     3   ar
    11    15    16   ar
    12     1    13   ar
    13     3     4   ar
    14    16    13    1
    15    16     9   ar
    16    13     2   ar
    17     4     9   ar
