@<TRIPOS>MOLECULE
3rf6_G3P_A_1.pdb
 10 9 0 0 0
SMALL
GASTEIGER

@<TRIPOS>ATOM
      1  O1       -18.2560   -3.1340   23.2190 O.3   501  G3P501     -0.2175
      2  C1       -18.2600   -2.9290   24.6140 C.3   501  G3P501      0.2174
      3  C2       -19.2300   -1.8070   24.9670 C.3   501  G3P501      0.2147
      4  O2       -19.0180   -0.7050   24.1130 O.3   501  G3P501     -0.2176
      5  C3       -19.0270   -1.3850   26.4170 C.3   501  G3P501      0.1892
      6  O1P      -19.5450   -2.3740   27.2780 O.3   501  G3P501     -0.2674
      7  O4P      -20.3780   -3.2050   29.5420 O.3   501  G3P501     -0.1145
      8  O2P      -21.5110   -1.3000   28.4560 O.2   501  G3P501     -0.2224
      9  O3P      -19.2550   -1.0100   29.4150 O.3   501  G3P501     -0.1145
     10  P        -20.1790   -1.9670   28.7010 P.3   501  G3P501      0.5327
@<TRIPOS>BOND
     1     1     2    1
     2     4     3    1
     3     2     3    1
     4     3     5    1
     5     5     6    1
     6     6    10    1
     7     8    10    2
     8    10     9    1
     9    10     7    1
