@<TRIPOS>MOLECULE
3rf7_NAD_A_1.pdb
 44 48 0 0 0
SMALL
GASTEIGER

@<TRIPOS>ATOM
      1  PA        69.4860   21.6380   42.1630 P.3   358  NAD358      0.2189
      2  O1A       68.7210   21.0340   43.2750 O.3   358  NAD358     -0.4371
      3  O2A       70.8900   22.0370   42.3910 O.2   358  NAD358     -0.5170
      4  O5B       68.5950   22.8940   41.6700 O.3   358  NAD358     -0.3112
      5  C5B       68.9360   23.5690   40.4460 C.3   358  NAD358      0.1813
      6  C4B       68.3120   24.9650   40.3630 C.3   358  NAD358      0.1821
      7  O4B       66.9200   24.8300   40.1170 O.3   358  NAD358     -0.3135
      8  C3B       68.4510   25.7600   41.6520 C.3   358  NAD358      0.2184
      9  O3B       68.8000   27.0980   41.4080 O.3   358  NAD358     -0.2174
     10  C2B       67.0680   25.6630   42.2510 C.3   358  NAD358      0.2570
     11  O2B       66.7570   26.7370   43.1170 O.3   358  NAD358     -0.2130
     12  C1B       66.1930   25.6160   41.0140 C.3   358  NAD358      0.3186
     13  N9A       64.8600   25.0390   41.2190 N.pl3 358  NAD358     -0.1439
     14  C8A       64.4750   23.9530   41.9370 C.3   358  NAD358      0.3377
     15  N7A       63.1310   23.7930   41.8370 N.2   358  NAD358     -0.2095
     16  C5A       62.6480   24.7590   41.0610 C.2   358  NAD358      0.2526
     17  C6A       61.3690   25.0870   40.6390 C.2   358  NAD358      0.4393
     18  N6A       60.3100   24.2720   40.7900 N.pl3 358  NAD358      0.2180
     19  N1A       61.2330   26.2250   39.8620 N.2   358  NAD358      0.0021
     20  C2A       62.3130   26.9640   39.4890 C.3   358  NAD358      0.5254
     21  N3A       63.5800   26.6380   39.8880 N.2   358  NAD358     -0.0055
     22  C4A       63.7320   25.5590   40.6860 C.2   358  NAD358      0.3518
     23  O3        69.5720   20.7380   40.8130 O.3   358  NAD358     -0.2703
     24  PN        69.4750   19.1340   40.5880 P.3   358  NAD358      0.2189
     25  O1N       70.1580   18.9120   39.2960 O.2   358  NAD358     -0.5170
     26  O2N       68.0820   18.7110   40.8260 O.3   358  NAD358     -0.4371
     27  O5D       70.4390   18.5820   41.7590 O.3   358  NAD358     -0.3112
     28  C5D       71.8330   18.6960   41.6410 C.3   358  NAD358      0.1813
     29  C4D       72.4600   18.0100   42.8560 C.3   358  NAD358      0.1799
     30  O4D       72.0050   16.6590   42.9140 O.3   358  NAD358     -0.3327
     31  C3D       73.9840   17.9650   42.8090 C.3   358  NAD358      0.2158
     32  O3D       74.5610   18.3940   44.0130 O.3   358  NAD358     -0.2175
     33  C2D       74.2770   16.5050   42.5410 C.3   358  NAD358      0.2309
     34  O2D       75.5140   16.0460   43.0190 O.3   358  NAD358     -0.2158
     35  C1D       73.1120   15.8410   43.2220 C.3   358  NAD358      0.2263
     36  N1N       72.9000   14.4410   42.8150 N.pl3 358  NAD358     -0.2787
     37  C2N       72.5690   13.5880   43.8120 C.3   358  NAD358      0.1244
     38  C3N       72.3530   12.2390   43.5450 C.2   358  NAD358      0.0544
     39  C7N       71.9630   11.3480   44.6940 C.2   358  NAD358      0.2818
     40  O7N       71.7900   10.0030   44.4370 O.2   358  NAD358     -0.2670
     41  N7N       71.7870   11.8260   45.9250 N.am  358  NAD358     -0.0839
     42  C4N       72.4280   11.7500   42.2270 C.2   358  NAD358      0.0033
     43  C5N       72.7400   12.6460   41.1840 C.2   358  NAD358      0.0157
     44  C6N       72.9810   14.0020   41.5020 C.2   358  NAD358      0.0633
@<TRIPOS>BOND
     1    25    24    2
     2    20    19    1
     3    20    21    1
     4    19    17    2
     5    21    22    2
     6     7     6    1
     7     7    12    1
     8     6     5    1
     9     6     8    1
    10     5     4    1
    11    24    23    1
    12    24    26    1
    13    24    27    1
    14    17    18    1
    15    17    16    1
    16    22    16    1
    17    22    13    1
    18    23     1    1
    19    12    13    1
    20    12    10    1
    21    16    15    2
    22    43    44    2
    23    43    42    1
    24    13    14    1
    25     9     8    1
    26    44    36    1
    27    28    27    1
    28    28    29    1
    29     8    10    1
    30     4     1    1
    31    15    14    1
    32     1     3    2
    33     1     2    1
    34    42    38    2
    35    10    11    1
    36    33    31    1
    37    33    34    1
    38    33    35    1
    39    31    29    1
    40    31    32    1
    41    36    35    1
    42    36    37    1
    43    29    30    1
    44    30    35    1
    45    38    37    1
    46    38    39    1
    47    40    39    2
    48    39    41   am
