@<TRIPOS>MOLECULE
3rfa_SAM_A_1.pdb
 27 29 0 0 0
SMALL
GASTEIGER

@<TRIPOS>ATOM
      1  N        -21.6900    0.1350  -17.4630 N.3   406  SAM406     -0.1208
      2  CA       -22.3220    0.2110  -16.1120 C.3   406  SAM406      0.1952
      3  C        -21.4850    1.0480  -15.1430 C.2   406  SAM406      0.3819
      4  O        -20.3440    1.4170  -15.4240 O.co2 406  SAM406     -0.2441
      5  OXT      -21.9310    1.3650  -14.0420 O.co2 406  SAM406     -0.2441
      6  CB       -22.5500   -1.1810  -15.5220 C.3   406  SAM406      0.0414
      7  CG       -21.4950   -2.2320  -15.8590 C.3   406  SAM406      0.0503
      8  SD       -19.8630   -1.9310  -15.1320 S.3   406  SAM406     -0.1761
      9  CE       -18.9700   -3.4630  -15.4860 C.3   406  SAM406      0.0590
     10  C5'      -20.2520   -2.1890  -13.3770 C.3   406  SAM406      0.0806
     11  C4'      -19.2080   -1.6410  -12.4070 C.3   406  SAM406      0.1622
     12  O4'      -18.0140   -2.4110  -12.4270 O.3   406  SAM406     -0.3153
     13  C3'      -18.8150   -0.2130  -12.7520 C.3   406  SAM406      0.2168
     14  O3'      -19.0080    0.6180  -11.6280 O.3   406  SAM406     -0.2175
     15  C2'      -17.3440   -0.3110  -13.1040 C.3   406  SAM406      0.2569
     16  O2'      -16.6340    0.8340  -12.7230 O.3   406  SAM406     -0.2130
     17  C1'      -16.9030   -1.5380  -12.3290 C.3   406  SAM406      0.3185
     18  N9       -15.6510   -2.1350  -12.8460 N.pl3 406  SAM406     -0.1439
     19  C8       -15.2770   -2.3130  -14.1600 C.3   406  SAM406      0.3377
     20  N7       -14.0520   -2.8990  -14.1870 N.2   406  SAM406     -0.2095
     21  C5       -13.6350   -3.0970  -12.9170 C.2   406  SAM406      0.2526
     22  C6       -12.4720   -3.6470  -12.3790 C.2   406  SAM406      0.4393
     23  N6       -11.5040   -4.1070  -13.1700 N.pl3 406  SAM406      0.2180
     24  N1       -12.3240   -3.7150  -11.0070 N.2   406  SAM406      0.0021
     25  C2       -13.3230   -3.2390  -10.1770 C.3   406  SAM406      0.5254
     26  N3       -14.4740   -2.6890  -10.7170 N.2   406  SAM406     -0.0055
     27  C4       -14.6310   -2.6200  -12.0660 C.2   406  SAM406      0.3518
@<TRIPOS>BOND
     1     1     2    1
     2     2     6    1
     3     2     3    1
     4     7     6    1
     5     7     8    1
     6     9     8    1
     7     4     3   ar
     8     3     5   ar
     9     8    10    1
    10    20    19    1
    11    20    21    2
    12    19    18    1
    13    10    11    1
    14    23    22    1
    15    15    13    1
    16    15    16    1
    17    15    17    1
    18    21    22    1
    19    21    27    1
    20    18    17    1
    21    18    27    1
    22    13    11    1
    23    13    14    1
    24    12    11    1
    25    12    17    1
    26    22    24    2
    27    27    26    2
    28    24    25    1
    29    26    25    1
