@<TRIPOS>MOLECULE
3rfb_SME_A_1.pdb
 10 9 0 0 0
SMALL
GASTEIGER

@<TRIPOS>ATOM
      1  N         -0.4700   34.8990    6.2310 N.3   6888  SME6888    -0.1245
      2  CA        -0.3120   33.5940    5.5040 C.3   6888  SME6888     0.1844
      3  CB         0.8140   33.8450    4.6340 C.3   6888  SME6888     0.0414
      4  CG         1.4710   34.1950    3.8910 C.3   6888  SME6888     0.0935
      5  S          2.0150   35.4690    3.2600 S.O   6888  SME6888     0.0427
      6  OE         1.1440   36.5980    3.8170 O.2   6888  SME6888    -0.2559
      7  CE         2.3750   35.4400    1.6220 C.3   6888  SME6888     0.1061
      8  C         -0.3980   32.4750    6.6490 C.3   6888  SME6888     0.4429
      9  O         -0.7930   31.4570    5.7980 O.2   6888  SME6888    -0.2654
     10  OXT       -1.2360   32.4130    7.7320 O.2   6888  SME6888    -0.2654
@<TRIPOS>BOND
     1     7     5    1
     2     5     6    2
     3     5     4    1
     4     4     3    1
     5     3     2    1
     6     2     1    1
     7     2     8    1
     8     9     8    1
     9     8    10    1
