@<TRIPOS>MOLECULE
3rfc_ADP_A_1.pdb
 27 29 0 0 0
SMALL
GASTEIGER

@<TRIPOS>ATOM
      1  PB        16.3350    9.2260   34.4810 P.3   368  ADP368      0.5373
      2  O1B       14.8610    9.1420   34.7420 O.3   368  ADP368     -0.1143
      3  O2B       16.5540    9.3940   33.0000 O.2   368  ADP368     -0.2221
      4  O3B       17.2270   10.0370   35.3530 O.3   368  ADP368     -0.1143
      5  PA        18.1680    7.1990   34.0160 P.3   368  ADP368      0.2231
      6  O1A       18.6150    8.1580   32.9750 O.2   368  ADP368     -0.5169
      7  O2A       17.8860    5.8230   33.5870 O.3   368  ADP368     -0.4370
      8  O3A       16.8930    7.7620   34.7830 O.3   368  ADP368     -0.2261
      9  O5'       19.2480    7.2100   35.1530 O.3   368  ADP368     -0.3111
     10  C5'       19.8960    8.4310   35.4440 C.3   368  ADP368      0.1813
     11  C4'       21.3460    8.1640   35.6220 C.3   368  ADP368      0.1821
     12  O4'       21.4530    6.9330   36.2580 O.3   368  ADP368     -0.3135
     13  C3'       21.9740    7.9780   34.2760 C.3   368  ADP368      0.2184
     14  O3'       22.6830    9.1640   33.9940 O.3   368  ADP368     -0.2174
     15  C2'       22.9770    6.9030   34.5000 C.3   368  ADP368      0.2570
     16  O2'       24.1910    7.5990   34.7380 O.3   368  ADP368     -0.2130
     17  C1'       22.5550    6.2450   35.7790 C.3   368  ADP368      0.3186
     18  N9        22.0830    4.8820   35.6580 N.pl3 368  ADP368     -0.1439
     19  C8        20.8290    4.4960   35.6930 C.3   368  ADP368      0.3377
     20  N7        20.7400    3.1640   35.6130 N.2   368  ADP368     -0.2095
     21  C5        21.9690    2.6890   35.5580 C.2   368  ADP368      0.2526
     22  C6        22.6110    1.3740   35.4720 C.2   368  ADP368      0.4393
     23  N6        21.8930    0.2520   35.4160 N.pl3 368  ADP368      0.2180
     24  N1        23.9470    1.3420   35.4450 N.2   368  ADP368      0.0021
     25  C2        24.6720    2.4340   35.4850 C.3   368  ADP368      0.5254
     26  N3        24.1680    3.6490   35.5530 N.2   368  ADP368     -0.0055
     27  C4        22.8520    3.8350   35.5850 C.2   368  ADP368      0.3518
@<TRIPOS>BOND
     1     6     5    2
     2     3     1    2
     3     7     5    1
     4    14    13    1
     5     5     8    1
     6     5     9    1
     7    13    15    1
     8    13    11    1
     9     1     2    1
    10     1     8    1
    11     1     4    1
    12    15    16    1
    13    15    17    1
    14     9    10    1
    15    23    22    1
    16    10    11    1
    17    24    22    2
    18    24    25    1
    19    22    21    1
    20    25    26    1
    21    26    27    2
    22    21    27    1
    23    21    20    2
    24    27    18    1
    25    20    19    1
    26    11    12    1
    27    18    19    1
    28    18    17    1
    29    17    12    1
