@<TRIPOS>MOLECULE
3rfm_CFF_A_1.pdb
 14 15 0 0 0
SMALL
GASTEIGER

@<TRIPOS>ATOM
      1  N1         9.1740  -33.1560  -31.8810 N.am  330  CFF330     -0.1903
      2  C2         9.5110  -33.9730  -32.9480 C.2   330  CFF330      0.4044
      3  C10       10.1800  -32.7900  -30.8620 C.3   330  CFF330      0.1267
      4  C6         7.8800  -32.6980  -31.7480 C.2   330  CFF330      0.2609
      5  N3         8.5600  -34.3290  -33.8820 N.am  330  CFF330     -0.1218
      6  O11       10.7810  -34.4320  -33.0790 O.2   330  CFF330     -0.2230
      7  C12        8.9230  -35.2040  -35.0040 C.3   330  CFF330      0.2626
      8  C4         7.2870  -33.8640  -33.7350 C.2   330  CFF330      0.3276
      9  C5         6.9250  -33.0680  -32.6990 C.3   330  CFF330      0.2453
     10  N9         6.2400  -34.1120  -34.5500 N.2   330  CFF330     -0.0479
     11  O13        7.5520  -31.9080  -30.7050 O.2   330  CFF330     -0.2723
     12  N7         5.6170  -32.7750  -32.8280 N.3   330  CFF330     -0.2098
     13  C8         5.2350  -33.4220  -33.9540 C.3   330  CFF330      0.3428
     14  C14        4.7270  -31.9750  -31.9940 C.3   330  CFF330      0.0945
@<TRIPOS>BOND
     1     7     5    1
     2    10    13    1
     3    10     8    2
     4    13    12    1
     5     5     8    1
     6     5     2   am
     7     8     9    1
     8     6     2    2
     9     2     1   am
    10    12     9    1
    11    12    14    1
    12     9     4    1
    13     1     4   am
    14     1     3    1
    15     4    11    2
