@<TRIPOS>MOLECULE
3rfv_15L_A_1.pdb
 13 13 0 0 0
SMALL
GASTEIGER

@<TRIPOS>ATOM
      1  C1        77.6850   49.1180   16.1920 C.2   401  15L401      0.3510
      2  O1        77.5490   49.2050   14.8240 O.2   401  15L401     -0.2472
      3  C2        77.1580   47.8450   16.9600 C.3   401  15L401      0.2823
      4  O2        76.3110   46.9960   16.2990 O.3   401  15L401     -0.2082
      5  C3        77.0100   48.0260   18.4320 C.3   401  15L401      0.2275
      6  O3        76.6870   46.9210   19.1990 O.3   401  15L401     -0.2169
      7  C4        77.8640   49.0720   19.0030 C.3   401  15L401      0.2362
      8  O4        79.1600   48.7730   19.3780 O.3   401  15L401     -0.2158
      9  C5        77.6050   50.4030   18.4310 C.3   401  15L401      0.3031
     10  O5        77.7310   50.4120   16.9780 O.3   401  15L401     -0.4359
     11  C6        78.1110   51.6300   19.1150 C.2   401  15L401      0.4069
     12  O6A       79.0130   52.3980   18.4120 O.co2 401  15L401     -0.2415
     13  O6B       77.5860   52.0730   20.1290 O.co2 401  15L401     -0.2415
@<TRIPOS>BOND
     1     2     1    2
     2     1     3    1
     3     1    10    1
     4     4     3    1
     5     3     5    1
     6    10     9    1
     7    12    11   ar
     8     9     7    1
     9     9    11    1
    10     5     7    1
    11     5     6    1
    12     7     8    1
    13    11    13   ar
