@<TRIPOS>MOLECULE
3rfv_NAI_A_1.pdb
 44 48 0 0 0
SMALL
GASTEIGER

@<TRIPOS>ATOM
      1  PA        72.3630   41.7250   17.0080 P.3   400  NAI400      0.2189
      2  O1A       73.9290   41.0630   16.8050 O.2   400  NAI400     -0.5170
      3  O2A       71.6890   41.9150   18.5460 O.3   400  NAI400     -0.4371
      4  O5B       71.2390   41.4480   15.7240 O.3   400  NAI400     -0.3112
      5  C5B       71.7550   40.7900   14.6260 C.3   400  NAI400      0.1813
      6  C4B       70.9470   39.5940   14.1290 C.3   400  NAI400      0.1821
      7  O4B       71.2850   39.2060   12.8010 O.3   400  NAI400     -0.3135
      8  C3B       71.0210   38.4180   14.9960 C.3   400  NAI400      0.2184
      9  O3B       69.9350   38.1100   15.7970 O.3   400  NAI400     -0.2174
     10  C2B       71.7240   37.3950   14.2120 C.3   400  NAI400      0.2570
     11  O2B       71.4490   36.0470   14.5530 O.3   400  NAI400     -0.2130
     12  C1B       71.4510   37.8030   12.8060 C.3   400  NAI400      0.3186
     13  N9A       72.3810   37.3350   11.8090 N.pl3 400  NAI400     -0.1439
     14  C8A       73.7940   37.3590   11.8870 C.3   400  NAI400      0.3377
     15  N7A       74.2770   36.6770   10.7900 N.2   400  NAI400     -0.2095
     16  C5A       73.1620   36.2380   10.0290 C.2   400  NAI400      0.2526
     17  C6A       73.0640   35.5150    8.8230 C.2   400  NAI400      0.4393
     18  N6A       74.2500   35.0970    8.1610 N.pl3 400  NAI400      0.2180
     19  N1A       71.8160   35.1970    8.3080 N.2   400  NAI400      0.0021
     20  C2A       70.6610   35.5760    8.9660 C.3   400  NAI400      0.5254
     21  N3A       70.7560   36.3160   10.1880 N.2   400  NAI400     -0.0055
     22  C4A       71.9970   36.6200   10.6900 C.2   400  NAI400      0.3518
     23  O3        72.7360   43.1890   16.5980 O.3   400  NAI400     -0.2703
     24  PN        71.8800   44.4900   16.8990 P.3   400  NAI400      0.2189
     25  O1N       70.4130   44.1750   17.1370 O.2   400  NAI400     -0.5170
     26  O2N       72.4230   45.2700   18.0760 O.3   400  NAI400     -0.4371
     27  O5D       72.0170   45.3900   15.6310 O.3   400  NAI400     -0.3112
     28  C5D       71.0670   45.3150   14.6110 C.3   400  NAI400      0.1813
     29  C4D       71.6660   45.9000   13.2480 C.3   400  NAI400      0.1799
     30  O4D       71.9110   47.3610   13.2100 O.3   400  NAI400     -0.3327
     31  C3D       72.9420   45.2660   12.6580 C.3   400  NAI400      0.2158
     32  O3D       72.9860   45.0570   11.2590 O.3   400  NAI400     -0.2175
     33  C2D       73.9960   46.1030   13.2380 C.3   400  NAI400      0.2309
     34  O2D       75.2060   46.0430   12.5990 O.3   400  NAI400     -0.2158
     35  C1D       73.3380   47.4660   13.4510 C.3   400  NAI400      0.2263
     36  N1N       73.8470   48.6010   14.2680 N.pl3 400  NAI400     -0.2787
     37  C2N       73.4170   48.5890   15.6300 C.3   400  NAI400      0.1244
     38  C3N       73.8570   49.6440   16.5470 C.2   400  NAI400      0.0544
     39  C7N       73.3410   49.5740   17.9730 C.2   400  NAI400      0.2818
     40  O7N       73.1860   50.6070   18.6170 O.2   400  NAI400     -0.2670
     41  N7N       72.8390   48.3180   18.4820 N.am  400  NAI400     -0.0839
     42  C4N       74.7030   50.6710   16.0800 C.2   400  NAI400      0.0033
     43  C5N       75.1400   50.6780   14.6840 C.2   400  NAI400      0.0157
     44  C6N       74.6920   49.6190   13.7590 C.2   400  NAI400      0.0633
@<TRIPOS>BOND
     1    18    17    1
     2    19    17    2
     3    19    20    1
     4    17    16    1
     5    20    21    1
     6    16    22    1
     7    16    15    2
     8    21    22    2
     9    22    13    1
    10    15    14    1
    11    32    31    1
    12    13    14    1
    13    13    12    1
    14    34    33    1
    15    31    33    1
    16    31    29    1
    17     7    12    1
    18     7     6    1
    19    12    10    1
    20    30    29    1
    21    30    35    1
    22    33    35    1
    23    29    28    1
    24    35    36    1
    25    44    36    1
    26    44    43    2
    27     6     5    1
    28     6     8    1
    29    10    11    1
    30    10     8    1
    31    36    37    1
    32    28    27    1
    33     5     4    1
    34    43    42    1
    35     8     9    1
    36    37    38    1
    37    27    24    1
    38     4     1    1
    39    42    38    2
    40    38    39    1
    41    23    24    1
    42    23     1    1
    43     2     1    2
    44    24    25    2
    45    24    26    1
    46     1     3    1
    47    39    41   am
    48    39    40    2
