@<TRIPOS>MOLECULE
3rfx_NAD_A_1.pdb
 27 29 0 0 0
SMALL
GASTEIGER

@<TRIPOS>ATOM
      1  PA        72.6790   41.9470   16.9680 P.3   400  NAD400      0.2231
      2  O1A       74.2930   41.3910   16.7310 O.2   400  NAD400     -0.5169
      3  O2A       72.1610   42.2120   18.5600 O.3   400  NAD400     -0.4370
      4  O5B       71.4790   41.4600   15.8240 O.3   400  NAD400     -0.3111
      5  C5B       71.9690   40.8480   14.6840 C.3   400  NAD400      0.1813
      6  C4B       71.1350   39.6700   14.1760 C.3   400  NAD400      0.1821
      7  O4B       71.4540   39.2880   12.8460 O.3   400  NAD400     -0.3135
      8  C3B       71.2150   38.4880   15.0380 C.3   400  NAD400      0.2184
      9  O3B       70.1180   38.1670   15.8170 O.3   400  NAD400     -0.2174
     10  C2B       71.9420   37.4770   14.2540 C.3   400  NAD400      0.2570
     11  O2B       71.6970   36.1100   14.5580 O.3   400  NAD400     -0.2130
     12  C1B       71.6460   37.8880   12.8540 C.3   400  NAD400      0.3186
     13  N9A       72.5710   37.4180   11.8590 N.pl3 400  NAD400     -0.1439
     14  C8A       73.9810   37.4630   11.9100 C.3   400  NAD400      0.3377
     15  N7A       74.4510   36.8110   10.7920 N.2   400  NAD400     -0.2095
     16  C5A       73.3370   36.3360   10.0660 C.2   400  NAD400      0.2526
     17  C6A       73.2380   35.6130    8.8640 C.2   400  NAD400      0.4393
     18  N6A       74.4190   35.2110    8.1820 N.pl3 400  NAD400      0.2180
     19  N1A       71.9870   35.2840    8.3730 N.2   400  NAD400      0.0021
     20  C2A       70.8380   35.6530    9.0400 C.3   400  NAD400      0.5254
     21  N3A       70.9310   36.3980   10.2620 N.2   400  NAD400     -0.0055
     22  C4A       72.1780   36.7140   10.7390 C.2   400  NAD400      0.3518
     23  O3        72.8550   43.3820   16.3870 O.3   400  NAD400     -0.2261
     24  PN        72.0540   44.6740   16.8610 P.3   400  NAD400      0.5373
     25  O1N       70.6250   44.3240   17.2360 O.3   400  NAD400     -0.1143
     26  O2N       72.7360   45.3360   18.0520 O.3   400  NAD400     -0.1143
     27  O5D       72.0290   45.6820   15.6440 O.2   400  NAD400     -0.2221
@<TRIPOS>BOND
     1    18    17    1
     2    19    17    2
     3    19    20    1
     4    17    16    1
     5    20    21    1
     6    16    22    1
     7    16    15    2
     8    21    22    2
     9    22    13    1
    10    15    14    1
    11    13    14    1
    12    13    12    1
    13     7    12    1
    14     7     6    1
    15    12    10    1
    16     6     5    1
    17     6     8    1
    18    10    11    1
    19    10     8    1
    20     5     4    1
    21     8     9    1
    22    27    24    2
    23     4     1    1
    24    23    24    1
    25    23     1    1
    26     2     1    2
    27    24    25    1
    28    24    26    1
    29     1     3    1
