@<TRIPOS>MOLECULE
3rg1_BMA_A_1.pdb
 11 11 0 0 0
SMALL
GASTEIGER

@<TRIPOS>ATOM
      1  C1        11.2090  -10.9440    1.2310 C.3   903  BMA903      0.1777
      2  C2        10.0360  -10.1810    0.5540 C.3   903  BMA903      0.2141
      3  C3        10.4540   -9.2710   -0.6060 C.3   903  BMA903      0.2173
      4  C4        11.6900   -8.4450   -0.2160 C.3   903  BMA903      0.2142
      5  C5        12.7890   -9.3770    0.3050 C.3   903  BMA903      0.1810
      6  C6        14.0360   -8.5930    0.6810 C.3   903  BMA903      0.2141
      7  O2         9.3710   -9.2900    1.4670 O.3   903  BMA903     -0.2176
      8  O3         9.3440   -8.4050   -0.9970 O.3   903  BMA903     -0.2175
      9  O4        12.1840   -7.7070   -1.3480 O.3   903  BMA903     -0.2176
     10  O5        12.3380  -10.0860    1.4570 O.3   903  BMA903     -0.3481
     11  O6        14.9940   -9.5410    1.1450 O.3   903  BMA903     -0.2176
@<TRIPOS>BOND
     1     9     4    1
     2     8     3    1
     3     3     4    1
     4     3     2    1
     5     4     5    1
     6     5     6    1
     7     5    10    1
     8     2     1    1
     9     2     7    1
    10     6    11    1
    11     1    10    1
