@<TRIPOS>MOLECULE
3rg1_MAN_A_1.pdb
 11 11 0 0 0
SMALL
GASTEIGER

@<TRIPOS>ATOM
      1  C1        20.4230  -10.2030    8.5620 C.3   908  MAN908      0.1777
      2  C2        19.2570   -9.2120    8.6530 C.3   908  MAN908      0.2141
      3  C3        18.6710   -9.1740   10.0460 C.3   908  MAN908      0.2173
      4  C4        19.0550  -10.5650   10.6040 C.3   908  MAN908      0.2142
      5  C5        20.6000  -10.4260   10.8130 C.3   908  MAN908      0.1810
      6  C6        21.2300  -11.7760   11.0830 C.3   908  MAN908      0.2141
      7  O2        18.1650   -9.7000    7.8960 O.3   908  MAN908     -0.2176
      8  O3        17.2870   -8.9530    9.9950 O.3   908  MAN908     -0.2175
      9  O4        18.3480  -10.9320   11.7790 O.3   908  MAN908     -0.2176
     10  O5        21.2470   -9.8410    9.6760 O.3   908  MAN908     -0.3481
     11  O6        21.2740  -11.8930   12.4800 O.3   908  MAN908     -0.2176
@<TRIPOS>BOND
     1     7     2    1
     2     1     2    1
     3     1    10    1
     4     2     3    1
     5    10     5    1
     6     8     3    1
     7     3     4    1
     8     4     5    1
     9     4     9    1
    10     5     6    1
    11     6    11    1
