@<TRIPOS>MOLECULE
3rg2_PNS_A_1.pdb
 21 20 0 0 0
SMALL
GASTEIGER

@<TRIPOS>ATOM
      1  O23      -80.3070  -56.1040  111.8650 O.3   991  PNS991     -0.1425
      2  P24      -80.2940  -57.3520  112.7510 P.3   991  PNS991      0.3942
      3  O26      -79.5970  -57.3870  114.0830 O.3   991  PNS991     -0.1425
      4  O27      -81.8320  -57.8040  112.9960 O.3   991  PNS991     -0.2952
      5  C28      -82.7570  -57.8890  111.8940 C.3   991  PNS991      0.1537
      6  C29      -84.1480  -57.5930  112.4300 C.3   991  PNS991      0.0646
      7  C30      -84.5360  -58.5930  113.5170 C.3   991  PNS991      0.0056
      8  C31      -85.1890  -57.5410  111.3260 C.3   991  PNS991      0.0056
      9  C32      -83.9900  -56.1890  112.9730 C.3   991  PNS991      0.2312
     10  O33      -83.7580  -55.3080  111.8730 O.3   991  PNS991     -0.2131
     11  C34      -85.1890  -55.7140  113.7180 C.2   991  PNS991      0.2719
     12  O35      -85.2640  -55.8940  114.9290 O.2   991  PNS991     -0.2706
     13  N36      -86.0800  -55.0750  112.9720 N.am  991  PNS991     -0.2028
     14  C37      -87.3360  -54.5060  113.4340 C.3   991  PNS991      0.1248
     15  C38      -87.7250  -53.4070  112.4440 C.3   991  PNS991      0.1102
     16  C39      -88.7000  -52.4930  113.1510 C.2   991  PNS991      0.2432
     17  O40      -88.6970  -52.3970  114.3700 O.2   991  PNS991     -0.2733
     18  N41      -89.5720  -51.7990  112.4480 N.am  991  PNS991     -0.2044
     19  C42      -90.5220  -50.9180  113.0910 C.3   991  PNS991      0.1276
     20  C43      -90.7830  -49.8580  112.0380 C.3   991  PNS991      0.0920
     21  S44      -91.6030  -48.4290  112.8110 S.3   991  PNS991     -0.0802
@<TRIPOS>BOND
     1     8     6    1
     2     1     2    1
     3    10     9    1
     4     5     6    1
     5     5     4    1
     6    20    21    1
     7    20    19    1
     8     6     9    1
     9     6     7    1
    10    15    16    1
    11    15    14    1
    12    18    19    1
    13    18    16   am
    14     2     4    1
    15     2     3    1
    16    13    14    1
    17    13    11   am
    18     9    11    1
    19    16    17    2
    20    11    12    2
