@<TRIPOS>MOLECULE
3rg2_SVS_A_1.pdb
 31 34 0 0 0
SMALL
GASTEIGER

@<TRIPOS>ATOM
      1  S        -97.7960 -105.1220   96.6440 S.O2  698  SVS698      0.0577
      2  N1       -99.2040  -97.3810  102.9890 N.2   698  SVS698      0.0021
      3  C2       -98.0370  -97.9080  103.3580 C.3   698  SVS698      0.5254
      4  N3       -97.5850  -99.0390  102.8020 N.2   698  SVS698     -0.0055
      5  C4       -98.2670  -99.6960  101.8390 C.2   698  SVS698      0.3518
      6  C5       -99.4830  -99.1730  101.4440 C.2   698  SVS698      0.2526
      7  C6       -99.9500  -97.9970  102.0380 C.2   698  SVS698      0.4393
      8  N6      -101.1450  -97.4590  101.6640 N.pl3 698  SVS698      0.2180
      9  N7       -99.9770 -100.0020  100.4960 N.2   698  SVS698     -0.2095
     10  C8       -99.0970 -101.0170  100.3190 C.3   698  SVS698      0.3377
     11  N9       -98.0480 -100.8300  101.1370 N.pl3 698  SVS698     -0.1439
     12  C1'      -96.8790 -101.7600  101.1920 C.3   698  SVS698      0.3186
     13  C14     -102.3300 -103.6550   95.9500 C.ar  698  SVS698      0.1918
     14  O14     -102.3520 -104.9550   95.5480 O.3   698  SVS698     -0.2869
     15  C15     -103.5780 -103.0640   96.1990 C.ar  698  SVS698      0.0417
     16  C16     -103.6560 -101.7360   96.5960 C.ar  698  SVS698      0.0033
     17  C17     -102.4730 -101.0170   96.7800 C.ar  698  SVS698     -0.0001
     18  C18     -101.2230 -101.6000   96.5400 C.ar  698  SVS698     -0.0011
     19  C19     -101.1360 -102.9300   96.1210 C.ar  698  SVS698      0.0186
     20  O1P      -97.8520 -106.5360   96.9100 O.2   698  SVS698     -0.1561
     21  C2'      -96.9050 -102.8050  102.2920 C.3   698  SVS698      0.2569
     22  O2'      -95.5400 -103.0710  102.5700 O.3   698  SVS698     -0.2130
     23  C21      -99.7320 -103.4610   95.8140 C.3   698  SVS698      0.0567
     24  C22      -99.4180 -104.7430   96.5710 C.3   698  SVS698      0.1753
     25  O2P      -97.0340 -104.7970   95.4630 O.2   698  SVS698     -0.1561
     26  C3'      -97.4690 -104.0360  101.6170 C.3   698  SVS698      0.2174
     27  O3'      -97.0460 -105.2750  102.1930 O.3   698  SVS698     -0.2175
     28  C4'      -96.8600 -103.8980  100.2490 C.3   698  SVS698      0.1715
     29  O4'      -96.9180 -102.5020   99.9790 O.3   698  SVS698     -0.3146
     30  C5'      -97.5680 -104.6930   99.1650 C.3   698  SVS698      0.1473
     31  N5'      -97.0690 -104.3610   97.8370 N.3   698  SVS698     -0.0794
@<TRIPOS>BOND
     1    25     1    2
     2    14    13    1
     3    23    19    1
     4    23    24    1
     5    13    19   ar
     6    13    15   ar
     7    19    18   ar
     8    15    16   ar
     9    18    17   ar
    10    24     1    1
    11    16    17   ar
    12     1    20    2
    13     1    31    1
    14    31    30    1
    15    30    28    1
    16    29    28    1
    17    29    12    1
    18    28    26    1
    19    10     9    1
    20    10    11    1
    21     9     6    2
    22    11    12    1
    23    11     5    1
    24    12    21    1
    25     6     5    1
    26     6     7    1
    27    26    27    1
    28    26    21    1
    29     8     7    1
    30     5     4    2
    31     7     2    2
    32    21    22    1
    33     4     3    1
    34     2     3    1
