@<TRIPOS>MOLECULE
3rg9_NDP_A_1.pdb
 48 52 0 0 0
SMALL
GASTEIGER

@<TRIPOS>ATOM
      1  PA       -12.2200   31.7850    9.6700 P.3   601  NDP601      0.2189
      2  O1A      -13.1240   32.7380    9.0270 O.2   601  NDP601     -0.5170
      3  O2A      -12.6630   30.4130    9.4120 O.3   601  NDP601     -0.4371
      4  O5B      -10.7530   31.9510    9.1340 O.3   601  NDP601     -0.3112
      5  C5B      -10.1960   33.2820    9.3350 C.3   601  NDP601      0.1813
      6  C4B       -8.7940   33.1980    8.7360 C.3   601  NDP601      0.1820
      7  O4B       -8.7850   33.0260    7.3140 O.3   601  NDP601     -0.3136
      8  C3B       -7.7600   34.3430    8.9520 C.3   601  NDP601      0.2157
      9  O3B       -7.2050   34.1620   10.2960 O.3   601  NDP601     -0.2175
     10  C2B       -6.8380   34.1800    7.7340 C.3   601  NDP601      0.2314
     11  O2B       -6.1310   33.0260    8.2370 O.3   601  NDP601     -0.2630
     12  C1B       -7.8620   33.8820    6.6290 C.3   601  NDP601      0.3158
     13  N9A       -8.4760   35.1240    6.1390 N.pl3 601  NDP601     -0.1439
     14  C8A       -9.6690   35.7740    6.3640 C.3   601  NDP601      0.3377
     15  N7A       -9.7250   36.9320    5.6160 N.2   601  NDP601     -0.2095
     16  C5A       -8.5710   36.9960    4.9240 C.2   601  NDP601      0.2526
     17  C6A       -8.0510   37.8870    4.0300 C.2   601  NDP601      0.4393
     18  N6A       -8.7280   38.9930    3.6600 N.pl3 601  NDP601      0.2180
     19  N1A       -6.8320   37.6490    3.5000 N.2   601  NDP601      0.0021
     20  C2A       -6.0730   36.5700    3.8020 C.3   601  NDP601      0.5254
     21  N3A       -6.5400   35.6760    4.6770 N.2   601  NDP601     -0.0055
     22  C4A       -7.7900   35.8760    5.2490 C.2   601  NDP601      0.3518
     23  O3       -12.0940   32.0480   11.2360 O.3   601  NDP601     -0.2703
     24  PN       -13.2610   32.5090   12.2190 P.3   601  NDP601      0.2189
     25  O1N      -13.9480   33.7020   11.7210 O.2   601  NDP601     -0.5170
     26  O2N      -12.6170   32.7570   13.5410 O.3   601  NDP601     -0.4371
     27  O5D      -14.3890   31.3660   12.3010 O.3   601  NDP601     -0.3112
     28  C5D      -13.9200   30.0580   12.7990 C.3   601  NDP601      0.1813
     29  C4D      -15.0850   29.5500   13.7240 C.3   601  NDP601      0.1799
     30  O4D      -16.3600   29.4120   13.0570 O.3   601  NDP601     -0.3327
     31  C3D      -14.8170   28.1900   14.3810 C.3   601  NDP601      0.2158
     32  O3D      -15.5190   28.2320   15.6560 O.3   601  NDP601     -0.2175
     33  C2D      -15.4790   27.1890   13.4140 C.3   601  NDP601      0.2309
     34  O2D      -15.8110   25.9000   13.9620 O.3   601  NDP601     -0.2158
     35  C1D      -16.6970   27.9850   12.9630 C.3   601  NDP601      0.2263
     36  N1N      -17.2930   27.6560   11.6220 N.pl3 601  NDP601     -0.2787
     37  C2N      -18.7950   27.4820   11.6860 C.3   601  NDP601      0.1244
     38  C3N      -19.4850   27.1930   10.5230 C.2   601  NDP601      0.0544
     39  C7N      -21.0110   27.0250   10.5950 C.2   601  NDP601      0.2818
     40  O7N      -21.6610   26.7750    9.5500 O.2   601  NDP601     -0.2670
     41  N7N      -21.6440   27.1420   11.7510 N.am  601  NDP601     -0.0839
     42  C4N      -18.7030   27.0610    9.2410 C.2   601  NDP601      0.0033
     43  C5N      -17.2000   27.2360    9.2110 C.2   601  NDP601      0.0157
     44  C6N      -16.5300   27.5220   10.3500 C.2   601  NDP601      0.0633
     45  P2B       -4.5840   33.1650    8.5440 P.3   601  NDP601      0.5328
     46  O1X       -3.9410   34.4400    8.0480 O.2   601  NDP601     -0.2224
     47  O2X       -4.5430   33.2240   10.0480 O.3   601  NDP601     -0.1145
     48  O3X       -3.8860   31.8840    8.1510 O.3   601  NDP601     -0.1145
@<TRIPOS>BOND
     1    19    20    1
     2    19    17    2
     3    18    17    1
     4    20    21    1
     5    17    16    1
     6    21    22    2
     7    16    22    1
     8    16    15    2
     9    22    13    1
    10    15    14    1
    11    13    14    1
    12    13    12    1
    13    12     7    1
    14    12    10    1
    15     7     6    1
    16    10    11    1
    17    10     8    1
    18    46    45    2
    19    48    45    1
    20    11    45    1
    21    45    47    1
    22     6     8    1
    23     6     5    1
    24     8     9    1
    25     2     1    2
    26     4     5    1
    27     4     1    1
    28    43    42    1
    29    43    44    2
    30    42    38    2
    31     3     1    1
    32    40    39    2
    33     1    23    1
    34    44    36    1
    35    38    39    1
    36    38    37    1
    37    39    41   am
    38    23    24    1
    39    36    37    1
    40    36    35    1
    41    25    24    2
    42    24    27    1
    43    24    26    1
    44    27    28    1
    45    28    29    1
    46    35    30    1
    47    35    33    1
    48    30    29    1
    49    33    34    1
    50    33    31    1
    51    29    31    1
    52    31    32    1
