@<TRIPOS>MOLECULE
3rg9_WRA_A_1.pdb
 24 25 0 0 0
SMALL
GASTEIGER

@<TRIPOS>ATOM
      1  C1       -21.5500   22.8300    8.4610 C.3   602  WRA602      0.1882
      2  N2       -22.9860   22.7850    8.0670 N.2   602  WRA602     -0.1755
      3  C3       -23.5250   23.6370    7.1790 C.1   602  WRA602      0.1863
      4  N4       -22.7580   24.6110    6.5670 N.2   602  WRA602     -0.2967
      5  C5       -21.3910   24.6900    6.7520 C.2   602  WRA602      0.3223
      6  N6       -20.7420   23.7530    7.5550 N.4   602  WRA602     -0.1779
      7  O7       -19.2940   23.8670    7.7490 O.3   602  WRA602     -0.2523
      8  C8       -18.2660   23.5910    6.6830 C.3   602  WRA602      0.1779
      9  C9       -16.8010   23.8030    7.1930 C.3   602  WRA602      0.0822
     10  C10      -16.5660   23.0400    8.5530 C.3   602  WRA602      0.2081
     11  O11      -16.8490   21.5850    8.4170 O.3   602  WRA602     -0.4745
     12  C12      -16.7650   20.6350    9.4750 C.ar  602  WRA602      0.1499
     13  C13      -17.0080   19.1990    9.1770 C.ar  602  WRA602      0.0924
     14  C14      -16.9180   18.2180   10.2640 C.ar  602  WRA602      0.0267
     15  C15      -16.5920   18.6610   11.6450 C.ar  602  WRA602      0.0692
     16  C16      -16.3470   20.1180   11.9450 C.ar  602  WRA602      0.0713
     17  C17      -16.4370   21.0800   10.8510 C.ar  602  WRA602      0.0500
     18  CM1      -20.9500   21.4080    8.4720 C.3   602  WRA602      0.0510
     19  CM2      -21.5480   23.4480    9.8820 C.3   602  WRA602      0.0510
     20  NH1      -24.8410   23.5340    6.9390 N.pl3 602  WRA602     -0.0347
     21  NH2      -20.6910   25.6430    6.1790 N.pl3 602  WRA602     -0.0732
     22 CL1       -17.3910   18.7090    7.5630 Cl    602  WRA602     -0.0791
     23 CL2       -16.4990   17.4600   12.9070 Cl    602  WRA602     -0.0813
     24 CL3       -15.9500   20.8220   13.5330 Cl    602  WRA602     -0.0813
@<TRIPOS>BOND
     1    21     5    1
     2     4     5    2
     3     4     3    2
     4     8     9    1
     5     8     7    1
     6     5     6    1
     7    20     3    1
     8     3     2    2
     9     9    10    1
    10     6     7    1
    11     6     1    1
    12    22    13    1
    13     2     1    1
    14    11    10    1
    15    11    12    1
    16     1    18    1
    17     1    19    1
    18    13    12   ar
    19    13    14   ar
    20    12    17   ar
    21    14    15   ar
    22    17    16   ar
    23    15    16   ar
    24    15    23    1
    25    16    24    1
