@<TRIPOS>MOLECULE
3rga_ILD_A_1.pdb
 36 39 0 0 0
SMALL
GASTEIGER

@<TRIPOS>ATOM
      1  C1        30.2870   30.5310    9.2880 C.ar  302  ILD302      0.0190
      2  C2        31.6060   30.3980    9.7810 C.ar  302  ILD302     -0.0008
      3  C3        32.0810   29.2850   10.4540 C.ar  302  ILD302     -0.0002
      4  C4        31.2050   28.2290   10.6180 C.ar  302  ILD302     -0.0000
      5  C5        29.9070   28.3440   10.1240 C.ar  302  ILD302     -0.0002
      6  C6        29.4030   29.4810    9.4930 C.ar  302  ILD302     -0.0008
      7  C7        30.1680   30.4200    6.3940 C.3   302  ILD302      0.0263
      8  C8        30.1040   31.8020    7.0770 C.3   302  ILD302      0.1300
      9  C9        29.7950   31.7620    8.5760 C.3   302  ILD302      0.2112
     10  O10       28.3370   31.7280    8.5640 O.3   302  ILD302     -0.4317
     11  C11       27.9440   32.4020    7.4490 C.2   302  ILD302      0.4110
     12  N12       28.9410   32.5380    6.5830 N.am  302  ILD302     -0.1934
     13  C13       28.9360   33.1190    5.3610 C.2   302  ILD302      0.2358
     14  C14       27.7400   33.9370    4.8220 C.3   302  ILD302      0.1043
     15  C15       28.1830   35.4120    4.6780 C.3   302  ILD302      0.1237
     16  C16       27.0600   36.4050    5.0970 C.3   302  ILD302      0.0301
     17  C17       27.4800   37.6630    4.3370 C.3   302  ILD302      0.0321
     18  C18       28.0110   37.0420    2.9970 C.3   302  ILD302      0.1175
     19  C19       29.1210   37.8770    2.3690 C.3   302  ILD302      0.1398
     20  C20       28.7960   39.3400    2.0440 C.3   302  ILD302      0.0345
     21  C21       30.0930   40.1870    2.3420 C.3   302  ILD302      0.0323
     22  C22       31.0300   39.1420    2.9950 C.3   302  ILD302      0.1207
     23  C23       32.2300   38.7130    2.0740 C.3   302  ILD302      0.1766
     24  C24       33.1910   39.8000    1.5870 C.3   302  ILD302      0.0380
     25  O25       26.7810   32.8190    7.3320 O.2   302  ILD302     -0.2258
     26  O26       29.9760   33.0540    4.6750 O.2   302  ILD302     -0.2743
     27  C27       27.1300   33.2890    3.5660 C.3   302  ILD302      0.0116
     28  C28       26.6480   31.8790    3.9840 C.3   302  ILD302      0.0006
     29  O29       28.5360   35.7550    3.3400 O.3   302  ILD302     -0.3581
     30  C30       26.8880   36.6980    6.6580 C.3   302  ILD302      0.0026
     31  C31       26.8900   36.8070    1.9430 C.3   302  ILD302      0.0296
     32  C32       27.3250   35.9780    0.7240 C.3   302  ILD302      0.0026
     33  O33       30.2300   37.9380    3.2900 O.3   302  ILD302     -0.3561
     34  C34       31.5850   39.7530    4.3020 C.3   302  ILD302      0.0298
     35  C35       30.5400   39.9960    5.3990 C.3   302  ILD302      0.0026
     36  O36       31.8340   37.9220    0.9130 O.3   302  ILD302     -0.2206
@<TRIPOS>BOND
     1    32    31    1
     2    36    23    1
     3    24    23    1
     4    31    18    1
     5    20    21    1
     6    20    19    1
     7    23    22    1
     8    21    22    1
     9    19    18    1
    10    19    33    1
    11    22    33    1
    12    22    34    1
    13    18    29    1
    14    18    17    1
    15    29    15    1
    16    27    28    1
    17    27    14    1
    18    34    35    1
    19    17    16    1
    20    26    13    2
    21    15    14    1
    22    15    16    1
    23    14    13    1
    24    16    30    1
    25    13    12   am
    26     7     8    1
    27    12     8    1
    28    12    11   am
    29     8     9    1
    30    25    11    2
    31    11    10    1
    32    10     9    1
    33     9     1    1
    34     1     6   ar
    35     1     2   ar
    36     6     5   ar
    37     2     3   ar
    38     5     4   ar
    39     3     4   ar
