@<TRIPOS>MOLECULE
3rga_LSB_A_1.pdb
 24 25 0 0 0
SMALL
GASTEIGER

@<TRIPOS>ATOM
      1  N12       57.2630   54.5010    9.5000 N.am  301  LSB301     -0.0877
      2  C13       55.9640   54.4120   10.0480 C.2   301  LSB301      0.2627
      3  C14       55.4070   53.0150   10.1580 C.3   301  LSB301      0.1101
      4  C15       55.0290   52.5730   11.5480 C.3   301  LSB301      0.1606
      5  C16       56.0150   52.4900   12.7120 C.3   301  LSB301      0.0334
      6  C17       55.1850   52.1370   13.9420 C.3   301  LSB301      0.0322
      7  C18       54.3480   50.8550   13.9470 C.3   301  LSB301      0.1176
      8  C19       52.9430   50.9970   13.7700 C.3   301  LSB301      0.1398
      9  C20       52.0100   49.8300   13.4510 C.3   301  LSB301      0.0345
     10  C21       50.5260   50.2030   13.5770 C.3   301  LSB301      0.0322
     11  C22       49.4590   49.1160   13.6110 C.3   301  LSB301      0.1176
     12  C23       49.7570   47.7850   14.0030 C.3   301  LSB301      0.1398
     13  C24       48.6220   46.9500   14.4890 C.3   301  LSB301      0.0346
     14  O26       55.4220   55.4430   10.4000 O.2   301  LSB301     -0.2716
     15  C27       54.2540   52.6620    9.2300 C.3   301  LSB301      0.0118
     16  C28       53.5400   53.6370    8.3730 C.3   301  LSB301      0.0006
     17  O29       54.6390   51.2740   11.2950 O.3   301  LSB301     -0.2226
     18  C30       56.7540   53.7730   12.8950 C.3   301  LSB301      0.0027
     19  C31       55.0790   49.5040   13.7640 C.3   301  LSB301      0.0296
     20  C32       56.2990   49.2810   14.6190 C.3   301  LSB301      0.0026
     21  O33       53.4860   50.8240   15.0750 O.3   301  LSB301     -0.3563
     22  C34       47.9680   49.5130   13.6580 C.3   301  LSB301      0.0296
     23  C35       47.4210   50.0440   14.9600 C.3   301  LSB301      0.0026
     24  O36       49.6560   48.1180   12.6360 O.3   301  LSB301     -0.3563
@<TRIPOS>BOND
     1    16    15    1
     2    15     3    1
     3     1     2   am
     4     2     3    1
     5     2    14    2
     6     3     4    1
     7    17     4    1
     8     4     5    1
     9    24    11    1
    10    24    12    1
    11     5    18    1
    12     5     6    1
    13     9    10    1
    14     9     8    1
    15    10    11    1
    16    11    22    1
    17    11    12    1
    18    22    23    1
    19    19     7    1
    20    19    20    1
    21     8     7    1
    22     8    21    1
    23     6     7    1
    24     7    21    1
    25    12    13    1
