@<TRIPOS>MOLECULE
3rgf_BAX_A_1.pdb
 32 34 0 0 0
SMALL
GASTEIGER

@<TRIPOS>ATOM
      1  C1        -3.4790    3.3170   22.8680 C.ar  465  BAX465      0.0214
      2  C2        -4.0040    4.6020   22.9700 C.ar  465  BAX465      0.0750
      3  C3        -3.6960    5.5450   22.0010 C.ar  465  BAX465      0.0175
      4  C4        -2.8710    5.2200   20.9440 C.ar  465  BAX465      0.0127
      5  C13       -4.9660    4.4100   25.2940 C.2   465  BAX465      0.3477
      6  C16       -6.1760    4.5770   27.4750 C.ar  465  BAX465      0.0752
      7  C17       -6.6170    5.5420   28.3660 C.ar  465  BAX465      0.0198
      8  C18       -6.9250    5.2060   29.6710 C.ar  465  BAX465      0.0388
      9  C19       -6.7870    3.8930   30.0960 C.ar  465  BAX465      0.1454
     10  C20       -6.3460    2.9190   29.2070 C.ar  465  BAX465      0.0388
     11  C21       -6.0490    3.2630   27.9020 C.ar  465  BAX465      0.0198
     12  O22       -7.1000    3.6090   31.3900 O.3   465  BAX465     -0.4534
     13  C24       -7.9650    1.3550   31.5410 C.ar  465  BAX465      0.0582
     14  C25       -8.0090    0.1590   32.2410 C.ar  465  BAX465      0.1021
     15  C27       -6.4950    1.0630   33.8860 C.ar  465  BAX465      0.1392
     16  C28       -6.4580    2.2550   33.1850 C.ar  465  BAX465      0.0613
     17  N30       -5.7960   -0.1770   35.9380 N.am  465  BAX465     -0.1985
     18  C31       -5.0150   -0.3540   37.1730 C.3   465  BAX465      0.1389
     19  C5        -2.3590    3.9350   20.8480 C.ar  465  BAX465      0.0616
     20  C6        -2.6570    2.9740   21.8010 C.ar  465  BAX465      0.0833
     21  C7        -2.0630    1.5780   21.6780 C.3   465  BAX465      0.4194
     22  F8        -2.5120    0.7200   22.6180 F     465  BAX465     -0.1658
     23  F9        -2.3570    1.0290   20.4870 F     465  BAX465     -0.1658
     24  F10       -0.7180    1.6980   21.7890 F     465  BAX465     -0.1658
     25 CL11       -1.3380    3.5590   19.5250 Cl    465  BAX465     -0.0823
     26  N12       -4.8540    4.9780   24.0370 N.am  465  BAX465     -0.1607
     27  N14       -5.8890    4.9790   26.1470 N.am  465  BAX465     -0.1607
     28  O15       -4.3040    3.4600   25.6380 O.2   465  BAX465     -0.2484
     29  C23       -7.1870    2.3990   32.0190 C.ar  465  BAX465      0.1485
     30  N26       -7.2690    0.0130   33.4060 N.ar  465  BAX465     -0.2390
     31  C29       -5.6960    0.9360   35.1260 C.2   465  BAX465      0.2827
     32  O32       -4.9290    1.8250   35.4220 O.2   465  BAX465     -0.2667
@<TRIPOS>BOND
     1    25    19    1
     2    23    21    1
     3    19     4   ar
     4    19    20   ar
     5     4     3   ar
     6    21    24    1
     7    21    20    1
     8    21    22    1
     9    20     1   ar
    10     3     2   ar
    11     1     2   ar
    12     2    26    1
    13    26     5   am
    14     5    28    2
    15     5    27   am
    16    27     6    1
    17     6    11   ar
    18     6     7   ar
    19    11    10   ar
    20     7     8   ar
    21    10     9   ar
    22     8     9   ar
    23     9    12    1
    24    12    29    1
    25    13    29   ar
    26    13    14   ar
    27    29    16   ar
    28    14    30   ar
    29    16    15   ar
    30    30    15   ar
    31    15    31    1
    32    31    32    2
    33    31    17   am
    34    17    18    1
