@<TRIPOS>MOLECULE
3rgg_AIR_A_1.pdb
 19 20 0 0 0
SMALL
GASTEIGER

@<TRIPOS>ATOM
      1  N1        17.4970  -23.8350   26.5840 N.ar  1001  AIR1001    -0.2702
      2  C2        18.5390  -23.0880   27.0750 C.ar  1001  AIR1001     0.1814
      3  N3        18.3610  -22.8440   28.4000 N.ar  1001  AIR1001    -0.2208
      4  C4        17.1950  -23.4430   28.7680 C.ar  1001  AIR1001     0.1365
      5  C5        16.6850  -24.0320   27.6110 C.ar  1001  AIR1001     0.1735
      6  N6        15.5020  -24.7310   27.5340 N.pl3 1001  AIR1001    -0.1072
      7  C1'       17.2570  -24.3130   25.2120 C.3   1001  AIR1001     0.2408
      8  C2'       17.9660  -23.4830   24.1610 C.3   1001  AIR1001     0.2337
      9  C3'       18.1170  -24.4670   22.9960 C.3   1001  AIR1001     0.2161
     10  C4'       18.1850  -25.8160   23.7020 C.3   1001  AIR1001     0.1803
     11  O4'       17.6930  -25.6750   25.0350 O.3   1001  AIR1001    -0.3306
     12  O2'       17.2190  -22.3470   23.8150 O.3   1001  AIR1001    -0.2155
     13  O3'       17.0290  -24.3110   22.0580 O.3   1001  AIR1001    -0.2175
     14  C5'       19.6140  -26.2950   23.8620 C.3   1001  AIR1001     0.1859
     15  O5'       20.3600  -25.3120   24.6070 O.3   1001  AIR1001    -0.2675
     16  P         21.9770  -25.5020   24.7220 P.3   1001  AIR1001     0.5327
     17  O6        22.1190  -26.9710   25.0700 O.3   1001  AIR1001    -0.1145
     18  O7        22.3590  -24.5300   25.8210 O.3   1001  AIR1001    -0.1145
     19  O8        22.4420  -25.0860   23.3380 O.2   1001  AIR1001    -0.2224
@<TRIPOS>BOND
     1    13     9    1
     2     9    10    1
     3     9     8    1
     4    19    16    2
     5    10    14    1
     6    10    11    1
     7    12     8    1
     8    14    15    1
     9     8     7    1
    10    15    16    1
    11    16    17    1
    12    16    18    1
    13    11     7    1
    14     7     1    1
    15     1     2   ar
    16     1     5   ar
    17     2     3   ar
    18     6     5    1
    19     5     4   ar
    20     3     4   ar
