@<TRIPOS>MOLECULE
3rgk_HEM_A_1.pdb
 43 50 0 0 0
SMALL
GASTEIGER

@<TRIPOS>ATOM
      1  CHA       -5.2480   39.7690   -0.2500 C.2   154  HEM154      0.0000
      2  CHB       -3.7740   36.7900    3.2800 C.2   154  HEM154      0.0000
      3  CHC       -2.8790   33.3280    0.0130 C.2   154  HEM154      0.0000
      4  CHD       -4.3420   36.2620   -3.5360 C.2   154  HEM154      0.0000
      5  C1A       -4.9600   39.2560    0.9960 C.2   154  HEM154      0.0000
      6  C2A       -5.1770   39.9250    2.2700 C.2   154  HEM154      0.0000
      7  C3A       -4.7620   39.0990    3.2350 C.2   154  HEM154      0.0000
      8  C4A       -4.2790   37.8820    2.6150 C.2   154  HEM154      0.0000
      9  CMA       -4.7920   39.3520    4.7600 C.3   154  HEM154      0.0000
     10  CAA       -5.7890   41.3380    2.4640 C.3   154  HEM154      0.0000
     11  CBA       -7.2830   41.2030    2.8140 C.3   154  HEM154      0.0000
     12  CGA       -8.0000   40.3350    1.8030 C.2   154  HEM154      0.0000
     13  O1A       -8.3140   39.1540    2.1160 O.co2 154  HEM154      0.0000
     14  O2A       -8.2520   40.8160    0.6810 O.co2 154  HEM154      0.0000
     15  C1B       -3.4050   35.5790    2.7200 C.ar  154  HEM154      0.0000
     16  C2B       -2.9260   34.4070    3.4290 C.ar  154  HEM154      0.0000
     17  C3B       -2.6710   33.4530    2.5250 C.ar  154  HEM154      0.0000
     18  C4B       -2.9890   33.9890    1.2130 C.ar  154  HEM154      0.0000
     19  CMB       -2.7430   34.3140    4.9620 C.3   154  HEM154      0.0000
     20  CAB       -2.1400   32.0290    2.7970 C.2   154  HEM154      0.0000
     21  CBB       -1.0710   31.8450    3.5780 C.2   154  HEM154      0.0000
     22  C1C       -3.1240   33.8320   -1.2410 C.2   154  HEM154      0.0000
     23  C2C       -2.7720   33.2140   -2.5170 C.2   154  HEM154      0.0000
     24  C3C       -3.1760   34.0350   -3.5030 C.2   154  HEM154      0.0000
     25  C4C       -3.7870   35.1900   -2.8770 C.2   154  HEM154      0.0000
     26  CMC       -2.0690   31.8470   -2.6570 C.3   154  HEM154      0.0000
     27  CAC       -3.0640   33.8910   -5.0470 C.2   154  HEM154      0.0000
     28  CBC       -2.3290   32.9520   -5.6540 C.2   154  HEM154      0.0000
     29  C1D       -4.6580   37.4830   -2.9900 C.ar  154  HEM154      0.0000
     30  C2D       -4.9550   38.6700   -3.7690 C.ar  154  HEM154      0.0000
     31  C3D       -5.2220   39.7690   -2.7550 C.ar  154  HEM154      0.0000
     32  C4D       -5.0660   39.1400   -1.4580 C.ar  154  HEM154      0.0000
     33  CMD       -4.9750   38.8080   -5.3060 C.3   154  HEM154      0.0000
     34  CAD       -5.5550   41.2440   -3.0710 C.3   154  HEM154      0.0000
     35  CBD       -4.1850   41.9270   -3.1570 C.3   154  HEM154      0.0000
     36  CGD       -4.2940   43.3890   -3.5100 C.2   154  HEM154      0.0000
     37  O1D       -4.6660   43.6900   -4.6690 O.co2 154  HEM154      0.0000
     38  O2D       -3.9960   44.2480   -2.6430 O.co2 154  HEM154      0.0000
     39  NA        -4.4260   38.0090    1.2470 N.2   154  HEM154      0.0000
     40  NB        -3.4280   35.2880    1.3780 N.ar  154  HEM154      0.0000
     41  NC        -3.7420   35.0330   -1.5080 N.2   154  HEM154      0.0000
     42  ND        -4.7380   37.8000   -1.6360 N.ar  154  HEM154      0.0000
     43 FE         -4.1470   36.5090   -0.1270 Fe    154  HEM154      0.0000
@<TRIPOS>BOND
     1    28    27    2
     2    33    30    1
     3    27    24    1
     4    37    36   ar
     5    30    29   ar
     6    30    31   ar
     7     4    29    2
     8     4    25    1
     9    36    35    1
    10    36    38   ar
    11    24    25    1
    12    24    23    2
    13    35    34    1
    14    34    31    1
    15    29    42   ar
    16    25    41    2
    17    31    32   ar
    18    26    23    1
    19    23    22    1
    20    42    32   ar
    21    42    43    1
    22    41    22    1
    23    41    43    1
    24    32     1    2
    25    22     3    2
    26     1     5    1
    27    43    39    1
    28    43    40    1
    29     3    18    1
    30    14    12   ar
    31     5    39    2
    32     5     6    1
    33    18    40   ar
    34    18    17   ar
    35    39     8    1
    36    40    15   ar
    37    12    13   ar
    38    12    11    1
    39     6    10    1
    40     6     7    2
    41    10    11    1
    42    17    20    1
    43    17    16   ar
    44     8     7    1
    45     8     2    2
    46    15     2    1
    47    15    16   ar
    48    20    21    2
    49     7     9    1
    50    16    19    1
