@<TRIPOS>MOLECULE
3rgl_ATP_A_1.pdb
 31 33 0 0 0
SMALL
GASTEIGER

@<TRIPOS>ATOM
      1  PG       -29.1340   -0.7400   -5.8800 P.3   401  ATP401      0.5373
      2  O1G      -29.9370   -1.1470   -4.6640 O.3   401  ATP401     -0.1143
      3  O2G      -29.7570    0.3890   -6.6690 O.3   401  ATP401     -0.1143
      4  O3G      -28.6470   -1.9080   -6.7100 O.2   401  ATP401     -0.2221
      5  PB       -26.8090    0.9300   -6.0360 P.3   401  ATP401      0.2277
      6  O1B      -27.4400    1.3620   -7.3410 O.2   401  ATP401     -0.5168
      7  O2B      -25.4090    0.3510   -6.0500 O.3   401  ATP401     -0.4368
      8  O3B      -27.7880   -0.0960   -5.2550 O.3   401  ATP401     -0.2258
      9  PA       -26.7990    3.7090   -5.4880 P.3   401  ATP401      0.2189
     10  O1A      -28.2000    4.2690   -5.5700 O.3   401  ATP401     -0.4371
     11  O2A      -25.8850    3.7970   -6.6920 O.2   401  ATP401     -0.5170
     12  O3A      -26.8460    2.1710   -4.9930 O.3   401  ATP401     -0.2700
     13  O5'      -26.0560    4.3770   -4.2220 O.3   401  ATP401     -0.3112
     14  C5'      -25.5710    5.7180   -4.2450 C.3   401  ATP401      0.1813
     15  C4'      -24.1480    5.7090   -3.7000 C.3   401  ATP401      0.1821
     16  O4'      -24.0230    4.6850   -2.7130 O.3   401  ATP401     -0.3135
     17  C3'      -23.1130    5.3900   -4.7820 C.3   401  ATP401      0.2184
     18  O3'      -22.4500    6.5800   -5.2400 O.3   401  ATP401     -0.2174
     19  C2'      -22.1320    4.4150   -4.1450 C.3   401  ATP401      0.2570
     20  O2'      -20.8230    4.9850   -3.9940 O.3   401  ATP401     -0.2130
     21  C1'      -22.7140    4.1060   -2.7740 C.3   401  ATP401      0.3186
     22  N9       -22.7370    2.6330   -2.5660 N.pl3 401  ATP401     -0.1439
     23  C8       -23.6120    1.7560   -3.0990 C.3   401  ATP401      0.3377
     24  N7       -23.3330    0.4850   -2.7040 N.2   401  ATP401     -0.2095
     25  C5       -22.2550    0.5470   -1.8950 C.2   401  ATP401      0.2526
     26  C6       -21.4310   -0.4160   -1.1250 C.2   401  ATP401      0.4393
     27  N6       -21.7220   -1.7350   -1.1480 N.pl3 401  ATP401      0.2180
     28  N1       -20.3830    0.0540   -0.4130 N.2   401  ATP401      0.0021
     29  C2       -20.0880    1.3650   -0.3800 C.3   401  ATP401      0.5254
     30  N3       -20.7930    2.2990   -1.0460 N.2   401  ATP401     -0.0055
     31  C4       -21.8630    1.9600   -1.8110 C.2   401  ATP401      0.3518
@<TRIPOS>BOND
     1     6     5    2
     2     4     1    2
     3    11     9    2
     4     3     1    1
     5     7     5    1
     6     5     8    1
     7     5    12    1
     8     1     8    1
     9     1     2    1
    10    10     9    1
    11     9    12    1
    12     9    13    1
    13    18    17    1
    14    17    19    1
    15    17    15    1
    16    14    13    1
    17    14    15    1
    18    19    20    1
    19    19    21    1
    20    15    16    1
    21    23    24    1
    22    23    22    1
    23    21    16    1
    24    21    22    1
    25    24    25    2
    26    22    31    1
    27    25    31    1
    28    25    26    1
    29    31    30    2
    30    27    26    1
    31    26    28    2
    32    30    29    1
    33    28    29    1
