@<TRIPOS>MOLECULE
3rgm_MTN_A_1.pdb
 12 12 0 0 0
SMALL
GASTEIGER

@<TRIPOS>ATOM
      1  O1        34.7660    2.0260  -19.7250 O.3   604  MTN604     -0.1175
      2  N1        34.1910    1.1160  -20.6090 N.4   604  MTN604     -0.1311
      3  C1        34.0610    1.2940  -22.0420 C.3   604  MTN604      0.0909
      4  C2        33.3850    0.0220  -22.5280 C.2   604  MTN604     -0.0160
      5  C3        33.0570   -0.7260  -21.4850 C.2   604  MTN604     -0.0205
      6  C4        32.3460   -2.0800  -21.5010 C.3   604  MTN604      0.0917
      7  S1        31.1980   -2.2890  -22.9040 S.3   604  MTN604     -0.0773
      8  C5        33.5530   -0.0850  -20.1940 C.3   604  MTN604      0.0886
      9  C6        34.5900   -0.9180  -19.4560 C.3   604  MTN604      0.0227
     10  C7        32.3460    0.3140  -19.3230 C.3   604  MTN604      0.0227
     11  C8        33.1060    2.4500  -22.3380 C.3   604  MTN604      0.0230
     12  C9        35.4500    1.5340  -22.6300 C.3   604  MTN604      0.0230
@<TRIPOS>BOND
     1     7     6    1
     2    12     3    1
     3     4     3    1
     4     4     5    2
     5    11     3    1
     6     3     2    1
     7     6     5    1
     8     5     8    1
     9     2     8    1
    10     2     1    1
    11     8     9    1
    12     8    10    1
