@<TRIPOS>MOLECULE
3rgm_C8E_A_1.pdb
 21 20 0 0 0
SMALL
GASTEIGER

@<TRIPOS>ATOM
      1  C1        44.3320  -39.5780  -35.3870 C.3   800  C8E800      0.0000
      2  C2        43.3330  -39.9680  -34.2740 C.3   800  C8E800      0.0000
      3  C3        42.8310  -41.3890  -34.3800 C.3   800  C8E800      0.0000
      4  C4        41.9970  -41.8160  -33.1830 C.3   800  C8E800      0.0000
      5  C5        41.2890  -43.0860  -33.5940 C.3   800  C8E800      0.0001
      6  C6        40.7670  -43.9520  -32.4810 C.3   800  C8E800      0.0026
      7  C7        39.4860  -44.6070  -32.9120 C.3   800  C8E800      0.0321
      8  C8        38.7760  -45.1060  -31.7020 C.3   800  C8E800      0.1423
      9  O9        38.6530  -46.4560  -31.8790 O.3   800  C8E800     -0.3511
     10  C10       37.5820  -46.8030  -32.6830 C.3   800  C8E800      0.1741
     11  C11       36.6740  -47.4240  -31.6870 C.3   800  C8E800      0.1742
     12  O12       37.4830  -48.2180  -30.8670 O.3   800  C8E800     -0.3484
     13  C13       37.4770  -49.5600  -31.3550 C.3   800  C8E800      0.1742
     14  C14       38.7580  -50.3000  -30.9660 C.3   800  C8E800      0.1742
     15  O15       38.9620  -50.3390  -29.5570 O.3   800  C8E800     -0.3484
     16  C16       39.8600  -51.3120  -29.1280 C.3   800  C8E800      0.1742
     17  C17       41.2470  -50.7470  -29.0190 C.3   800  C8E800      0.1742
     18  O18       42.1380  -51.6980  -29.6280 O.3   800  C8E800     -0.3483
     19  C19       43.4600  -51.4290  -29.2240 C.3   800  C8E800      0.1777
     20  C20       44.4730  -52.2460  -30.0090 C.3   800  C8E800      0.2140
     21  O21       44.3980  -53.6090  -29.6290 O.3   800  C8E800     -0.2176
@<TRIPOS>BOND
     1     1     2    1
     2     3     2    1
     3     3     4    1
     4     5     4    1
     5     5     6    1
     6     7     6    1
     7     7     8    1
     8    10     9    1
     9    10    11    1
    10     9     8    1
    11    11    12    1
    12    13    14    1
    13    13    12    1
    14    14    15    1
    15    20    21    1
    16    20    19    1
    17    18    19    1
    18    18    17    1
    19    15    16    1
    20    16    17    1
