@<TRIPOS>MOLECULE
3rgn_MTN_A_1.pdb
 12 12 0 0 0
SMALL
GASTEIGER

@<TRIPOS>ATOM
      1  O1       -31.6700   51.2020  -38.4450 O.3   598  MTN598     -0.1175
      2  N1       -31.4780   49.8500  -38.2570 N.4   598  MTN598     -0.1311
      3  C1       -30.6690   49.0390  -39.1400 C.3   598  MTN598      0.0909
      4  C2       -30.7930   47.6420  -38.4950 C.2   598  MTN598     -0.0160
      5  C3       -31.5580   47.6550  -37.3870 C.2   598  MTN598     -0.0205
      6  C4       -31.9760   46.4300  -36.5420 C.3   598  MTN598      0.0917
      7  S1       -31.7240   46.5200  -34.7060 S.3   598  MTN598     -0.0773
      8  C5       -32.0950   49.0570  -37.1980 C.3   598  MTN598      0.0886
      9  C6       -31.7180   49.6730  -35.8610 C.3   598  MTN598      0.0227
     10  C7       -33.6070   48.9970  -37.4600 C.3   598  MTN598      0.0227
     11  C8       -31.2930   49.0470  -40.5530 C.3   598  MTN598      0.0230
     12  C9       -29.2150   49.5630  -39.1960 C.3   598  MTN598      0.0230
@<TRIPOS>BOND
     1    11     3    1
     2    12     3    1
     3     3     4    1
     4     3     2    1
     5     4     5    2
     6     1     2    1
     7     2     8    1
     8    10     8    1
     9     5     8    1
    10     5     6    1
    11     8     9    1
    12     6     7    1
