@<TRIPOS>MOLECULE
3rgn_C8E_A_1.pdb
 21 20 0 0 0
SMALL
GASTEIGER

@<TRIPOS>ATOM
      1  C1       -44.1490   39.3250  -34.9990 C.3   800  C8E800      0.0000
      2  C2       -43.8370   40.7450  -34.5470 C.3   800  C8E800      0.0000
      3  C3       -42.4850   40.9450  -33.9380 C.3   800  C8E800      0.0000
      4  C4       -42.2410   42.4570  -33.8540 C.3   800  C8E800      0.0000
      5  C5       -41.2600   42.8270  -32.7740 C.3   800  C8E800      0.0001
      6  C6       -40.7830   44.2210  -33.0890 C.3   800  C8E800      0.0026
      7  C7       -39.7500   44.6520  -32.0910 C.3   800  C8E800      0.0321
      8  C8       -39.1770   45.9790  -32.4440 C.3   800  C8E800      0.1423
      9  O9       -38.2850   46.3540  -31.4440 O.3   800  C8E800     -0.3511
     10  C10      -37.3540   47.3230  -31.8990 C.3   800  C8E800      0.1741
     11  C11      -37.2580   48.4230  -30.8820 C.3   800  C8E800      0.1742
     12  O12      -37.8830   49.5170  -31.5120 O.3   800  C8E800     -0.3484
     13  C13      -37.8280   50.7280  -30.7780 C.3   800  C8E800      0.1742
     14  C14      -39.2090   51.2830  -30.4670 C.3   800  C8E800      0.1742
     15  O15      -39.9880   50.3480  -29.7370 O.3   800  C8E800     -0.3484
     16  C16      -40.6700   50.8880  -28.6140 C.3   800  C8E800      0.1742
     17  C17      -42.1630   50.7570  -28.8110 C.3   800  C8E800      0.1742
     18  O18      -42.6200   51.9030  -29.4780 O.3   800  C8E800     -0.3483
     19  C19      -43.9840   51.7770  -29.8390 C.3   800  C8E800      0.1777
     20  C20      -44.8710   52.8330  -29.1940 C.3   800  C8E800      0.2140
     21  O21      -44.3060   54.1150  -29.3500 O.3   800  C8E800     -0.2176
@<TRIPOS>BOND
     1     1     2    1
     2     2     3    1
     3     3     4    1
     4     4     5    1
     5     6     5    1
     6     6     7    1
     7     8     7    1
     8     8     9    1
     9    10     9    1
    10    10    11    1
    11    12    11    1
    12    12    13    1
    13    13    14    1
    14    14    15    1
    15    19    18    1
    16    19    20    1
    17    15    16    1
    18    18    17    1
    19    21    20    1
    20    17    16    1
