@<TRIPOS>MOLECULE
3rgp_HEM_A_1.pdb
 43 50 0 0 0
SMALL
GASTEIGER

@<TRIPOS>ATOM
      1  CHA        9.8780   39.3310   84.7690 C.2     1  HEM1        0.0000
      2  CHB       11.0270   43.0190   81.8860 C.2     1  HEM1        0.0000
      3  CHC        8.3900   45.9640   84.6580 C.2     1  HEM1        0.0000
      4  CHD        6.5420   42.1120   86.7990 C.2     1  HEM1        0.0000
      5  C1A       10.5010   40.0940   83.8020 C.ar    1  HEM1        0.0000
      6  C2A       11.4330   39.5510   82.7890 C.ar    1  HEM1        0.0000
      7  C3A       11.7590   40.6110   81.9830 C.ar    1  HEM1        0.0000
      8  C4A       11.0250   41.7700   82.4850 C.ar    1  HEM1        0.0000
      9  CMA       12.6580   40.6160   80.7450 C.3     1  HEM1        0.0000
     10  CAA       11.8570   38.0850   82.6930 C.3     1  HEM1        0.0000
     11  CBA       10.7720   37.2590   81.9990 C.3     1  HEM1        0.0000
     12  CGA       11.0620   35.7710   82.0030 C.2     1  HEM1        0.0000
     13  O1A       12.2220   35.3870   81.7560 O.co2   1  HEM1        0.0000
     14  O2A       10.1230   34.9830   82.2300 O.co2   1  HEM1        0.0000
     15  C1B       10.3200   44.1350   82.3190 C.2     1  HEM1        0.0000
     16  C2B       10.3610   45.4430   81.7030 C.2     1  HEM1        0.0000
     17  C3B        9.6970   46.2930   82.5330 C.2     1  HEM1        0.0000
     18  C4B        9.1920   45.4860   83.6240 C.2     1  HEM1        0.0000
     19  CMB       11.0460   45.7900   80.3840 C.3     1  HEM1        0.0000
     20  CAB        9.5530   47.6770   82.4530 C.3     1  HEM1        0.0000
     21  CBB        9.4370   48.4750   81.2600 C.3     1  HEM1        0.0000
     22  C1C        7.7370   45.1780   85.5860 C.ar    1  HEM1        0.0000
     23  C2C        6.6040   45.6480   86.3600 C.ar    1  HEM1        0.0000
     24  C3C        5.9460   44.5390   86.8020 C.ar    1  HEM1        0.0000
     25  C4C        6.7620   43.4000   86.3960 C.ar    1  HEM1        0.0000
     26  CMC        6.3050   47.1090   86.7080 C.3     1  HEM1        0.0000
     27  CAC        4.7410   44.4550   87.5200 C.3     1  HEM1        0.0000
     28  CBC        3.5560   45.2640   87.3600 C.3     1  HEM1        0.0000
     29  C1D        7.3270   41.0370   86.4970 C.2     1  HEM1        0.0000
     30  C2D        7.0790   39.7140   87.0030 C.2     1  HEM1        0.0000
     31  C3D        8.0510   38.9480   86.4500 C.2     1  HEM1        0.0000
     32  C4D        8.8580   39.7810   85.5930 C.2     1  HEM1        0.0000
     33  CMD        5.8850   39.2470   87.8400 C.3     1  HEM1        0.0000
     34  CAD        8.2520   37.4870   86.7060 C.3     1  HEM1        0.0000
     35  CBD        7.2690   36.6210   85.9460 C.3     1  HEM1        0.0000
     36  CGD        7.4320   35.1600   86.2910 C.2     1  HEM1        0.0000
     37  O1D        7.1650   34.8010   87.4570 O.co2   1  HEM1        0.0000
     38  O2D        7.8330   34.3760   85.4030 O.co2   1  HEM1        0.0000
     39  NA        10.2570   41.4460   83.5910 N.ar    1  HEM1        0.0000
     40  NB         9.5510   44.1560   83.4710 N.2     1  HEM1        0.0000
     41  NC         7.8220   43.7880   85.6090 N.ar    1  HEM1        0.0000
     42  ND         8.3980   41.0840   85.6160 N.2     1  HEM1        0.0000
     43 FE          9.0230   42.6360   84.5550 Fe      1  HEM1        0.0000
@<TRIPOS>BOND
     1    19    16    1
     2     9     7    1
     3    21    20    1
     4    16    15    1
     5    16    17    2
     6    13    12   ar
     7     2    15    1
     8     2     8    2
     9     7     8   ar
    10     7     6   ar
    11    11    12    1
    12    11    10    1
    13    12    14   ar
    14    15    40    2
    15    20    17    1
    16     8    39   ar
    17    17    18    1
    18    10     6    1
    19     6     5   ar
    20    40    18    1
    21    40    43    1
    22    39     5   ar
    23    39    43    1
    24    18     3    2
    25     5     1    2
    26    43    41    1
    27    43    42    1
    28     3    22    1
    29     1    32    1
    30    38    36   ar
    31    22    41   ar
    32    22    23   ar
    33    32    42    2
    34    32    31    1
    35    41    25   ar
    36    42    29    1
    37    35    36    1
    38    35    34    1
    39    36    37   ar
    40    23    26    1
    41    23    24   ar
    42    25     4    1
    43    25    24   ar
    44    31    34    1
    45    31    30    2
    46    29     4    2
    47    29    30    1
    48    24    27    1
    49    30    33    1
    50    28    27    1
