@<TRIPOS>MOLECULE
3rgq_5P5_A_1.pdb
 31 31 0 0 0
SMALL
GASTEIGER

@<TRIPOS>ATOM
      1  C1        35.5370  -11.7990   19.3790 C.3   300  5P5300      0.1873
      2  O1        36.8740  -12.1350   19.6430 O.3   300  5P5300     -0.3111
      3  P1        37.6030  -11.3990   20.8490 P.3   300  5P5300      0.2141
      4  C2        34.6440  -12.8570   19.9930 C.3   300  5P5300      0.2147
      5  O2        35.1820  -14.1100   19.7290 O.3   300  5P5300     -0.2176
      6  C3        33.2040  -12.8210   19.5450 C.3   300  5P5300      0.2173
      7  O3        32.5290  -13.9330   20.0180 O.3   300  5P5300     -0.2175
      8  C4        33.0170  -12.7020   18.0470 C.3   300  5P5300      0.2148
      9  O4        31.6980  -12.3510   17.8080 O.3   300  5P5300     -0.2176
     10  C5        33.9030  -11.6800   17.4040 C.3   300  5P5300      0.1918
     11  O5        33.8370  -11.7950   16.0240 O.3   300  5P5300     -0.2673
     12  P5        32.9370  -10.7370   15.2730 P.3   300  5P5300      0.5327
     13  C6        35.3370  -11.5700   17.9040 C.3   300  5P5300      0.2120
     14  O6        35.8030  -10.2850   17.6000 O.3   300  5P5300     -0.2177
     15  C7        39.0240  -10.4450   18.8640 C.3   300  5P5300      0.1823
     16  C8        40.4560  -10.5020   18.3930 C.3   300  5P5300      0.1887
     17  C9        40.7440   -9.4660   17.3170 C.3   300  5P5300      0.2406
     18  C10       40.8010   -7.7670   15.6460 C.2   300  5P5300      0.3412
     19  C11       40.2450   -6.4810   16.2020 C.2   300  5P5300      0.0773
     20  O11       38.2230  -12.4730   21.7200 O.3   300  5P5300     -0.4373
     21  C12       40.6360   -5.1980   15.5200 C.2   300  5P5300     -0.0191
     22  O12       36.6180  -10.5560   21.6540 O.2   300  5P5300     -0.5172
     23  C13       40.4820   -3.9230   16.2920 C.3   300  5P5300      0.0309
     24  O13       38.7820  -10.5030   20.2720 O.3   300  5P5300     -0.3113
     25  C14       41.6020   -9.0070   19.9220 C.3   300  5P5300      0.1743
     26  O14       41.2980  -10.3230   19.4830 O.3   300  5P5300     -0.3472
     27  O15       40.4030   -8.1800   16.8620 O.3   300  5P5300     -0.4427
     28  O16       41.2910   -8.2110   14.6130 O.2   300  5P5300     -0.2449
     29  O51       33.2100  -10.8380   13.7850 O.2   300  5P5300     -0.2224
     30  O52       33.3640   -9.3740   15.7400 O.3   300  5P5300     -0.1145
     31  O53       31.4810  -10.9720   15.5760 O.3   300  5P5300     -0.1145
@<TRIPOS>BOND
     1    29    12    2
     2    28    18    2
     3    12    31    1
     4    12    30    1
     5    12    11    1
     6    21    19    2
     7    21    23    1
     8    18    19    1
     9    18    27    1
    10    11    10    1
    11    27    17    1
    12    17    16    1
    13    10    13    1
    14    10     8    1
    15    14    13    1
    16     9     8    1
    17    13     1    1
    18     8     6    1
    19    16    15    1
    20    16    26    1
    21    15    24    1
    22     1     2    1
    23     1     4    1
    24    26    25    1
    25     6     4    1
    26     6     7    1
    27     2     3    1
    28     5     4    1
    29    24     3    1
    30     3    22    2
    31     3    20    1
