@<TRIPOS>MOLECULE
3rgs_HEM_A_1.pdb
 43 50 0 0 0
SMALL
GASTEIGER

@<TRIPOS>ATOM
      1  CHA        8.8560   38.9120   85.2710 C.2     1  HEM1        0.0000
      2  CHB       10.3340   42.4650   82.2850 C.2     1  HEM1        0.0000
      3  CHC        7.6330   45.6180   84.8040 C.2     1  HEM1        0.0000
      4  CHD        5.5100   41.9130   87.0660 C.2     1  HEM1        0.0000
      5  C1A        9.5410   39.6180   84.2820 C.ar    1  HEM1        0.0000
      6  C2A       10.4670   39.0110   83.3470 C.ar    1  HEM1        0.0000
      7  C3A       10.8890   40.0150   82.5140 C.ar    1  HEM1        0.0000
      8  C4A       10.2160   41.2280   82.9360 C.ar    1  HEM1        0.0000
      9  CMA       11.8900   39.8840   81.3660 C.3     1  HEM1        0.0000
     10  CAA       10.8410   37.5360   83.3210 C.3     1  HEM1        0.0000
     11  CBA        9.7690   36.7390   82.5900 C.3     1  HEM1        0.0000
     12  CGA       10.0300   35.2460   82.6170 C.2     1  HEM1        0.0000
     13  O1A       11.1900   34.8380   82.3940 O.co2   1  HEM1        0.0000
     14  O2A        9.0710   34.4790   82.8470 O.co2   1  HEM1        0.0000
     15  C1B        9.6450   43.6150   82.6640 C.2     1  HEM1        0.0000
     16  C2B        9.7790   44.9040   82.0090 C.2     1  HEM1        0.0000
     17  C3B        9.1070   45.8140   82.7770 C.2     1  HEM1        0.0000
     18  C4B        8.4970   45.0550   83.8580 C.2     1  HEM1        0.0000
     19  CMB       10.5270   45.1740   80.7090 C.3     1  HEM1        0.0000
     20  CAB        9.0700   47.2120   82.6670 C.3     1  HEM1        0.0000
     21  CBB        8.9490   47.9920   81.4590 C.3     1  HEM1        0.0000
     22  C1C        6.8530   44.8750   85.6840 C.ar    1  HEM1        0.0000
     23  C2C        5.6800   45.4270   86.3690 C.ar    1  HEM1        0.0000
     24  C3C        4.9740   44.3590   86.8780 C.ar    1  HEM1        0.0000
     25  C4C        5.7860   43.1810   86.5790 C.ar    1  HEM1        0.0000
     26  CMC        5.3240   46.9130   86.4210 C.3     1  HEM1        0.0000
     27  CAC        3.7150   44.3180   87.4890 C.3     1  HEM1        0.0000
     28  CBC        2.5680   45.1540   87.1770 C.3     1  HEM1        0.0000
     29  C1D        6.2470   40.7870   86.7750 C.2     1  HEM1        0.0000
     30  C2D        5.9380   39.4880   87.2990 C.2     1  HEM1        0.0000
     31  C3D        6.8850   38.6580   86.8130 C.2     1  HEM1        0.0000
     32  C4D        7.7900   39.4410   86.0030 C.2     1  HEM1        0.0000
     33  CMD        4.7630   39.1140   88.1920 C.3     1  HEM1        0.0000
     34  CAD        6.9810   37.1730   87.1120 C.3     1  HEM1        0.0000
     35  CBD        6.0300   36.3180   86.2840 C.3     1  HEM1        0.0000
     36  CGD        6.0410   34.8690   86.7160 C.2     1  HEM1        0.0000
     37  O1D        5.5980   34.5920   87.8450 O.co2   1  HEM1        0.0000
     38  O2D        6.4970   34.0070   85.9350 O.co2   1  HEM1        0.0000
     39  NA         9.3800   40.9770   84.0060 N.ar    1  HEM1        0.0000
     40  NB         8.8130   43.7060   83.7730 N.2     1  HEM1        0.0000
     41  NC         6.8920   43.4970   85.7880 N.ar    1  HEM1        0.0000
     42  ND         7.3710   40.7510   85.9540 N.2     1  HEM1        0.0000
     43 FE          8.1620   42.2260   84.9230 Fe      1  HEM1        0.0000
@<TRIPOS>BOND
     1    19    16    1
     2     9     7    1
     3    21    20    1
     4    16    15    1
     5    16    17    2
     6     2    15    1
     7     2     8    2
     8    13    12   ar
     9     7     8   ar
    10     7     6   ar
    11    11    12    1
    12    11    10    1
    13    12    14   ar
    14    15    40    2
    15    20    17    1
    16    17    18    1
    17     8    39   ar
    18    10     6    1
    19     6     5   ar
    20    40    18    1
    21    40    43    1
    22    18     3    2
    23    39     5   ar
    24    39    43    1
    25     5     1    2
    26     3    22    1
    27    43    41    1
    28    43    42    1
    29     1    32    1
    30    22    41   ar
    31    22    23   ar
    32    41    25   ar
    33    38    36   ar
    34    42    32    2
    35    42    29    1
    36    32    31    1
    37    35    36    1
    38    35    34    1
    39    23    26    1
    40    23    24   ar
    41    25    24   ar
    42    25     4    1
    43    36    37   ar
    44    29     4    2
    45    29    30    1
    46    31    34    1
    47    31    30    2
    48    24    27    1
    49    28    27    1
    50    30    33    1
