@<TRIPOS>MOLECULE
3rgt_EZ4_A_1.pdb
 12 11 0 0 0
SMALL
GASTEIGER

@<TRIPOS>ATOM
      1  OAA       27.1920  -16.6950   -7.1300 O.3   407  EZ4407     -0.2171
      2  OAB       30.2740  -15.2030   -8.5020 O.3   407  EZ4407     -0.2175
      3  OAC       26.5910  -11.2880   -6.2950 O.3   407  EZ4407     -0.4026
      4  NAD       27.4830  -12.3090   -6.2590 N.am  407  EZ4407     -0.2003
      5  CAE       27.1040  -13.5710   -6.4780 C.2   407  EZ4407      0.1201
      6  CAF       28.2250  -14.6240   -6.4080 C.3   407  EZ4407      0.2292
      7  CAG       28.0490  -15.6340   -7.5680 C.3   407  EZ4407      0.2210
      8  CAH       29.3180  -16.2440   -8.2020 C.3   407  EZ4407      0.2178
      9  CAI       29.0880  -17.0760   -9.4700 C.3   407  EZ4407      0.2175
     10  OAJ       30.2800  -17.3300  -10.2170 O.3   407  EZ4407     -0.2175
     11  OAK       25.9360  -13.8900   -6.7300 O.2   407  EZ4407     -0.5373
     12  OAL       28.2240  -15.2650   -5.1220 O.3   407  EZ4407     -0.2134
@<TRIPOS>BOND
     1    10     9    1
     2     9     8    1
     3     2     8    1
     4     8     7    1
     5     7     1    1
     6     7     6    1
     7    11     5    2
     8     5     6    1
     9     5     4   am
    10     6    12    1
    11     3     4    1
