@<TRIPOS>MOLECULE
3rgu_GLC_C_1.pdb
 12 12 0 0 0
SMALL
GASTEIGER

@<TRIPOS>ATOM
      1  C1        29.5270   31.7640  -18.7640 C.3     1  GLC1        0.3024
      2  C2        30.8780   32.3130  -18.2740 C.3     1  GLC1        0.2434
      3  C3        31.5100   33.2950  -19.2290 C.3     1  GLC1        0.2199
      4  C4        31.4520   32.7290  -20.6560 C.3     1  GLC1        0.2144
      5  C5        29.9850   32.7240  -21.0940 C.3     1  GLC1        0.1836
      6  C6        29.7790   32.2230  -22.5420 C.3     1  GLC1        0.2142
      7  O1        28.4790   32.1720  -17.8630 O.3     1  GLC1       -0.1869
      8  O2        30.8150   32.8710  -16.9470 O.3     1  GLC1       -0.2148
      9  O3        32.8380   33.4650  -18.7310 O.3     1  GLC1       -0.2174
     10  O4        32.2690   33.4300  -21.6260 O.3     1  GLC1       -0.2176
     11  O5        29.1610   31.9750  -20.1630 O.3     1  GLC1       -0.3236
     12  O6        30.4470   33.0460  -23.5180 O.3     1  GLC1       -0.2176
@<TRIPOS>BOND
     1    12     6    1
     2     6     5    1
     3    10     4    1
     4     5     4    1
     5     5    11    1
     6     4     3    1
     7    11     1    1
     8     3     9    1
     9     3     2    1
    10     1     2    1
    11     1     7    1
    12     2     8    1
