@<TRIPOS>MOLECULE
3rgy_LP5_A_1.pdb
 48 48 0 0 0
SMALL
GASTEIGER

@<TRIPOS>ATOM
      1  O48        8.4880   17.7890   20.9180 O.3   688  LP5688     -0.1145
      2  P45        8.5830   18.6700   19.6870 P.3   688  LP5688      0.5345
      3  O46        8.1850   17.9640   18.4100 O.2   688  LP5688     -0.2223
      4  O47        7.9020   20.0200   19.8530 O.3   688  LP5688     -0.1145
      5  O1        10.1710   19.0390   19.5290 O.3   688  LP5688     -0.2424
      6  C1        10.6150   20.0600   18.5970 C.3   688  LP5688      0.2686
      7  C2        11.8030   19.5780   17.7030 C.3   688  LP5688      0.1942
      8  N2        11.2020   18.3590   17.0960 N.am  688  LP5688     -0.1981
      9  C7        11.7010   17.1680   16.7080 C.2   688  LP5688      0.2442
     10  C8        10.6620   16.2250   16.1150 C.3   688  LP5688      0.1196
     11  C16       11.2680   14.8830   15.6780 C.3   688  LP5688      0.1611
     12  O44       12.3560   15.1290   14.7500 O.3   688  LP5688     -0.2226
     13  C17       10.1760   14.0400   15.0200 C.3   688  LP5688      0.0334
     14  C18       10.6780   13.1720   13.8550 C.3   688  LP5688      0.0026
     15  C19       10.2100   13.7420   12.5160 C.3   688  LP5688      0.0001
     16  C20        8.7570   13.3400   12.2590 C.3   688  LP5688      0.0000
     17  C21        7.8990   14.5500   11.9250 C.3   688  LP5688      0.0000
     18  C22        6.8070   14.1850   10.9190 C.3   688  LP5688      0.0000
     19  C23        5.5150   13.6010   11.5130 C.3   688  LP5688      0.0000
     20  C24        4.8040   12.5440   10.6590 C.3   688  LP5688      0.0000
     21  C25        3.6630   11.8550   11.4180 C.3   688  LP5688      0.0000
     22  C26        4.0910   10.4970   11.9780 C.3   688  LP5688      0.0000
     23  C27        2.9390    9.8350   12.7020 C.3   688  LP5688      0.0000
     24  O7        12.8750   16.8190   16.7930 O.2   688  LP5688     -0.2733
     25  C3        13.0270   19.4570   18.6970 C.3   688  LP5688      0.2262
     26  C4        13.3860   20.9090   19.0810 C.3   688  LP5688      0.2231
     27  C5        12.2540   21.3930   20.0020 C.3   688  LP5688      0.1845
     28  O5        10.9500   21.2780   19.3550 O.3   688  LP5688     -0.3258
     29  C6        12.4880   22.8480   20.4430 C.3   688  LP5688      0.2142
     30  O6        11.2350   23.5370   20.5960 O.3   688  LP5688     -0.2176
     31  O4        14.6610   21.0060   19.7560 O.3   688  LP5688     -0.2165
     32  O3        14.2050   18.7160   18.2260 O.3   688  LP5688     -0.4475
     33  C28       15.0040   19.0300   17.0330 C.2   688  LP5688      0.3196
     34  O42       14.5940   19.7970   16.1580 O.2   688  LP5688     -0.2500
     35  C29       16.3600   18.3300   16.9610 C.3   688  LP5688      0.1423
     36  C30       17.2120   18.6340   15.7220 C.3   688  LP5688      0.1631
     37  O43       16.3950   18.8210   14.5440 O.3   688  LP5688     -0.2225
     38  C31       18.2150   17.4890   15.4890 C.3   688  LP5688      0.0335
     39  C32       18.6540   17.3280   14.0210 C.3   688  LP5688      0.0026
     40  C33       19.7690   18.2880   13.5860 C.3   688  LP5688      0.0001
     41  C34       19.2420   19.6000   12.9690 C.3   688  LP5688      0.0000
     42  C35       20.1340   20.8370   13.0780 C.3   688  LP5688      0.0000
     43  C36       21.3980   20.8170   12.2200 C.3   688  LP5688      0.0000
     44  C37       22.6910   20.7500   13.0260 C.3   688  LP5688      0.0000
     45  C38       23.3490   22.1110   13.1870 C.3   688  LP5688      0.0000
     46  C39       23.5860   22.3960   14.6620 C.3   688  LP5688      0.0000
     47  C40       24.9150   23.1050   14.8840 C.3   688  LP5688      0.0000
     48  C41       25.2800   23.1150   16.3530 C.3   688  LP5688      0.0000
@<TRIPOS>BOND
     1    20    21    1
     2    20    19    1
     3    18    19    1
     4    18    17    1
     5    21    22    1
     6    17    16    1
     7    22    23    1
     8    43    44    1
     9    43    42    1
    10    16    15    1
    11    15    14    1
    12    41    42    1
    13    41    40    1
    14    44    45    1
    15    45    46    1
    16    40    39    1
    17    14    13    1
    18    39    38    1
    19    37    36    1
    20    46    47    1
    21    12    11    1
    22    47    48    1
    23    13    11    1
    24    38    36    1
    25    11    10    1
    26    36    35    1
    27    10     9    1
    28    34    33    2
    29     9    24    2
    30     9     8   am
    31    35    33    1
    32    33    32    1
    33     8     7    1
    34     7     6    1
    35     7    25    1
    36    32    25    1
    37     3     2    2
    38     6    28    1
    39     6     5    1
    40    25    26    1
    41    26    31    1
    42    26    27    1
    43    28    27    1
    44     5     2    1
    45     2     4    1
    46     2     1    1
    47    27    29    1
    48    29    30    1
