@<TRIPOS>MOLECULE
3rgz_BLD_A_1.pdb
 34 37 0 0 0
SMALL
GASTEIGER

@<TRIPOS>ATOM
      1  C01       21.6440   -9.0840   32.7630 C.3   800  BLD800      0.0361
      2  C02       23.0200   -9.4440   33.3260 C.3   800  BLD800      0.1821
      3  O02       23.0360   -8.9980   34.6930 O.3   800  BLD800     -0.2204
      4  C03       23.3430  -10.9350   33.2700 C.3   800  BLD800      0.1827
      5  O03       22.5170  -11.6570   34.1920 O.3   800  BLD800     -0.2204
      6  C04       23.0840  -11.4760   31.8770 C.3   800  BLD800      0.0466
      7  C05       21.6370  -11.2360   31.4280 C.3   800  BLD800      0.1017
      8  C06       21.5630  -11.7790   30.0380 C.2   800  BLD800      0.3165
      9  O06       22.5260  -11.6450   29.3040 O.2   800  BLD800     -0.2501
     10  C07       19.1070  -11.6940   30.2240 C.3   800  BLD800      0.2083
     11  O07       20.2600  -11.8620   29.4180 O.3   800  BLD800     -0.4485
     12  C08       18.8600  -10.2040   30.3020 C.3   800  BLD800      0.0439
     13  C09       19.6530   -9.5560   31.4320 C.3   800  BLD800      0.0042
     14  C10       21.1880   -9.7640   31.4720 C.3   800  BLD800      0.0128
     15  C11       19.3190   -8.0630   31.4150 C.3   800  BLD800      0.0001
     16  C12       17.8360   -7.7450   31.6290 C.3   800  BLD800      0.0000
     17  C13       16.9740   -8.4730   30.6020 C.3   800  BLD800      0.0002
     18  C14       17.3920   -9.9400   30.5990 C.3   800  BLD800      0.0036
     19  C15       16.3570  -10.6600   29.7440 C.3   800  BLD800      0.0001
     20  C16       15.0810   -9.8810   30.0680 C.3   800  BLD800      0.0001
     21  C17       15.4960   -8.6800   30.9300 C.3   800  BLD800      0.0025
     22  C18       17.1440   -7.8520   29.2170 C.3   800  BLD800      0.0000
     23  C19       21.8250   -9.0020   30.3140 C.3   800  BLD800      0.0006
     24  C20       14.4870   -7.5380   30.7800 C.3   800  BLD800      0.0330
     25  C21       14.8020   -6.2770   31.5760 C.3   800  BLD800      0.0027
     26  C22       13.1450   -8.0750   31.2640 C.3   800  BLD800      0.1820
     27  O22       13.1820   -8.3620   32.6690 O.3   800  BLD800     -0.2204
     28  C23       12.0000   -7.1260   30.9660 C.3   800  BLD800      0.1820
     29  O23       10.8250   -7.7500   31.4920 O.3   800  BLD800     -0.2204
     30  C24       11.8980   -6.9370   29.4540 C.3   800  BLD800      0.0330
     31  C25       10.9470   -5.8160   29.0810 C.3   800  BLD800      0.0025
     32  C26       10.9050   -5.6500   27.5590 C.3   800  BLD800      0.0001
     33  C27       11.3510   -4.5350   29.8060 C.3   800  BLD800      0.0001
     34  C28       11.5130   -8.2270   28.7340 C.3   800  BLD800      0.0027
@<TRIPOS>BOND
     1    32    31    1
     2    34    30    1
     3    31    30    1
     4    31    33    1
     5    22    17    1
     6     9     8    2
     7    11     8    1
     8    11    10    1
     9    30    28    1
    10    19    20    1
    11    19    18    1
    12     8     7    1
    13    20    21    1
    14    10    12    1
    15    12    18    1
    16    12    13    1
    17    23    14    1
    18    18    17    1
    19    17    21    1
    20    17    16    1
    21    24    21    1
    22    24    26    1
    23    24    25    1
    24    28    26    1
    25    28    29    1
    26    26    27    1
    27    15    13    1
    28    15    16    1
    29     7    14    1
    30     7     6    1
    31    13    14    1
    32    14     1    1
    33     6     4    1
    34     1     2    1
    35     4     2    1
    36     4     5    1
    37     2     3    1
