@<TRIPOS>MOLECULE
3rh4_CTP_A_1.pdb
 29 30 0 0 0
SMALL
GASTEIGER

@<TRIPOS>ATOM
      1  N1         6.7060    7.8380   10.5290 N.am  338  CTP338     -0.1778
      2  C2         7.5130    8.2430    9.4850 C.1   338  CTP338      0.2756
      3  N3         8.8800    8.2460    9.5970 N.2   338  CTP338     -0.3024
      4  C4         9.4470    7.9470   10.8110 C.2   338  CTP338      0.2346
      5  C5         8.6410    7.6030   11.8910 C.2   338  CTP338      0.0687
      6  C6         7.2560    7.5640   11.7490 C.2   338  CTP338      0.0836
      7  O2         7.0040    8.5860    8.4290 O.2   338  CTP338     -0.1925
      8  N4        10.7720    7.9730   10.9440 N.pl3 338  CTP338     -0.0921
      9  C1'        5.2420    7.8070   10.3270 C.3   338  CTP338      0.2400
     10  C2'        4.8530    6.4250    9.8130 C.3   338  CTP338      0.2319
     11  O2'        3.6450    6.5070    9.0800 O.3   338  CTP338     -0.2157
     12  C3'        4.5560    5.6750   11.0890 C.3   338  CTP338      0.2158
     13  C4'        3.8430    6.7670   11.8500 C.3   338  CTP338      0.1799
     14  O4'        4.5960    7.9310   11.5610 O.3   338  CTP338     -0.3320
     15  O3'        3.7590    4.5430   10.8600 O.3   338  CTP338     -0.2175
     16  C5'        3.7370    6.5370   13.3600 C.3   338  CTP338      0.1813
     17  O5'        5.0180    6.3760   13.9390 O.3   338  CTP338     -0.3112
     18  PA         5.2600    5.1480   14.9450 P.3   338  CTP338      0.2189
     19  O1A        4.2010    5.2680   15.9980 O.3   338  CTP338     -0.4371
     20  O2A        6.6480    5.2510   15.4990 O.2   338  CTP338     -0.5170
     21  O3A        5.1230    3.8500   13.9960 O.3   338  CTP338     -0.2700
     22  PB         4.0730    2.6220   13.9920 P.3   338  CTP338      0.2277
     23  O1B        4.1350    2.1000   12.5770 O.2   338  CTP338     -0.5168
     24  O2B        2.6580    3.0150   14.3960 O.3   338  CTP338     -0.4368
     25  O3B        4.7210    1.5170   14.9620 O.3   338  CTP338     -0.2258
     26  PG         4.2260    1.1580   16.4560 P.3   338  CTP338      0.5373
     27  O1G        3.5440    2.3410   17.0850 O.3   338  CTP338     -0.1143
     28  O2G        5.4800    0.8940   17.2380 O.3   338  CTP338     -0.1143
     29  O3G        3.3390   -0.0530   16.4350 O.2   338  CTP338     -0.2221
@<TRIPOS>BOND
     1     7     2    2
     2    11    10    1
     3     2     3    2
     4     2     1   am
     5     3     4    2
     6    10     9    1
     7    10    12    1
     8     9     1    1
     9     9    14    1
    10     1     6    1
    11     4     8    1
    12     4     5    1
    13    15    12    1
    14    12    13    1
    15    14    13    1
    16     6     5    2
    17    13    16    1
    18    23    22    2
    19    16    17    1
    20    17    18    1
    21    22    21    1
    22    22    24    1
    23    22    25    1
    24    21    18    1
    25    18    20    2
    26    18    19    1
    27    25    26    1
    28    29    26    2
    29    26    27    1
    30    26    28    1
