@<TRIPOS>MOLECULE
3rh5_DCP_A_1.pdb
 28 29 0 0 0
SMALL
GASTEIGER

@<TRIPOS>ATOM
      1  N1         7.0310    7.5720   10.4650 N.am  338  DCP338     -0.1802
      2  C2         7.7350    8.0290    9.4110 C.1   338  DCP338      0.2756
      3  N3         9.1000    8.0370    9.4530 N.2   338  DCP338     -0.3024
      4  C4         9.7500    7.5770   10.5580 C.2   338  DCP338      0.2346
      5  C5         9.0370    7.1010   11.6380 C.2   338  DCP338      0.0687
      6  C6         7.6890    7.0970   11.6000 C.2   338  DCP338      0.0835
      7  O2         7.1600    8.4780    8.4370 O.2   338  DCP338     -0.1925
      8  N4        11.1760    7.5380   10.5790 N.pl3 338  DCP338     -0.0921
      9  C1'        5.6090    7.4750   10.3760 C.3   338  DCP338      0.2090
     10  C2'        4.9370    6.2960    9.6840 C.3   338  DCP338      0.0874
     11  C3'        4.3820    5.5700   10.8360 C.3   338  DCP338      0.1857
     12  C4'        3.8720    6.6550   11.7290 C.3   338  DCP338      0.1773
     13  O4'        4.5730    7.8840   11.3460 O.3   338  DCP338     -0.3339
     14  O3'        3.6260    4.4190   10.6660 O.3   338  DCP338     -0.2203
     15  C5'        3.8740    6.3530   13.1820 C.3   338  DCP338      0.1812
     16  O5'        5.1330    6.2190   13.7410 O.3   338  DCP338     -0.3112
     17  PA         5.3170    5.0350   14.7200 P.3   338  DCP338      0.2189
     18  O1A        4.1590    5.0970   15.7250 O.3   338  DCP338     -0.4371
     19  O2A        6.6680    5.0700   15.3720 O.2   338  DCP338     -0.5170
     20  O3A        5.2430    3.7170   13.8800 O.3   338  DCP338     -0.2700
     21  PB         4.0830    2.6590   13.8110 P.3   338  DCP338      0.2277
     22  O1B        4.0890    2.1810   12.3070 O.2   338  DCP338     -0.5168
     23  O2B        2.7020    3.1650   14.1550 O.3   338  DCP338     -0.4368
     24  O3B        4.5070    1.4020   14.6460 O.3   338  DCP338     -0.2258
     25  PG         4.1660    1.1210   16.1490 P.3   338  DCP338      0.5373
     26  O1G        3.5380    2.3900   16.7730 O.3   338  DCP338     -0.1143
     27  O2G        5.4470    0.7410   16.9600 O.3   338  DCP338     -0.1143
     28  O3G        3.2480   -0.0720   16.1670 O.2   338  DCP338     -0.2221
@<TRIPOS>BOND
     1     7     2    2
     2     2     3    2
     3     2     1   am
     4     3     4    2
     5    10     9    1
     6    10    11    1
     7     9     1    1
     8     9    13    1
     9     1     6    1
    10     4     8    1
    11     4     5    1
    12    14    11    1
    13    11    12    1
    14    13    12    1
    15     6     5    2
    16    12    15    1
    17    22    21    2
    18    15    16    1
    19    16    17    1
    20    21    20    1
    21    21    23    1
    22    21    24    1
    23    20    17    1
    24    24    25    1
    25    17    19    2
    26    17    18    1
    27    25    28    2
    28    25    26    1
    29    25    27    1
