@<TRIPOS>MOLECULE
3rh6_CTP_A_1.pdb
 29 30 0 0 0
SMALL
GASTEIGER

@<TRIPOS>ATOM
      1  N1         6.7910    7.5710   10.4830 N.am  338  CTP338     -0.1778
      2  C2         7.5790    8.0790    9.4690 C.1   338  CTP338      0.2756
      3  N3         8.9490    8.0240    9.5630 N.2   338  CTP338     -0.3024
      4  C4         9.5380    7.6380   10.7480 C.2   338  CTP338      0.2346
      5  C5         8.7440    7.2150   11.8090 C.2   338  CTP338      0.0687
      6  C6         7.3600    7.2630   11.6840 C.2   338  CTP338      0.0836
      7  O2         7.0470    8.5690    8.4760 O.2   338  CTP338     -0.1925
      8  N4        10.8610    7.6640   10.8620 N.pl3 338  CTP338     -0.0921
      9  C1'        5.3250    7.5440   10.3050 C.3   338  CTP338      0.2400
     10  C2'        4.9260    6.1900    9.7630 C.3   338  CTP338      0.2319
     11  O2'        3.7610    6.3960    9.0060 O.3   338  CTP338     -0.2157
     12  C3'        4.5180    5.4060   10.9930 C.3   338  CTP338      0.2158
     13  C4'        3.8730    6.5160   11.8020 C.3   338  CTP338      0.1799
     14  O4'        4.6840    7.6510   11.5640 O.3   338  CTP338     -0.3320
     15  O3'        3.6270    4.3570   10.6860 O.3   338  CTP338     -0.2175
     16  C5'        3.8300    6.1810   13.2910 C.3   338  CTP338      0.1813
     17  O5'        5.1480    6.0890   13.7770 O.3   338  CTP338     -0.3112
     18  PA         5.4650    4.8740   14.7860 P.3   338  CTP338      0.2189
     19  O1A        4.3370    4.9360   15.7650 O.3   338  CTP338     -0.4371
     20  O2A        6.8180    4.9700   15.4440 O.2   338  CTP338     -0.5170
     21  O3A        5.3770    3.5570   13.8680 O.3   338  CTP338     -0.2700
     22  PB         4.2370    2.4170   13.8960 P.3   338  CTP338      0.2277
     23  O1B        4.2920    1.7980   12.5020 O.2   338  CTP338     -0.5168
     24  O2B        2.8620    2.9270   14.2050 O.3   338  CTP338     -0.4368
     25  O3B        4.7700    1.2970   14.9200 O.3   338  CTP338     -0.2258
     26  PG         4.2030    0.8970   16.3780 P.3   338  CTP338      0.5373
     27  O1G        3.4750    2.0680   16.9870 O.3   338  CTP338     -0.1143
     28  O2G        5.4210    0.5840   17.2080 O.3   338  CTP338     -0.1143
     29  O3G        3.3750   -0.3560   16.3210 O.2   338  CTP338     -0.2221
@<TRIPOS>BOND
     1     7     2    2
     2    11    10    1
     3     2     3    2
     4     2     1   am
     5     3     4    2
     6    10     9    1
     7    10    12    1
     8     9     1    1
     9     9    14    1
    10     1     6    1
    11    15    12    1
    12     4     8    1
    13     4     5    1
    14    12    13    1
    15    14    13    1
    16     6     5    2
    17    13    16    1
    18    23    22    2
    19    16    17    1
    20    17    18    1
    21    21    22    1
    22    21    18    1
    23    22    24    1
    24    22    25    1
    25    18    20    2
    26    18    19    1
    27    25    26    1
    28    29    26    2
    29    26    27    1
    30    26    28    1
