@<TRIPOS>MOLECULE
3rh7_FMN_A_1.pdb
 31 33 0 0 0
SMALL
GASTEIGER

@<TRIPOS>ATOM
      1  N1        60.4170   10.8700  102.8280 N.2   321  FMN321     -0.2890
      2  C2        61.0420   10.2040  103.8710 C.1   321  FMN321      0.3669
      3  O2        60.6610    9.0640  104.1910 O.2   321  FMN321     -0.1744
      4  N3        62.1370   10.8030  104.4860 N.2   321  FMN321     -0.2300
      5  C4        62.6590   12.0810  104.2130 C.1   321  FMN321      0.2513
      6  O4        63.6390   12.5910  104.7650 O.2   321  FMN321     -0.2057
      7  C4A       61.9130   12.8340  103.1080 C.2   321  FMN321      0.2700
      8  N5        62.3210   14.0440  102.7620 N.2   321  FMN321     -0.3878
      9  C5A       61.6980   14.6900  101.6650 C.2   321  FMN321      0.1320
     10  C6        62.2100   15.9900  101.3260 C.2   321  FMN321      0.0250
     11  C7        61.7140   16.7260  100.2120 C.2   321  FMN321     -0.0238
     12  C7M       62.2860   18.0740   99.8820 C.3   321  FMN321      0.0308
     13  C8        60.6740   16.1460   99.4480 C.2   321  FMN321     -0.0280
     14  C8M       60.1300   16.8810   98.2900 C.3   321  FMN321      0.0304
     15  C9        60.1210   14.8520   99.7770 C.2   321  FMN321     -0.0041
     16  C9A       60.5950   14.0770  100.8970 C.3   321  FMN321      0.1497
     17  N10       60.1040   12.7530  101.2750 N.pl3 321  FMN321     -0.2691
     18  C10       60.7470   12.0940  102.3840 C.2   321  FMN321      0.2416
     19  C1'       58.9730   12.1010  100.5050 C.3   321  FMN321      0.1294
     20  C2'       59.4490   10.7850   99.7470 C.3   321  FMN321      0.2044
     21  O2'       60.4760   10.9460   98.7660 O.3   321  FMN321     -0.2185
     22  C3'       58.4300    9.8030   99.1060 C.3   321  FMN321      0.2164
     23  O3'       57.1320   10.3640   98.8410 O.3   321  FMN321     -0.2175
     24  C4'       58.4160    8.3660   99.7200 C.3   321  FMN321      0.2147
     25  O4'       58.7250    8.2430  101.1550 O.3   321  FMN321     -0.2176
     26  C5'       59.3100    7.4810   98.8820 C.3   321  FMN321      0.1892
     27  O5'       58.4030    6.8780   97.9760 O.3   321  FMN321     -0.2674
     28  P         57.9240    5.3370   98.2930 P.3   321  FMN321      0.5327
     29  O1P       59.3100    4.7750   98.8500 O.3   321  FMN321     -0.1145
     30  O2P       57.4430    4.6760   96.9480 O.2   321  FMN321     -0.2224
     31  O3P       56.6770    5.2900   99.2110 O.3   321  FMN321     -0.1145
@<TRIPOS>BOND
     1    30    28    2
     2    27    28    1
     3    27    26    1
     4    14    13    1
     5    28    29    1
     6    28    31    1
     7    21    20    1
     8    23    22    1
     9    26    24    1
    10    22    24    1
    11    22    20    1
    12    13    15    2
    13    13    11    1
    14    24    25    1
    15    20    19    1
    16    15    16    1
    17    12    11    1
    18    11    10    2
    19    19    17    1
    20    16    17    1
    21    16     9    1
    22    17    18    1
    23    10     9    1
    24     9     8    2
    25    18     1    2
    26    18     7    1
    27     8     7    2
    28     1     2    2
    29     7     5    1
    30     2     3    2
    31     2     4    2
    32     5     4    2
    33     5     6    2
