@<TRIPOS>MOLECULE
3rhb_GSH_A_1.pdb
 20 19 0 0 0
SMALL
GASTEIGER

@<TRIPOS>ATOM
      1  N1        21.2960   19.9620   11.7420 N.3   114  GSH114     -0.1208
      2  CA1       19.8510   20.0930   12.0850 C.3   114  GSH114      0.1948
      3  C1        19.0070   19.4730   11.0630 C.2   114  GSH114      0.3819
      4  O11       17.7800   19.2810   11.3130 O.co2 114  GSH114     -0.2441
      5  O12       19.5430   19.1700   10.0080 O.co2 114  GSH114     -0.2441
      6  CB1       19.5210   21.5200   12.3550 C.3   114  GSH114      0.0402
      7  CG1       18.1820   21.8680   12.8850 C.3   114  GSH114      0.0889
      8  CD1       18.0060   23.1790   13.5930 C.2   114  GSH114      0.2418
      9  OE1       19.0400   23.9110   13.8100 O.2   114  GSH114     -0.2733
     10  N2        16.8350   23.4940   14.0310 N.am  114  GSH114     -0.1968
     11  CA2       16.5530   24.6560   14.8240 C.3   114  GSH114      0.1843
     12  C2        16.3780   24.3220   16.2650 C.2   114  GSH114      0.2627
     13  O2        15.7320   23.2580   16.6010 O.2   114  GSH114     -0.2714
     14  CB2       15.3010   25.3580   14.2770 C.3   114  GSH114      0.0997
     15  SG2       15.2440   25.8780   12.5710 S.3   114  GSH114     -0.0797
     16  N3        16.8090   25.1620   17.1700 N.am  114  GSH114     -0.1917
     17  CA3       16.6210   24.9810   18.5770 C.3   114  GSH114      0.2285
     18  C3        17.8690   24.8710   19.3970 C.2   114  GSH114      0.3865
     19  O31       18.9700   25.0240   18.8050 O.co2 114  GSH114     -0.2437
     20  O32       17.7980   24.5780   20.5860 O.co2 114  GSH114     -0.2437
@<TRIPOS>BOND
     1     5     3   ar
     2     3     4   ar
     3     3     2    1
     4     1     2    1
     5     2     6    1
     6     6     7    1
     7    15    14    1
     8     7     8    1
     9     8     9    2
    10     8    10   am
    11    10    11    1
    12    14    11    1
    13    11    12    1
    14    12    13    2
    15    12    16   am
    16    16    17    1
    17    17    18    1
    18    19    18   ar
    19    18    20   ar
