@<TRIPOS>MOLECULE
3rhc_GSH_A_1.pdb
 20 19 0 0 0
SMALL
GASTEIGER

@<TRIPOS>ATOM
      1  N1       -20.4440   -0.6520  -11.1090 N.3   114  GSH114     -0.1208
      2  CA1      -19.4970   -1.6220  -11.6390 C.3   114  GSH114      0.1948
      3  C1       -20.3000   -2.7350  -12.2730 C.2   114  GSH114      0.3819
      4  O11      -19.7800   -3.6920  -12.9190 O.co2 114  GSH114     -0.2441
      5  O12      -21.5320   -2.7460  -12.0940 O.co2 114  GSH114     -0.2441
      6  CB1      -18.6710   -2.1640  -10.4500 C.3   114  GSH114      0.0402
      7  CG1      -17.4220   -2.8780  -10.9580 C.3   114  GSH114      0.0889
      8  CD1      -16.3910   -3.0250   -9.8710 C.2   114  GSH114      0.2418
      9  OE1      -16.2350   -1.9280   -9.0650 O.2   114  GSH114     -0.2733
     10  N2       -15.7740   -4.1770   -9.7230 N.am  114  GSH114     -0.1968
     11  CA2      -14.9310   -4.5590   -8.6080 C.3   114  GSH114      0.1843
     12  C2       -13.5630   -4.5050   -9.2150 C.2   114  GSH114      0.2627
     13  O2       -13.4950   -4.8130  -10.5820 O.2   114  GSH114     -0.2714
     14  CB2      -15.3480   -5.9760   -8.2080 C.3   114  GSH114      0.0997
     15  SG2      -17.0150   -5.8210   -7.4660 S.3   114  GSH114     -0.0797
     16  N3       -12.4810   -4.1310   -8.5830 N.am  114  GSH114     -0.1917
     17  CA3      -11.1380   -4.2330   -9.1750 C.3   114  GSH114      0.2285
     18  C3       -10.6980   -5.6850   -9.4440 C.2   114  GSH114      0.3865
     19  O31       -9.7590   -5.8910  -10.2550 O.co2 114  GSH114     -0.2437
     20  O32      -11.2220   -6.7410   -8.8970 O.co2 114  GSH114     -0.2437
@<TRIPOS>BOND
     1     4     3   ar
     2     3     5   ar
     3     3     2    1
     4     2     1    1
     5     2     6    1
     6     7     6    1
     7     7     8    1
     8    13    12    2
     9    19    18   ar
    10     8    10   am
    11     8     9    2
    12    10    11    1
    13    18    17    1
    14    18    20   ar
    15    12    11    1
    16    12    16   am
    17    17    16    1
    18    11    14    1
    19    14    15    1
