@<TRIPOS>MOLECULE
3rhd_NAP_A_1.pdb
 31 33 0 0 0
SMALL
GASTEIGER

@<TRIPOS>ATOM
      1  PA        -2.0770  -17.5110   13.5110 P.3   500  NAP500      0.2231
      2  O1A       -2.8710  -17.1290   12.3250 O.2   500  NAP500     -0.5169
      3  O2A       -1.7570  -18.9520   13.5620 O.3   500  NAP500     -0.4370
      4  O5B       -0.7660  -16.5650   13.5940 O.3   500  NAP500     -0.3111
      5  C5B        0.4670  -16.9670   14.1690 C.3   500  NAP500      0.1813
      6  C4B        1.6160  -16.5410   13.2600 C.3   500  NAP500      0.1820
      7  O4B        1.6480  -17.4490   12.1720 O.3   500  NAP500     -0.3136
      8  C3B        1.4490  -15.1430   12.6510 C.3   500  NAP500      0.2157
      9  O3B        2.6810  -14.4670   12.5630 O.3   500  NAP500     -0.2175
     10  C2B        0.9610  -15.4470   11.2590 C.3   500  NAP500      0.2314
     11  O2B        1.2910  -14.4410   10.3480 O.3   500  NAP500     -0.2630
     12  C1B        1.6590  -16.7460   10.9530 C.3   500  NAP500      0.3158
     13  N9A        0.9750  -17.5570    9.9430 N.pl3 500  NAP500     -0.1439
     14  C8A       -0.3550  -17.5230    9.5850 C.3   500  NAP500      0.3377
     15  N7A       -0.5390  -18.4670    8.6220 N.2   500  NAP500     -0.2095
     16  C5A        0.6450  -19.0930    8.3750 C.2   500  NAP500      0.2526
     17  C6A        1.0250  -20.1040    7.5020 C.2   500  NAP500      0.4393
     18  N6A        0.1510  -20.6770    6.6810 N.pl3 500  NAP500      0.2180
     19  N1A        2.3400  -20.5230    7.4950 N.2   500  NAP500      0.0021
     20  C2A        3.2920  -19.9560    8.3350 C.3   500  NAP500      0.5254
     21  N3A        2.9030  -18.9530    9.1920 N.2   500  NAP500     -0.0055
     22  C4A        1.6080  -18.5250    9.2040 C.2   500  NAP500      0.3518
     23  O3        -2.9040  -17.1510   14.8210 O.3   500  NAP500     -0.2261
     24  PN        -3.7640  -15.8340   15.1430 P.3   500  NAP500      0.5373
     25  O1N       -5.0300  -16.4910   15.8950 O.3   500  NAP500     -0.1143
     26  O2N       -2.8950  -15.0850   16.0910 O.3   500  NAP500     -0.1143
     27  O5D       -4.2860  -15.2240   13.8940 O.2   500  NAP500     -0.2221
     28  P2B        0.1370  -13.4300    9.8980 P.3   500  NAP500      0.5328
     29  O1X        0.7510  -12.4120    8.9610 O.2   500  NAP500     -0.2224
     30  O2X       -0.4390  -12.7520   11.1100 O.3   500  NAP500     -0.1145
     31  O3X       -0.9590  -14.1810    9.1730 O.3   500  NAP500     -0.1145
@<TRIPOS>BOND
     1    18    17    1
     2    19    17    2
     3    19    20    1
     4    17    16    1
     5    20    21    1
     6    16    15    2
     7    16    22    1
     8    15    14    1
     9    29    28    2
    10    31    28    1
    11    21    22    2
    12    22    13    1
    13    14    13    1
    14    28    11    1
    15    28    30    1
    16    13    12    1
    17    11    10    1
    18    12    10    1
    19    12     7    1
    20    10     8    1
    21     7     6    1
    22     2     1    2
    23     9     8    1
    24     8     6    1
    25     6     5    1
    26     1     3    1
    27     1     4    1
    28     1    23    1
    29     4     5    1
    30    27    24    2
    31    23    24    1
    32    24    25    1
    33    24    26    1
