@<TRIPOS>MOLECULE
3rhh_NAP_A_1.pdb
 31 33 0 0 0
SMALL
GASTEIGER

@<TRIPOS>ATOM
      1  PA        37.4790  -14.4270   -4.9190 P.3   506  NAP506      0.2231
      2  O1A       37.8320  -14.1660   -6.3330 O.2   506  NAP506     -0.5169
      3  O2A       36.1010  -14.9410   -4.7880 O.3   506  NAP506     -0.4370
      4  O5B       38.5320  -15.4540   -4.2720 O.3   506  NAP506     -0.3111
      5  C5B       38.0950  -16.3660   -3.2850 C.3   506  NAP506      0.1813
      6  C4B       38.5660  -17.8090   -3.5170 C.3   506  NAP506      0.1820
      7  O4B       38.0180  -18.3910   -4.6910 O.3   506  NAP506     -0.3136
      8  C3B       40.0670  -17.9320   -3.6500 C.3   506  NAP506      0.2157
      9  O3B       40.4070  -19.1440   -3.0140 O.3   506  NAP506     -0.2175
     10  C2B       40.2380  -18.0130   -5.1560 C.3   506  NAP506      0.2314
     11  O2B       41.4860  -18.5020   -5.5790 O.3   506  NAP506     -0.2630
     12  C1B       39.0460  -18.8680   -5.5390 C.3   506  NAP506      0.3158
     13  N9A       38.5780  -18.6920   -6.9160 N.pl3 506  NAP506     -0.1439
     14  C8A       38.8230  -17.6410   -7.7600 C.3   506  NAP506      0.3377
     15  N7A       38.1820  -17.8690   -8.9250 N.2   506  NAP506     -0.2095
     16  C5A       37.5320  -19.0490   -8.8310 C.2   506  NAP506      0.2526
     17  C6A       36.7370  -19.7470   -9.7260 C.2   506  NAP506      0.4393
     18  N6A       36.5120  -19.2550  -10.9390 N.pl3 506  NAP506      0.2180
     19  N1A       36.1890  -20.9550   -9.3410 N.2   506  NAP506      0.0021
     20  C2A       36.4380  -21.4610   -8.0790 C.3   506  NAP506      0.5254
     21  N3A       37.2370  -20.7640   -7.1920 N.2   506  NAP506     -0.0055
     22  C4A       37.7710  -19.5770   -7.5670 C.2   506  NAP506      0.3518
     23  O3        37.6060  -13.0910   -4.0450 O.3   506  NAP506     -0.2261
     24  PN        38.6560  -12.7140   -2.9000 P.3   506  NAP506      0.5373
     25  O1N       38.6360  -11.0970   -2.8620 O.3   506  NAP506     -0.1143
     26  O2N       38.1390  -13.2300   -1.6050 O.3   506  NAP506     -0.1143
     27  O5D       39.9700  -13.1350   -3.4380 O.2   506  NAP506     -0.2221
     28  P2B       42.6690  -17.4400   -5.8580 P.3   506  NAP506      0.5328
     29  O1X       43.8390  -18.1890   -6.4430 O.3   506  NAP506     -0.1145
     30  O2X       43.1090  -16.7880   -4.5770 O.3   506  NAP506     -0.1145
     31  O3X       42.1830  -16.3740   -6.7990 O.2   506  NAP506     -0.2224
@<TRIPOS>BOND
     1    18    17    1
     2    17    19    2
     3    17    16    1
     4    19    20    1
     5    15    16    2
     6    15    14    1
     7    16    22    1
     8    20    21    1
     9    14    13    1
    10    22    21    2
    11    22    13    1
    12    13    12    1
    13    31    28    2
    14    29    28    1
    15     2     1    2
    16    28    11    1
    17    28    30    1
    18    11    10    1
    19    12    10    1
    20    12     7    1
    21    10     8    1
    22     1     3    1
    23     1     4    1
    24     1    23    1
    25     7     6    1
    26     4     5    1
    27    23    24    1
    28     8     6    1
    29     8     9    1
    30     6     5    1
    31    27    24    2
    32    24    25    1
    33    24    26    1
