@<TRIPOS>MOLECULE
3rhj_NAP_A_1.pdb
 48 52 0 0 0
SMALL
GASTEIGER

@<TRIPOS>ATOM
      1  PA        84.7510  -17.5180   15.7440 P.3   101  NAP101      0.2189
      2  O1A       83.3940  -17.6910   16.3000 O.3   101  NAP101     -0.4371
      3  O2A       85.0060  -18.3240   14.5240 O.2   101  NAP101     -0.5170
      4  O5B       85.8460  -17.8680   16.8670 O.3   101  NAP101     -0.3112
      5  C5B       85.8610  -17.3040   18.1640 C.3   101  NAP101      0.1813
      6  C4B       86.5640  -18.3030   19.0740 C.3   101  NAP101      0.1820
      7  O4B       85.7610  -19.4730   19.1920 O.3   101  NAP101     -0.3136
      8  C3B       87.9030  -18.7720   18.5170 C.3   101  NAP101      0.2157
      9  O3B       88.8330  -18.9310   19.5720 O.3   101  NAP101     -0.2175
     10  C2B       87.5590  -20.1390   17.9310 C.3   101  NAP101      0.2314
     11  O2B       88.6630  -21.0020   17.8780 O.3   101  NAP101     -0.2630
     12  C1B       86.5250  -20.6330   18.9240 C.3   101  NAP101      0.3158
     13  N9A       85.7170  -21.7850   18.4660 N.pl3 101  NAP101     -0.1439
     14  C8A       85.4270  -22.1960   17.1830 C.3   101  NAP101      0.3377
     15  N7A       84.6560  -23.3160   17.2490 N.2   101  NAP101     -0.2095
     16  C5A       84.4600  -23.6350   18.5500 C.2   101  NAP101      0.2526
     17  C6A       83.7670  -24.6650   19.2020 C.2   101  NAP101      0.4393
     18  N6A       83.1110  -25.6090   18.5380 N.pl3 101  NAP101      0.2180
     19  N1A       83.7510  -24.7100   20.5750 N.2   101  NAP101      0.0021
     20  C2A       84.4180  -23.7450   21.3030 C.3   101  NAP101      0.5254
     21  N3A       85.1050  -22.7370   20.6670 N.2   101  NAP101     -0.0055
     22  C4A       85.1250  -22.6750   19.3150 C.2   101  NAP101      0.3518
     23  O3        84.9520  -15.9640   15.4230 O.3   101  NAP101     -0.2703
     24  PN        85.7030  -15.1670   14.2580 P.3   101  NAP101      0.2189
     25  O1N       84.7810  -15.0130   13.0980 O.2   101  NAP101     -0.5170
     26  O2N       87.0170  -15.7950   14.0340 O.3   101  NAP101     -0.4371
     27  O5D       85.8610  -13.7320   15.0090 O.3   101  NAP101     -0.3112
     28  C5D       85.1750  -12.5890   14.5260 C.3   101  NAP101      0.1813
     29  C4D       83.7630  -12.4500   15.1050 C.3   101  NAP101      0.1799
     30  O4D       83.8470  -12.1800   16.5000 O.3   101  NAP101     -0.3327
     31  C3D       83.0150  -11.2670   14.4790 C.3   101  NAP101      0.2158
     32  O3D       81.6770  -11.5870   14.1590 O.3   101  NAP101     -0.2175
     33  C2D       83.0380  -10.2230   15.5830 C.3   101  NAP101      0.2309
     34  O2D       81.9950   -9.2690   15.5720 O.3   101  NAP101     -0.2158
     35  C1D       83.0010  -11.0900   16.8260 C.3   101  NAP101      0.2263
     36  N1N       83.4610  -10.2900   17.9710 N.pl3 101  NAP101     -0.2787
     37  C2N       82.5210   -9.8610   18.8710 C.3   101  NAP101      0.1244
     38  C3N       82.9140   -9.0780   19.9590 C.2   101  NAP101      0.0544
     39  C7N       81.9270   -8.6990   21.0280 C.2   101  NAP101      0.2818
     40  O7N       82.4390   -8.3000   22.2750 O.2   101  NAP101     -0.2670
     41  N7N       80.6140   -8.7490   20.7850 N.am  101  NAP101     -0.0839
     42  C4N       84.2700   -8.7440   20.1160 C.2   101  NAP101      0.0033
     43  C5N       85.2160   -9.1870   19.1930 C.2   101  NAP101      0.0157
     44  C6N       84.7910   -9.9650   18.1130 C.2   101  NAP101      0.0633
     45  P2B       89.7110  -20.9190   16.6500 P.3   101  NAP101      0.5328
     46  O1X       89.0510  -20.2940   15.4580 O.2   101  NAP101     -0.2224
     47  O2X       90.8820  -20.0900   17.0960 O.3   101  NAP101     -0.1145
     48  O3X       90.1500  -22.3320   16.3620 O.3   101  NAP101     -0.1145
@<TRIPOS>BOND
     1    25    24    2
     2    26    24    1
     3    32    31    1
     4    24    27    1
     5    24    23    1
     6    31    29    1
     7    31    33    1
     8     3     1    2
     9    28    27    1
    10    28    29    1
    11    29    30    1
    12    23     1    1
    13    46    45    2
    14    34    33    1
    15    33    35    1
    16     1     2    1
    17     1     4    1
    18    48    45    1
    19    30    35    1
    20    45    47    1
    21    45    11    1
    22    35    36    1
    23     4     5    1
    24    14    15    1
    25    14    13    1
    26    15    16    2
    27    11    10    1
    28    10     8    1
    29    10    12    1
    30    36    44    1
    31    36    37    1
    32    44    43    2
    33     5     6    1
    34    13    12    1
    35    13    22    1
    36     8     6    1
    37     8     9    1
    38    18    17    1
    39    16    17    1
    40    16    22    1
    41    37    38    1
    42    12     7    1
    43     6     7    1
    44    43    42    1
    45    17    19    2
    46    22    21    2
    47    38    42    2
    48    38    39    1
    49    19    20    1
    50    21    20    1
    51    41    39   am
    52    39    40    2
