@<TRIPOS>MOLECULE
3rhk_M97_A_1.pdb
 28 33 0 0 0
SMALL
GASTEIGER

@<TRIPOS>ATOM
      1  C1        -7.7550   12.1690   -3.6380 C.3     1  M971        0.1634
      2  N1       -10.8150   10.5170   -4.6180 N.2     1  M971       -0.2481
      3  O1        -7.8460   13.0860   -5.8700 O.2     1  M971       -0.2131
      4  C2        -6.4790   11.4310   -1.5800 C.2     1  M971        0.0082
      5  N2        -5.8660   12.3950   -4.9580 N.2     1  M971       -0.2652
      6  O2        -4.3140   11.4900   -3.5640 O.2     1  M971       -0.2131
      7  C3        -6.8900   10.4140   -0.7330 C.2     1  M971        0.0624
      8  N3        -6.6600   10.8460    0.5200 N.pl3   1  M971       -0.2790
      9  C4        -9.0870   11.5240   -3.7760 C.2     1  M971        0.0157
     10  C5        -9.5690   10.9590   -4.9370 C.2     1  M971        0.0953
     11  C6        -6.6350   11.2830   -3.0620 C.3     1  M971        0.1629
     12  C7        -7.1840   12.6030   -4.9540 C.1     1  M971        0.1954
     13  C8        -5.4630   11.7240   -3.8720 C.1     1  M971        0.1953
     14  C9       -11.0950   10.7980   -3.3180 C.2     1  M971        0.0631
     15  C10      -10.0060   11.4580   -2.7620 C.2     1  M971        0.0125
     16  C11       -9.9760   11.8930   -1.4390 C.2     1  M971        0.0006
     17  C12      -11.0990   11.6590   -0.6470 C.2     1  M971       -0.0042
     18  C13      -12.2050   11.0040   -1.1940 C.2     1  M971       -0.0198
     19  C14      -12.2180   10.5740   -2.5230 C.3     1  M971        0.0717
     20  C15       -5.7960   12.8340    1.5510 C.2     1  M971        0.0002
     21  C16       -5.9720   12.2850    2.9540 C.2     1  M971       -0.0010
     22  C17       -6.5320   10.8540    3.0290 C.2     1  M971        0.0159
     23  C18       -6.9360   10.1090    1.7560 C.2     1  M971        0.0658
     24  C19       -6.1590   12.0790    0.4590 C.3     1  M971        0.1220
     25  C20       -6.0210   12.5150   -0.8440 C.2     1  M971       -0.0015
     26  C21       -5.5080   13.7720   -1.1120 C.2     1  M971       -0.0026
     27  C22       -5.1380   14.5580   -0.0130 C.2     1  M971       -0.0005
     28  C23       -5.2680   14.1050    1.3100 C.2     1  M971       -0.0023
@<TRIPOS>BOND
     1     3    12    2
     2     5    12    2
     3     5    13    2
     4    12     1    1
     5    10     2    1
     6    10     9    2
     7     2    14    2
     8    13     6    2
     9    13    11    1
    10     9     1    1
    11     9    15    1
    12     1    11    1
    13    14    15    1
    14    14    19    1
    15    11     4    1
    16    15    16    2
    17    19    18    1
    18     4    25    1
    19     4     7    2
    20    16    17    1
    21    18    17    2
    22    26    25    2
    23    26    27    1
    24    25    24    1
    25     7     8    1
    26    27    28    2
    27    24     8    1
    28    24    20    1
    29     8    23    1
    30    28    20    1
    31    20    21    2
    32    23    22    2
    33    21    22    1
