@<TRIPOS>MOLECULE
3rhl_NAP_A_1.pdb
 48 52 0 0 0
SMALL
GASTEIGER

@<TRIPOS>ATOM
      1  PA        84.4510  -17.4660   15.8200 P.3   903  NAP903      0.2189
      2  O1A       83.0770  -17.5940   16.3450 O.3   903  NAP903     -0.4371
      3  O2A       84.7020  -18.2970   14.6230 O.2   903  NAP903     -0.5170
      4  O5B       85.5020  -17.9120   16.9410 O.3   903  NAP903     -0.3112
      5  C5B       85.5030  -17.3290   18.2320 C.3   903  NAP903      0.1813
      6  C4B       86.1500  -18.3310   19.1790 C.3   903  NAP903      0.1820
      7  O4B       85.3170  -19.4770   19.2660 O.3   903  NAP903     -0.3136
      8  C3B       87.4990  -18.8280   18.6670 C.3   903  NAP903      0.2157
      9  O3B       88.4030  -18.9380   19.7560 O.3   903  NAP903     -0.2175
     10  C2B       87.1570  -20.2050   18.1210 C.3   903  NAP903      0.2314
     11  O2B       88.2640  -21.0660   18.0640 O.3   903  NAP903     -0.2630
     12  C1B       86.0940  -20.6440   19.1170 C.3   903  NAP903      0.3158
     13  N9A       85.2910  -21.7950   18.6610 N.pl3 903  NAP903     -0.1439
     14  C8A       84.9940  -22.1830   17.3710 C.3   903  NAP903      0.3377
     15  N7A       84.2350  -23.3100   17.4310 N.2   903  NAP903     -0.2095
     16  C5A       84.0440  -23.6410   18.7310 C.2   903  NAP903      0.2526
     17  C6A       83.3550  -24.6790   19.3670 C.2   903  NAP903      0.4393
     18  N6A       82.7100  -25.6190   18.6830 N.pl3 903  NAP903      0.2180
     19  N1A       83.3390  -24.7380   20.7370 N.2   903  NAP903      0.0021
     20  C2A       83.9980  -23.7830   21.4850 C.3   903  NAP903      0.5254
     21  N3A       84.6870  -22.7590   20.8660 N.2   903  NAP903     -0.0055
     22  C4A       84.7050  -22.6890   19.5100 C.2   903  NAP903      0.3518
     23  O3        84.7510  -15.9150   15.5700 O.3   903  NAP903     -0.2703
     24  PN        85.5410  -15.1350   14.4100 P.3   903  NAP903      0.2189
     25  O1N       84.6290  -15.0640   13.2340 O.2   903  NAP903     -0.5170
     26  O2N       86.8680  -15.7370   14.2330 O.3   903  NAP903     -0.4371
     27  O5D       85.6940  -13.6860   15.1150 O.3   903  NAP903     -0.3112
     28  C5D       84.9650  -12.5720   14.6450 C.3   903  NAP903      0.1813
     29  C4D       83.5410  -12.5340   15.2130 C.3   903  NAP903      0.1799
     30  O4D       83.5930  -12.2640   16.6070 O.3   903  NAP903     -0.3327
     31  C3D       82.7510  -11.3910   14.5860 C.3   903  NAP903      0.2158
     32  O3D       81.4240  -11.7930   14.2870 O.3   903  NAP903     -0.2175
     33  C2D       82.8020  -10.3100   15.6640 C.3   903  NAP903      0.2309
     34  O2D       81.7630   -9.3550   15.6350 O.3   903  NAP903     -0.2158
     35  C1D       82.7890  -11.1430   16.9270 C.3   903  NAP903      0.2263
     36  N1N       83.3060  -10.3610   18.0610 N.pl3 903  NAP903     -0.2787
     37  C2N       82.4090   -9.8810   18.9790 C.3   903  NAP903      0.1244
     38  C3N       82.8640   -9.1160   20.0550 C.2   903  NAP903      0.0544
     39  C7N       81.9010   -8.6100   21.0850 C.2   903  NAP903      0.2818
     40  O7N       82.4610   -8.0780   22.2420 O.2   903  NAP903     -0.2670
     41  N7N       80.5810   -8.6840   20.8970 N.am  903  NAP903     -0.0839
     42  C4N       84.2300   -8.8380   20.2010 C.2   903  NAP903      0.0033
     43  C5N       85.1270   -9.3340   19.2530 C.2   903  NAP903      0.0157
     44  C6N       84.6480  -10.0890   18.1830 C.2   903  NAP903      0.0633
     45  P2B       89.2870  -20.9820   16.7960 P.3   903  NAP903      0.5328
     46  O1X       88.6210  -20.2240   15.6900 O.2   903  NAP903     -0.2224
     47  O2X       90.5240  -20.2640   17.2370 O.3   903  NAP903     -0.1145
     48  O3X       89.5700  -22.4050   16.4130 O.3   903  NAP903     -0.1145
@<TRIPOS>BOND
     1    25    24    2
     2    26    24    1
     3    32    31    1
     4    24    27    1
     5    24    23    1
     6    31    29    1
     7    31    33    1
     8     3     1    2
     9    28    27    1
    10    28    29    1
    11    29    30    1
    12    23     1    1
    13    34    33    1
    14    33    35    1
    15    46    45    2
    16     1     2    1
    17     1     4    1
    18    48    45    1
    19    30    35    1
    20    45    47    1
    21    45    11    1
    22    35    36    1
    23     4     5    1
    24    14    15    1
    25    14    13    1
    26    15    16    2
    27    36    44    1
    28    36    37    1
    29    11    10    1
    30    10     8    1
    31    10    12    1
    32    44    43    2
    33     5     6    1
    34    13    12    1
    35    13    22    1
    36     8     6    1
    37     8     9    1
    38    18    17    1
    39    16    17    1
    40    16    22    1
    41    37    38    1
    42    12     7    1
    43     6     7    1
    44    43    42    1
    45    17    19    2
    46    22    21    2
    47    38    42    2
    48    38    39    1
    49    19    20    1
    50    21    20    1
    51    41    39   am
    52    39    40    2
