@<TRIPOS>MOLECULE
3rhn_5GP_A_1.pdb
 24 26 0 0 0
SMALL
GASTEIGER

@<TRIPOS>ATOM
      1  P         24.2670   24.9080   17.1770 P.3   201  5GP201      0.5327
      2  O1P       23.2680   25.9630   17.3160 O.3   201  5GP201     -0.1145
      3  O2P       24.3950   23.8790   18.1740 O.3   201  5GP201     -0.1145
      4  O3P       25.7020   25.5640   16.9800 O.2   201  5GP201     -0.2224
      5  O5'       24.1110   24.2240   15.7600 O.3   201  5GP201     -0.2675
      6  C5'       23.1520   23.2160   15.4540 C.3   201  5GP201      0.1859
      7  C4'       22.5420   23.5190   14.0750 C.3   201  5GP201      0.1801
      8  O4'       21.6850   22.4710   13.7430 O.3   201  5GP201     -0.3326
      9  C3'       21.6800   24.7840   13.9460 C.3   201  5GP201      0.2158
     10  O3'       22.2380   25.6510   12.9940 O.3   201  5GP201     -0.2175
     11  C2'       20.3180   24.3100   13.4930 C.3   201  5GP201      0.2310
     12  O2'       19.6660   25.1480   12.5710 O.3   201  5GP201     -0.2158
     13  C1'       20.6270   22.9660   12.9300 C.3   201  5GP201      0.2293
     14  N9        19.5400   21.9830   13.0530 N.pl3 201  5GP201     -0.2354
     15  C8        18.7630   21.7070   14.1440 C.3   201  5GP201      0.2246
     16  N7        17.8400   20.8300   13.9600 N.2   201  5GP201     -0.2322
     17  C5        18.0070   20.4750   12.6190 C.2   201  5GP201      0.2182
     18  C6        17.2610   19.5670   11.8140 C.1   201  5GP201      0.2372
     19  O6        16.2280   18.9750   12.1320 O.2   201  5GP201     -0.2069
     20  N1        17.8260   19.3750   10.5450 N.2   201  5GP201     -0.2485
     21  C2        18.9310   20.0490   10.0790 C.1   201  5GP201      0.2531
     22  N2        19.4010   19.7260    8.8910 N.pl3 201  5GP201     -0.0226
     23  N3        19.5540   21.0090   10.7710 N.2   201  5GP201     -0.3074
     24  C4        19.0640   21.1390   12.0620 C.2   201  5GP201      0.2300
@<TRIPOS>BOND
     1    22    21    1
     2    21    20    2
     3    21    23    2
     4    20    18    2
     5    23    24    2
     6    18    19    2
     7    18    17    1
     8    24    17    1
     9    24    14    1
    10    12    11    1
    11    17    16    2
    12    13    14    1
    13    13    11    1
    14    13     8    1
    15    10     9    1
    16    14    15    1
    17    11     9    1
    18     8     7    1
    19     9     7    1
    20    16    15    1
    21     7     6    1
    22     6     5    1
    23     5     1    1
    24     4     1    2
    25     1     2    1
    26     1     3    1
