@<TRIPOS>MOLECULE
3rho_NAP_A_1.pdb
 48 52 0 0 0
SMALL
GASTEIGER

@<TRIPOS>ATOM
      1  PA        85.0360  -17.2100   15.6790 P.3   903  NAP903      0.2189
      2  O1A       83.6780  -17.4660   16.2140 O.3   903  NAP903     -0.4371
      3  O2A       85.2370  -17.9350   14.4030 O.2   903  NAP903     -0.5170
      4  O5B       86.1630  -17.6500   16.7470 O.3   903  NAP903     -0.3112
      5  C5B       86.1340  -17.1040   18.0580 C.3   903  NAP903      0.1813
      6  C4B       86.8160  -18.1020   18.9920 C.3   903  NAP903      0.1820
      7  O4B       85.9860  -19.2470   19.1490 O.3   903  NAP903     -0.3136
      8  C3B       88.1390  -18.6180   18.4390 C.3   903  NAP903      0.2157
      9  O3B       89.1130  -18.6570   19.4640 O.3   903  NAP903     -0.2175
     10  C2B       87.7920  -20.0290   17.9740 C.3   903  NAP903      0.2314
     11  O2B       88.8950  -20.9140   17.9270 O.3   903  NAP903     -0.2630
     12  C1B       86.7360  -20.4360   18.9860 C.3   903  NAP903      0.3158
     13  N9A       85.9220  -21.5960   18.5530 N.pl3 903  NAP903     -0.1439
     14  C8A       85.6720  -22.0180   17.2690 C.3   903  NAP903      0.3377
     15  N7A       84.8960  -23.1280   17.3260 N.2   903  NAP903     -0.2095
     16  C5A       84.6520  -23.4310   18.6210 C.2   903  NAP903      0.2526
     17  C6A       83.9210  -24.4520   19.2470 C.2   903  NAP903      0.4393
     18  N6A       83.2820  -25.3890   18.5590 N.pl3 903  NAP903      0.2180
     19  N1A       83.8480  -24.4840   20.6200 N.2   903  NAP903      0.0021
     20  C2A       84.4970  -23.5220   21.3680 C.3   903  NAP903      0.5254
     21  N3A       85.2190  -22.5170   20.7520 N.2   903  NAP903     -0.0055
     22  C4A       85.2960  -22.4700   19.3990 C.2   903  NAP903      0.3518
     23  O3        85.2330  -15.6260   15.4980 O.3   903  NAP903     -0.2703
     24  PN        86.4300  -14.8290   14.7930 P.3   903  NAP903      0.2189
     25  O1N       86.4420  -15.2140   13.3710 O.3   903  NAP903     -0.3112
     26  O2N       87.6280  -15.0300   15.6350 O.3   903  NAP903     -0.4371
     27  O5D       85.9610  -13.2830   14.8630 O.2   903  NAP903     -0.5170
     28  C5D       85.4970  -14.0720   12.8310 C.3   903  NAP903      0.1813
     29  C4D       84.2450  -13.4380   12.2680 C.3   903  NAP903      0.1799
     30  O4D       83.2550  -13.3820   13.2750 O.3   903  NAP903     -0.3327
     31  C3D       84.5600  -12.0180   11.8510 C.3   903  NAP903      0.2158
     32  O3D       84.7140  -11.9420   10.4470 O.3   903  NAP903     -0.2175
     33  C2D       83.4020  -11.2030   12.4000 C.3   903  NAP903      0.2309
     34  O2D       82.4370  -10.9970   11.3990 O.3   903  NAP903     -0.2158
     35  C1D       82.8020  -12.0580   13.5110 C.3   903  NAP903      0.2263
     36  N1N       83.2080  -11.5780   14.8600 N.pl3 903  NAP903     -0.2787
     37  C2N       82.4070  -10.6750   15.5170 C.3   903  NAP903      0.1244
     38  C3N       82.7510  -10.1970   16.7840 C.2   903  NAP903      0.0544
     39  C7N       82.2060   -9.2770   17.2720 C.2   903  NAP903      0.2818
     40  O7N       82.1510   -9.1040   18.6670 O.2   903  NAP903     -0.2670
     41  N7N       81.7000   -8.3600   16.4350 N.am  903  NAP903     -0.0839
     42  C4N       83.9260  -10.6340   17.3920 C.2   903  NAP903      0.0033
     43  C5N       84.7430  -11.5440   16.7200 C.2   903  NAP903      0.0157
     44  C6N       84.3700  -12.0120   15.4600 C.2   903  NAP903      0.0633
     45  P2B       89.8950  -20.8770   16.6500 P.3   903  NAP903      0.5328
     46  O1X       89.1990  -20.2500   15.4720 O.2   903  NAP903     -0.2224
     47  O2X       91.1260  -20.0760   16.9930 O.3   903  NAP903     -0.1145
     48  O3X       90.2760  -22.3100   16.3360 O.3   903  NAP903     -0.1145
@<TRIPOS>BOND
     1    32    31    1
     2    34    33    1
     3    31    29    1
     4    31    33    1
     5    29    28    1
     6    29    30    1
     7    33    35    1
     8    28    25    1
     9    30    35    1
    10    25    24    1
    11    35    36    1
    12     3     1    2
    13    24    27    2
    14    24    23    1
    15    24    26    1
    16    36    44    1
    17    36    37    1
    18    44    43    2
    19    46    45    2
    20    23     1    1
    21    37    38    1
    22     1     2    1
    23     1     4    1
    24    48    45    1
    25    41    39   am
    26    45    47    1
    27    45    11    1
    28    43    42    1
    29     4     5    1
    30    38    39    1
    31    38    42    2
    32    14    15    1
    33    14    13    1
    34    39    40    2
    35    15    16    2
    36    11    10    1
    37    10     8    1
    38    10    12    1
    39     5     6    1
    40     8     6    1
    41     8     9    1
    42    13    12    1
    43    13    22    1
    44    18    17    1
    45    16    17    1
    46    16    22    1
    47    12     7    1
    48     6     7    1
    49    17    19    2
    50    22    21    2
    51    19    20    1
    52    21    20    1
