@<TRIPOS>MOLECULE
3rhq_NAP_A_1.pdb
 48 52 0 0 0
SMALL
GASTEIGER

@<TRIPOS>ATOM
      1  PA        84.6000  -17.3150   15.8340 P.3   903  NAP903      0.2189
      2  O1A       83.2430  -17.4650   16.4120 O.3   903  NAP903     -0.4371
      3  O2A       84.8170  -18.1670   14.6430 O.2   903  NAP903     -0.5170
      4  O5B       85.7190  -17.6620   16.9330 O.3   903  NAP903     -0.3112
      5  C5B       85.6610  -17.1530   18.2530 C.3   903  NAP903      0.1813
      6  C4B       86.3200  -18.1690   19.1760 C.3   903  NAP903      0.1820
      7  O4B       85.4770  -19.3070   19.2910 O.3   903  NAP903     -0.3136
      8  C3B       87.6520  -18.6690   18.6310 C.3   903  NAP903      0.2157
      9  O3B       88.5840  -18.7940   19.6920 O.3   903  NAP903     -0.2175
     10  C2B       87.2880  -20.0370   18.0670 C.3   903  NAP903      0.2314
     11  O2B       88.3820  -20.9150   17.9800 O.3   903  NAP903     -0.2630
     12  C1B       86.2370  -20.4850   19.0720 C.3   903  NAP903      0.3158
     13  N9A       85.4270  -21.6500   18.6420 N.pl3 903  NAP903     -0.1439
     14  C8A       85.1580  -22.0970   17.3690 C.3   903  NAP903      0.3377
     15  N7A       84.3830  -23.2120   17.4610 N.2   903  NAP903     -0.2095
     16  C5A       84.1580  -23.4970   18.7650 C.2   903  NAP903      0.2526
     17  C6A       83.4550  -24.5160   19.4280 C.2   903  NAP903      0.4393
     18  N6A       82.8110  -25.4780   18.7790 N.pl3 903  NAP903      0.2180
     19  N1A       83.4120  -24.5240   20.7990 N.2   903  NAP903      0.0021
     20  C2A       84.0710  -23.5450   21.5200 C.3   903  NAP903      0.5254
     21  N3A       84.7730  -22.5500   20.8690 N.2   903  NAP903     -0.0055
     22  C4A       84.8170  -22.5200   19.5150 C.2   903  NAP903      0.3518
     23  O3        84.7990  -15.7550   15.5320 O.3   903  NAP903     -0.2703
     24  PN        85.6640  -14.9990   14.4120 P.3   903  NAP903      0.2189
     25  O1N       84.8420  -14.9390   13.1660 O.2   903  NAP903     -0.5170
     26  O2N       86.9940  -15.6310   14.3480 O.3   903  NAP903     -0.4371
     27  O5D       85.7560  -13.5320   15.0750 O.3   903  NAP903     -0.3112
     28  C5D       84.9730  -12.5140   14.4850 C.3   903  NAP903      0.1813
     29  C4D       83.5410  -12.4970   15.0260 C.3   903  NAP903      0.1799
     30  O4D       83.6250  -12.2100   16.4130 O.3   903  NAP903     -0.3327
     31  C3D       82.7590  -11.3560   14.3820 C.3   903  NAP903      0.2158
     32  O3D       81.4450  -11.7290   14.0120 O.3   903  NAP903     -0.2175
     33  C2D       82.7700  -10.2940   15.4770 C.3   903  NAP903      0.2309
     34  O2D       81.7180   -9.3530   15.4380 O.3   903  NAP903     -0.2158
     35  C1D       82.8090  -11.1060   16.7650 C.3   903  NAP903      0.2263
     36  N1N       83.3360  -10.2970   17.8900 N.pl3 903  NAP903     -0.2787
     37  C2N       82.4400   -9.7860   18.7940 C.3   903  NAP903      0.1244
     38  C3N       82.8740   -8.9860   19.8640 C.2   903  NAP903      0.0544
     39  C7N       81.8890   -8.5780   20.9150 C.2   903  NAP903      0.2818
     40  O7N       82.3540   -8.0720   22.1420 O.2   903  NAP903     -0.2670
     41  N7N       80.5910   -8.7080   20.6710 N.am  903  NAP903     -0.0839
     42  C4N       84.2440   -8.7050   20.0200 C.2   903  NAP903      0.0033
     43  C5N       85.1460   -9.2370   19.0860 C.2   903  NAP903      0.0157
     44  C6N       84.6800  -10.0280   18.0250 C.2   903  NAP903      0.0633
     45  P2B       89.4030  -20.8540   16.7250 P.3   903  NAP903      0.5328
     46  O1X       88.7460  -20.1710   15.5480 O.2   903  NAP903     -0.2224
     47  O2X       90.6480  -20.1080   17.1560 O.3   903  NAP903     -0.1145
     48  O3X       89.7340  -22.2880   16.3900 O.3   903  NAP903     -0.1145
@<TRIPOS>BOND
     1    25    24    2
     2    32    31    1
     3    26    24    1
     4    31    29    1
     5    31    33    1
     6    24    27    1
     7    24    23    1
     8    28    29    1
     9    28    27    1
    10     3     1    2
    11    29    30    1
    12    34    33    1
    13    33    35    1
    14    23     1    1
    15    46    45    2
    16     1     2    1
    17     1     4    1
    18    48    45    1
    19    30    35    1
    20    45    47    1
    21    45    11    1
    22    35    36    1
    23     4     5    1
    24    14    15    1
    25    14    13    1
    26    15    16    2
    27    36    44    1
    28    36    37    1
    29    11    10    1
    30    44    43    2
    31    10     8    1
    32    10    12    1
    33     5     6    1
    34     8     6    1
    35     8     9    1
    36    13    12    1
    37    13    22    1
    38    16    17    1
    39    16    22    1
    40    18    17    1
    41    37    38    1
    42    12     7    1
    43    43    42    1
    44     6     7    1
    45    17    19    2
    46    22    21    2
    47    38    42    2
    48    38    39    1
    49    41    39   am
    50    19    20    1
    51    21    20    1
    52    39    40    2
