@<TRIPOS>MOLECULE
3rhr_NDP_A_1.pdb
 48 52 0 0 0
SMALL
GASTEIGER

@<TRIPOS>ATOM
      1  PA        84.6050  -17.3540   15.6830 P.3   903  NDP903      0.2189
      2  O1A       83.2510  -17.5120   16.2640 O.3   903  NDP903     -0.4371
      3  O2A       84.8010  -18.2200   14.4980 O.2   903  NDP903     -0.5170
      4  O5B       85.7200  -17.7140   16.7900 O.3   903  NDP903     -0.3112
      5  C5B       85.7580  -17.1160   18.0750 C.3   903  NDP903      0.1813
      6  C4B       86.4240  -18.0950   19.0290 C.3   903  NDP903      0.1820
      7  O4B       85.5820  -19.2340   19.1770 O.3   903  NDP903     -0.3136
      8  C3B       87.7600  -18.6130   18.5030 C.3   903  NDP903      0.2157
      9  O3B       88.6970  -18.7630   19.5640 O.3   903  NDP903     -0.2175
     10  C2B       87.3690  -19.9750   17.9450 C.3   903  NDP903      0.2314
     11  O2B       88.4340  -20.8880   17.8620 O.3   903  NDP903     -0.2630
     12  C1B       86.3280  -20.4190   18.9550 C.3   903  NDP903      0.3158
     13  N9A       85.5140  -21.5800   18.5270 N.pl3 903  NDP903     -0.1439
     14  C8A       85.2220  -22.0010   17.2540 C.3   903  NDP903      0.3377
     15  N7A       84.4430  -23.1130   17.3460 N.2   903  NDP903     -0.2095
     16  C5A       84.2480  -23.4200   18.6480 C.2   903  NDP903      0.2526
     17  C6A       83.5500  -24.4400   19.3140 C.2   903  NDP903      0.4393
     18  N6A       82.9090  -25.3990   18.6700 N.pl3 903  NDP903      0.2180
     19  N1A       83.5380  -24.4680   20.6890 N.2   903  NDP903      0.0021
     20  C2A       84.2080  -23.5000   21.4080 C.3   903  NDP903      0.5254
     21  N3A       84.8950  -22.4940   20.7560 N.2   903  NDP903     -0.0055
     22  C4A       84.9210  -22.4540   19.3960 C.2   903  NDP903      0.3518
     23  O3        84.7960  -15.7850   15.3880 O.3   903  NDP903     -0.2703
     24  PN        85.6080  -15.1280   14.1620 P.3   903  NDP903      0.2189
     25  O1N       84.7590  -15.0970   12.9400 O.2   903  NDP903     -0.5170
     26  O2N       86.9320  -15.7750   14.0840 O.3   903  NDP903     -0.4371
     27  O5D       85.7350  -13.6080   14.7120 O.3   903  NDP903     -0.3112
     28  C5D       84.9190  -12.5920   14.1360 C.3   903  NDP903      0.1813
     29  C4D       83.5120  -12.5550   14.7510 C.3   903  NDP903      0.1799
     30  O4D       83.6340  -12.3250   16.1460 O.3   903  NDP903     -0.3327
     31  C3D       82.6630  -11.4090   14.2020 C.3   903  NDP903      0.2158
     32  O3D       81.3250  -11.8150   13.9690 O.3   903  NDP903     -0.2175
     33  C2D       82.7210  -10.3630   15.3130 C.3   903  NDP903      0.2309
     34  O2D       81.6280   -9.4660   15.3590 O.3   903  NDP903     -0.2158
     35  C1D       82.8160  -11.2340   16.5580 C.3   903  NDP903      0.2263
     36  N1N       83.3470  -10.5140   17.7420 N.pl3 903  NDP903     -0.2787
     37  C2N       82.4560  -10.0300   18.6670 C.3   903  NDP903      0.1244
     38  C3N       82.8510   -9.1510   19.6950 C.2   903  NDP903      0.0544
     39  C7N       81.8490   -8.6500   20.7060 C.2   903  NDP903      0.2818
     40  O7N       82.3490   -8.1190   21.8960 O.2   903  NDP903     -0.2670
     41  N7N       80.5410   -8.7160   20.5030 N.am  903  NDP903     -0.0839
     42  C4N       84.3090   -8.7010   19.8520 C.2   903  NDP903      0.0033
     43  C5N       85.1880   -9.3020   18.7780 C.2   903  NDP903      0.0157
     44  C6N       84.6790  -10.1640   17.7960 C.2   903  NDP903      0.0633
     45  P2B       89.4700  -20.8230   16.6230 P.3   903  NDP903      0.5328
     46  O1X       88.8430  -20.1710   15.4200 O.2   903  NDP903     -0.2224
     47  O2X       90.6980  -20.0480   17.0320 O.3   903  NDP903     -0.1145
     48  O3X       89.8350  -22.2560   16.3300 O.3   903  NDP903     -0.1145
@<TRIPOS>BOND
     1    25    24    2
     2    32    31    1
     3    26    24    1
     4    28    27    1
     5    28    29    1
     6    24    27    1
     7    24    23    1
     8    31    29    1
     9    31    33    1
    10     3     1    2
    11    29    30    1
    12    33    34    1
    13    33    35    1
    14    23     1    1
    15    46    45    2
    16     1     2    1
    17     1     4    1
    18    30    35    1
    19    48    45    1
    20    35    36    1
    21    45    47    1
    22    45    11    1
    23     4     5    1
    24    14    15    1
    25    14    13    1
    26    15    16    2
    27    36    44    1
    28    36    37    1
    29    44    43    2
    30    11    10    1
    31    10     8    1
    32    10    12    1
    33     5     6    1
    34     8     6    1
    35     8     9    1
    36    13    12    1
    37    13    22    1
    38    16    17    1
    39    16    22    1
    40    37    38    1
    41    18    17    1
    42    43    42    1
    43    12     7    1
    44     6     7    1
    45    17    19    2
    46    22    21    2
    47    38    42    2
    48    38    39    1
    49    41    39   am
    50    19    20    1
    51    39    40    2
    52    21    20    1
