@<TRIPOS>MOLECULE
3rhs_COA_A_1.pdb
 48 50 0 0 0
SMALL
GASTEIGER

@<TRIPOS>ATOM
      1  N1A      -46.1990   25.7080   -4.9810 N.2   162  COA162      0.0021
      2  C2A      -44.9680   26.0510   -5.3400 C.3   162  COA162      0.5254
      3  N3A      -44.0470   26.2540   -4.4280 N.2   162  COA162     -0.0055
      4  C4A      -44.3460   26.0830   -3.1050 C.2   162  COA162      0.3518
      5  C5A      -45.6140   25.6920   -2.7250 C.2   162  COA162      0.2526
      6  C6A      -46.5600   25.4940   -3.6990 C.2   162  COA162      0.4393
      7  N6A      -47.8270   25.1120   -3.3730 N.pl3 162  COA162      0.2180
      8  N7A      -45.6500   25.5990   -1.3940 N.2   162  COA162     -0.2095
      9  C8A      -44.4240   25.9240   -0.9310 C.3   162  COA162      0.3377
     10  N9A      -43.6520   26.2180   -1.9750 N.pl3 162  COA162     -0.1439
     11  C1B      -42.2430   26.5940   -1.8300 C.3   162  COA162      0.3185
     12  C2B      -41.7240   25.4560   -1.0030 C.3   162  COA162      0.2543
     13  O2B      -41.1110   25.8810    0.1920 O.3   162  COA162     -0.2131
     14  C3B      -40.7490   24.8100   -1.9310 C.3   162  COA162      0.1928
     15  O3B      -39.6640   24.3270   -1.2230 O.3   162  COA162     -0.2673
     16  P3B      -40.2450   23.1900   -0.3730 P.3   162  COA162      0.5327
     17  O7A      -40.0670   23.6800    1.0180 O.3   162  COA162     -0.1145
     18  O8A      -41.6710   23.0830   -0.7260 O.2   162  COA162     -0.2224
     19  O9A      -39.4650   21.9870   -0.7140 O.3   162  COA162     -0.1145
     20  C4B      -40.4220   25.7960   -2.9930 C.3   162  COA162      0.1795
     21  O4B      -41.5920   26.5640   -3.0910 O.3   162  COA162     -0.3136
     22  C5B      -40.1960   24.9830   -4.2260 C.3   162  COA162      0.1812
     23  O5B      -39.2840   25.7330   -4.9700 O.3   162  COA162     -0.3112
     24  P1A      -37.7920   25.3240   -5.0750 P.3   162  COA162      0.2189
     25  O1A      -37.6550   23.9270   -4.7350 O.3   162  COA162     -0.4371
     26  O2A      -37.3290   25.7620   -6.4040 O.2   162  COA162     -0.5170
     27  O3A      -37.2280   26.2860   -3.9650 O.3   162  COA162     -0.2703
     28  P2A      -35.9060   26.1210   -3.0940 P.3   162  COA162      0.2188
     29  O4A      -35.0710   25.0240   -3.5750 O.2   162  COA162     -0.5170
     30  O5A      -36.3170   26.0260   -1.6870 O.3   162  COA162     -0.4371
     31  O6A      -35.1800   27.5460   -3.1620 O.3   162  COA162     -0.3138
     32  CBP      -34.1940   29.6380   -3.8090 C.3   162  COA162      0.0645
     33  CCP      -35.2440   28.5750   -4.1370 C.3   162  COA162      0.1519
     34  CDP      -33.2610   29.0660   -2.7650 C.3   162  COA162      0.0056
     35  CEP      -33.4110   29.9600   -5.0790 C.3   162  COA162      0.0056
     36  CAP      -34.8120   30.9250   -3.2850 C.3   162  COA162      0.2312
     37  OAP      -35.6720   30.6780   -2.2060 O.3   162  COA162     -0.2131
     38  C9P      -33.8160   31.9460   -2.8280 C.2   162  COA162      0.2719
     39  O9P      -33.2030   32.5640   -3.6370 O.2   162  COA162     -0.2706
     40  N8P      -33.6350   32.1540   -1.5400 N.am  162  COA162     -0.2028
     41  C7P      -32.6950   33.1100   -0.9810 C.3   162  COA162      0.1248
     42  C6P      -33.3240   34.4740   -0.7290 C.3   162  COA162      0.1102
     43  C5P      -33.4120   35.3880   -1.9730 C.2   162  COA162      0.2432
     44  O5P      -32.4920   35.6420   -2.6530 O.2   162  COA162     -0.2733
     45  N4P      -34.5780   35.9390   -2.1640 N.am  162  COA162     -0.2044
     46  C3P      -34.9170   36.8520   -3.2380 C.3   162  COA162      0.1276
     47  C2P      -35.2940   36.0070   -4.4330 C.3   162  COA162      0.0920
     48  S1P      -35.6900   37.0870   -5.8290 S.3   162  COA162     -0.0802
@<TRIPOS>BOND
     1    26    24    2
     2    48    47    1
     3     2     1    1
     4     2     3    1
     5    35    32    1
     6    24    23    1
     7    24    25    1
     8    24    27    1
     9     1     6    2
    10    23    22    1
    11    47    46    1
    12     3     4    2
    13    22    20    1
    14    33    32    1
    15    33    31    1
    16    27    28    1
    17    32    36    1
    18    32    34    1
    19     6     7    1
    20     6     5    1
    21    39    38    2
    22    29    28    2
    23    36    38    1
    24    36    37    1
    25    46    45    1
    26    31    28    1
    27     4     5    1
    28     4    10    1
    29    28    30    1
    30    21    20    1
    31    21    11    1
    32    20    14    1
    33    38    40   am
    34     5     8    2
    35    44    43    2
    36    45    43   am
    37    10    11    1
    38    10     9    1
    39    43    42    1
    40    14    15    1
    41    14    12    1
    42    11    12    1
    43    40    41    1
    44     8     9    1
    45    15    16    1
    46    12    13    1
    47    41    42    1
    48    18    16    2
    49    19    16    1
    50    16    17    1
