@<TRIPOS>MOLECULE
3rhx_3RH_A_1.pdb
 21 24 0 0 0
SMALL
GASTEIGER

@<TRIPOS>ATOM
      1  C1         7.0000    2.6510   20.2570 C.2     2  3RH2        0.1413
      2  C2         6.0870    1.6790   19.8320 C.2     2  3RH2        0.0289
      3  N3         7.5780    2.4900   21.4720 N.2     2  3RH2       -0.3355
      4  C4         7.3000    1.4300   22.2620 C.1     2  3RH2        0.1864
      5  N5         7.9450    1.3130   23.4740 N.pl3   2  3RH2       -0.0345
      6  N6         6.4330    0.4730   21.8340 N.2     2  3RH2       -0.1676
      7  C7         5.8380    0.5860   20.6370 C.2     2  3RH2        0.1101
      8  C8         5.4370    1.7940   18.4840 C.3     2  3RH2        0.0393
      9  C9         6.3790    2.4820   17.4700 C.3     2  3RH2        0.0491
     10  C10        5.6910    2.6130   16.1750 C.ar    2  3RH2       -0.0181
     11  C11        6.9680    3.7630   18.0130 C.ar    2  3RH2       -0.0156
     12  C12        7.2930    3.8390   19.3790 C.ar    2  3RH2        0.0266
     13  C13        4.5940    3.4690   16.0270 C.ar    2  3RH2       -0.0039
     14  C14        3.9930    3.4940   14.7590 C.ar    2  3RH2       -0.0003
     15  C15        4.4930    2.7000   13.6690 C.ar    2  3RH2       -0.0000
     16  C16        5.6030    1.8260   13.7940 C.ar    2  3RH2       -0.0003
     17  C17        6.1690    1.8100   15.0810 C.ar    2  3RH2       -0.0039
     18  C18        7.2280    4.8690   17.1920 C.ar    2  3RH2       -0.0039
     19  C19        7.7890    6.0400   17.7240 C.ar    2  3RH2       -0.0003
     20  C20        8.1090    6.1230   19.0970 C.ar    2  3RH2        0.0001
     21  C21        7.8460    5.0150   19.9060 C.ar    2  3RH2        0.0023
@<TRIPOS>BOND
     1    15    16   ar
     2    15    14   ar
     3    16    17   ar
     4    14    13   ar
     5    17    10   ar
     6    13    10   ar
     7    10     9    1
     8    18    19   ar
     9    18    11   ar
    10     9    11    1
    11     9     8    1
    12    19    20   ar
    13    11    12   ar
    14     8     2    1
    15    20    21   ar
    16    12    21   ar
    17    12     1    1
    18     2     1    1
    19     2     7    2
    20     1     3    2
    21     7     6    1
    22     3     4    2
    23     6     4    2
    24     4     5    1
