@<TRIPOS>MOLECULE
3rhz_UDP_A_1.pdb
 25 26 0 0 0
SMALL
GASTEIGER

@<TRIPOS>ATOM
      1  N1       -24.0970  -14.0570    2.1540 N.am  7517  UDP7517    -0.1766
      2  C2       -25.3440  -14.4600    1.7190 C.1   7517  UDP7517     0.2845
      3  N3       -25.6460  -14.4730    0.3700 N.2   7517  UDP7517    -0.2452
      4  C4       -24.7010  -14.0880   -0.5520 C.1   7517  UDP7517     0.2182
      5  C5       -23.4460  -13.6840   -0.1130 C.2   7517  UDP7517     0.1242
      6  C6       -23.1700  -13.6310    1.2490 C.2   7517  UDP7517     0.0929
      7  O2       -26.1930  -14.8210    2.5290 O.2   7517  UDP7517    -0.1918
      8  O4       -24.9840  -14.1040   -1.7510 O.2   7517  UDP7517    -0.2085
      9  C1'      -23.8240  -14.0730    3.6070 C.3   7517  UDP7517     0.2401
     10  C2'      -23.3810  -15.4880    3.9610 C.3   7517  UDP7517     0.2319
     11  O2'      -23.9490  -15.8770    5.1960 O.3   7517  UDP7517    -0.2157
     12  C3'      -21.8870  -15.3390    4.1270 C.3   7517  UDP7517     0.2158
     13  C4'      -21.8170  -13.9510    4.7540 C.3   7517  UDP7517     0.1799
     14  O4'      -22.7740  -13.1960    4.0110 O.3   7517  UDP7517    -0.3320
     15  O3'      -21.3610  -16.3440    4.9580 O.3   7517  UDP7517    -0.2175
     16  C5'      -20.4210  -13.3510    4.6740 C.3   7517  UDP7517     0.1813
     17  O5'      -20.4430  -12.0450    5.2130 O.3   7517  UDP7517    -0.3111
     18  PA       -19.0750  -11.3500    5.6790 P.3   7517  UDP7517     0.2231
     19  O1A      -18.0960  -11.3820    4.5680 O.2   7517  UDP7517    -0.5169
     20  O2A      -19.3670   -9.9780    6.1490 O.3   7517  UDP7517    -0.4370
     21  O3A      -18.6170  -12.2790    6.9100 O.3   7517  UDP7517    -0.2261
     22  PB       -17.1550  -12.5420    7.5340 P.3   7517  UDP7517     0.5373
     23  O1B      -16.1480  -11.5410    7.1270 O.3   7517  UDP7517    -0.1143
     24  O2B      -17.2640  -12.6020    9.0280 O.3   7517  UDP7517    -0.1143
     25  O3B      -16.7410  -13.8720    7.0320 O.2   7517  UDP7517    -0.2221
@<TRIPOS>BOND
     1     8     4    2
     2     4     5    1
     3     4     3    2
     4     5     6    2
     5     3     2    2
     6     6     1    1
     7     2     1   am
     8     2     7    2
     9     1     9    1
    10     9    10    1
    11     9    14    1
    12    10    12    1
    13    10    11    1
    14    14    13    1
    15    12    13    1
    16    12    15    1
    17    19    18    2
    18    16    13    1
    19    16    17    1
    20    17    18    1
    21    18    20    1
    22    18    21    1
    23    21    22    1
    24    25    22    2
    25    23    22    1
    26    22    24    1
