@<TRIPOS>MOLECULE
3ri1_3RH_A_1.pdb
 21 24 0 0 0
SMALL
GASTEIGER

@<TRIPOS>ATOM
      1  C1       -29.4740   16.4670  -23.5900 C.2     2  3RH2        0.1413
      2  C2       -28.3280   16.6210  -24.3640 C.2     2  3RH2        0.0289
      3  N3       -30.3770   15.5180  -23.9340 N.2     2  3RH2       -0.3355
      4  C4       -30.1570   14.7380  -25.0240 C.1     2  3RH2        0.1864
      5  N5       -31.0660   13.7930  -25.3610 N.pl3   2  3RH2       -0.0345
      6  N6       -29.0420   14.8880  -25.7840 N.2     2  3RH2       -0.1676
      7  C7       -28.1220   15.8100  -25.4780 C.2     2  3RH2        0.1101
      8  C8       -27.3120   17.6750  -23.9880 C.3     2  3RH2        0.0393
      9  C9       -27.2070   17.7690  -22.4630 C.3     2  3RH2        0.0491
     10  C10      -26.1560   18.7700  -22.1400 C.ar    2  3RH2       -0.0181
     11  C11      -28.5580   17.9970  -21.8460 C.ar    2  3RH2       -0.0156
     12  C12      -29.6680   17.3490  -22.3940 C.ar    2  3RH2        0.0266
     13  C13      -26.3060   20.1270  -22.4550 C.ar    2  3RH2       -0.0039
     14  C14      -25.2930   21.0370  -22.1490 C.ar    2  3RH2       -0.0003
     15  C15      -24.1240   20.5840  -21.5370 C.ar    2  3RH2       -0.0000
     16  C16      -23.9680   19.2290  -21.2300 C.ar    2  3RH2       -0.0003
     17  C17      -24.9810   18.3220  -21.5330 C.ar    2  3RH2       -0.0039
     18  C18      -28.7350   18.8160  -20.7230 C.ar    2  3RH2       -0.0039
     19  C19      -30.0070   18.9990  -20.1660 C.ar    2  3RH2       -0.0003
     20  C20      -31.1150   18.3590  -20.7250 C.ar    2  3RH2        0.0001
     21  C21      -30.9390   17.5330  -21.8370 C.ar    2  3RH2        0.0023
@<TRIPOS>BOND
     1     6     7    1
     2     6     4    2
     3     7     2    2
     4     5     4    1
     5     4     3    2
     6     2     8    1
     7     2     1    1
     8     8     9    1
     9     3     1    2
    10     1    12    1
    11     9    10    1
    12     9    11    1
    13    13    14   ar
    14    13    10   ar
    15    12    11   ar
    16    12    21   ar
    17    14    15   ar
    18    10    17   ar
    19    11    18   ar
    20    21    20   ar
    21    15    16   ar
    22    17    16   ar
    23    20    19   ar
    24    18    19   ar
