@<TRIPOS>MOLECULE
3ri5_RI5_E_1.pdb
 21 25 0 0 0
SMALL
GASTEIGER

@<TRIPOS>ATOM
      1  C01       14.5990  121.2020   31.5160 C.3   351  RI5351      0.0265
      2  C02       14.3500  121.1740   32.9940 C.2   351  RI5351     -0.0400
      3  C03       13.2970  121.7980   33.4770 C.2   351  RI5351     -0.0090
      4  C04       15.3260  120.4870   33.9060 C.3   351  RI5351      0.0751
      5  C05       16.0840  119.3560   33.2360 C.3   351  RI5351      0.2128
      6  C06       15.1580  118.2330   32.7850 C.3   351  RI5351      0.2137
      7  C07       13.8260  118.0660   33.5500 C.3   351  RI5351      0.1017
      8  C08       13.5940  118.8950   34.8010 C.3   351  RI5351      0.1454
      9  C09       14.7640  119.8000   35.1380 C.3   351  RI5351      0.1345
     10  C10       15.9320  118.9150   35.4220 C.2   351  RI5351      0.3193
     11  O11       16.1260  118.3130   36.4640 O.2   351  RI5351     -0.2500
     12  O12       16.8530  118.8280   34.3070 O.3   351  RI5351     -0.4481
     13  C13       13.3060  117.9310   35.9410 C.3   351  RI5351      0.0638
     14  C14       13.6280  116.5130   35.4880 C.3   351  RI5351      0.1535
     15  C15       13.8490  116.6180   33.9860 C.3   351  RI5351      0.2112
     16  O16       12.7130  115.9560   34.5380 O.3   351  RI5351     -0.3448
     17  C17       15.1770  116.0540   33.6760 C.2   351  RI5351      0.3441
     18  O18       15.6160  114.9880   34.0650 O.2   351  RI5351     -0.2474
     19  O19       15.9200  117.0130   32.8830 O.3   351  RI5351     -0.4467
     20  O20       12.4050  119.6660   34.6220 O.3   351  RI5351     -0.2248
     21  C21       12.6640  118.3140   32.6010 C.3   351  RI5351      0.0092
@<TRIPOS>BOND
     1     1     2    1
     2    21     7    1
     3     6    19    1
     4     6     5    1
     5     6     7    1
     6    19    17    1
     7     2     3    2
     8     2     4    1
     9     5     4    1
    10     5    12    1
    11     7    15    1
    12     7     8    1
    13    17    15    1
    14    17    18    2
    15     4     9    1
    16    15    16    1
    17    15    14    1
    18    12    10    1
    19    16    14    1
    20    20     8    1
    21     8     9    1
    22     8    13    1
    23     9    10    1
    24    10    11    2
    25    14    13    1
