@<TRIPOS>MOLECULE
3rib_SAH_A_1.pdb
 26 28 0 0 0
SMALL
GASTEIGER

@<TRIPOS>ATOM
      1  N          8.4600  -22.4930  -11.0450 N.3   445  SAH445     -0.1208
      2  CA         8.6680  -22.3920   -9.5690 C.3   445  SAH445      0.1952
      3  CB        10.0010  -21.7040   -9.2760 C.3   445  SAH445      0.0422
      4  CG        11.1560  -22.6960   -9.3980 C.3   445  SAH445      0.0597
      5  SD        11.2350  -23.7280   -7.9690 S.3   445  SAH445     -0.1375
      6  C          7.5170  -21.6640   -8.9360 C.2   445  SAH445      0.3819
      7  O          6.4740  -21.4710   -9.5680 O.co2 445  SAH445     -0.2441
      8  OXT        7.5740  -21.2570   -7.7710 O.co2 445  SAH445     -0.2441
      9  C5'       11.3240  -25.3390   -8.6990 C.3   445  SAH445      0.0899
     10  C4'        9.9550  -25.8900   -9.1060 C.3   445  SAH445      0.1630
     11  O4'        9.5640  -25.3700  -10.3840 O.3   445  SAH445     -0.3153
     12  C3'        9.9670  -27.4070   -9.2590 C.3   445  SAH445      0.2168
     13  O3'        9.4870  -28.0700   -8.0840 O.3   445  SAH445     -0.2175
     14  C2'        9.0870  -27.6910  -10.4660 C.3   445  SAH445      0.2569
     15  O2'        7.7310  -27.9500  -10.0930 O.3   445  SAH445     -0.2130
     16  C1'        9.1190  -26.4060  -11.2710 C.3   445  SAH445      0.3185
     17  N9        10.0560  -26.5630  -12.4160 N.pl3 445  SAH445     -0.1439
     18  C8        11.3420  -26.1550  -12.4470 C.3   445  SAH445      0.3377
     19  N7        11.9280  -26.4410  -13.6360 N.2   445  SAH445     -0.2095
     20  C5        11.0040  -27.0520  -14.3980 C.2   445  SAH445      0.2526
     21  C6        10.9540  -27.6180  -15.7680 C.2   445  SAH445      0.4393
     22  N6        12.0440  -27.5850  -16.5660 N.pl3 445  SAH445      0.2180
     23  N1         9.7910  -28.1710  -16.1860 N.2   445  SAH445      0.0021
     24  C2         8.6990  -28.2120  -15.3940 C.3   445  SAH445      0.5254
     25  N3         8.6710  -27.7180  -14.1400 N.2   445  SAH445     -0.0055
     26  C4         9.7700  -27.1340  -13.5920 C.2   445  SAH445      0.3518
@<TRIPOS>BOND
     1    22    21    1
     2    23    21    2
     3    23    24    1
     4    21    20    1
     5    24    25    1
     6    20    19    2
     7    20    26    1
     8    25    26    2
     9    19    18    1
    10    26    17    1
    11    18    17    1
    12    17    16    1
    13    16    14    1
    14    16    11    1
    15     1     2    1
    16    14    15    1
    17    14    12    1
    18    11    10    1
    19     2     3    1
    20     2     6    1
    21     7     6   ar
    22     4     3    1
    23     4     5    1
    24    12    10    1
    25    12    13    1
    26    10     9    1
    27     6     8   ar
    28     9     5    1
