@<TRIPOS>MOLECULE
3rid_CGP_A_1.pdb
 38 42 0 0 0
SMALL
GASTEIGER

@<TRIPOS>ATOM
      1  P         54.3700  -26.0320    4.2640 P.3   751  CGP751      0.2141
      2  O1P       54.8540  -25.2760    5.4320 O.3   751  CGP751     -0.4373
      3  O2P       53.0300  -26.7000    4.3350 O.2   751  CGP751     -0.5172
      4  O5B       55.0140  -31.0830    3.6900 O.3   751  CGP751     -0.2176
      5  C5X       56.2240  -30.3460    3.8140 C.3   751  CGP751      0.2140
      6  C4X       56.2410  -29.2040    2.8300 C.3   751  CGP751      0.1774
      7  O4B       56.2100  -29.7460    1.5060 O.3   751  CGP751     -0.3339
      8  C3X       55.1010  -28.1810    2.8580 C.3   751  CGP751      0.1557
      9  O3B       55.4660  -27.1360    3.7910 O.3   751  CGP751     -0.3139
     10  C2X       55.0870  -27.6420    1.4170 C.3   751  CGP751      0.0845
     11  C1X       55.7870  -28.7540    0.6280 C.3   751  CGP751      0.2089
     12  N1C       55.0330  -29.3780   -0.4470 N.am  751  CGP751     -0.1802
     13  CC2       54.9210  -28.6710   -1.6730 C.1   751  CGP751      0.2756
     14  N3C       54.2350  -29.2430   -2.7150 N.2   751  CGP751     -0.3024
     15  CC4       53.6450  -30.4300   -2.5510 C.2   751  CGP751      0.2346
     16  CC5       53.7330  -31.1650   -1.3040 C.2   751  CGP751      0.0687
     17  CC6       54.4350  -30.6050   -0.2960 C.2   751  CGP751      0.0835
     18  O2C       55.3970  -27.5410   -1.7420 O.2   751  CGP751     -0.1925
     19  N4C       52.9530  -30.9270   -3.5800 N.pl3 751  CGP751     -0.0921
     20  O5D       54.4280  -25.0290    3.0410 O.3   751  CGP751     -0.3114
     21  C5D       53.2950  -24.8110    2.2210 C.3   751  CGP751      0.1812
     22  C4D       53.1250  -23.3420    1.9610 C.3   751  CGP751      0.1772
     23  O4D       51.9760  -23.1810    1.1200 O.3   751  CGP751     -0.3347
     24  C3D       52.7630  -22.5960    3.2310 C.3   751  CGP751      0.1857
     25  O3D       53.9760  -22.1610    3.8230 O.3   751  CGP751     -0.2203
     26  C2D       51.9260  -21.4260    2.7330 C.3   751  CGP751      0.0865
     27  C1D       51.3280  -21.9970    1.4580 C.3   751  CGP751      0.1981
     28  N9G       49.9040  -22.2430    1.4540 N.pl3 751  CGP751     -0.2374
     29  C8G       49.1590  -23.0340    2.2790 C.3   751  CGP751      0.2245
     30  N7G       47.8990  -23.0570    1.9610 N.2   751  CGP751     -0.2322
     31  C5G       47.8030  -22.2050    0.8740 C.2   751  CGP751      0.2182
     32  C6G       46.6730  -21.7920    0.1290 C.1   751  CGP751      0.2372
     33  O6G       45.4410  -22.1130    0.2980 O.2   751  CGP751     -0.2069
     34  N1G       47.0320  -20.9150   -0.8770 N.2   751  CGP751     -0.2485
     35  C2G       48.3160  -20.4610   -1.1450 C.1   751  CGP751      0.2531
     36  N2G       48.4540  -19.6030   -2.1920 N.pl3 751  CGP751     -0.0226
     37  N3G       49.3750  -20.8180   -0.4460 N.2   751  CGP751     -0.3074
     38  C4G       49.0390  -21.6960    0.5460 C.2   751  CGP751      0.2299
@<TRIPOS>BOND
     1    19    15    1
     2    14    15    2
     3    14    13    2
     4    15    16    1
     5    36    35    1
     6    18    13    2
     7    13    12   am
     8    16    17    2
     9    35    34    2
    10    35    37    2
    11    34    32    2
    12    12    17    1
    13    12    11    1
    14    37    38    2
    15    32    33    2
    16    32    31    1
    17    38    31    1
    18    38    28    1
    19    11    10    1
    20    11     7    1
    21    31    30    2
    22    23    27    1
    23    23    22    1
    24    10     8    1
    25    28    27    1
    26    28    29    1
    27    27    26    1
    28     7     6    1
    29    22    21    1
    30    22    24    1
    31    30    29    1
    32    21    20    1
    33    26    24    1
    34     6     8    1
    35     6     5    1
    36     8     9    1
    37    20     1    1
    38    24    25    1
    39     4     5    1
    40     9     1    1
    41     1     3    2
    42     1     2    1
