@<TRIPOS>MOLECULE
3rie_JFQ_A_1.pdb
 12 12 0 0 0
SMALL
GASTEIGER

@<TRIPOS>ATOM
      1  C1        12.4170  114.0460   31.5300 C.3   501  JFQ501      0.1108
      2  N1        13.4860  113.1790   32.1700 N.3   501  JFQ501     -0.1313
      3  C2        13.0000  114.6700   30.2500 C.3   501  JFQ501      0.0393
      4  N2        13.1290  114.1970   27.8400 N.3   501  JFQ501     -0.2194
      5  C3        12.3600  113.9640   29.0510 C.3   501  JFQ501      0.0902
      6  N3         9.5860  117.1060   24.1150 N.3   501  JFQ501     -0.1329
      7  C4        12.3340  114.9240   26.7740 C.3   501  JFQ501      0.0729
      8  C5        11.7900  116.3000   27.1840 C.3   501  JFQ501      0.0189
      9  C6        11.3610  117.0420   25.8950 C.3   501  JFQ501      0.0204
     10  C7        10.1300  116.3410   25.2870 C.3   501  JFQ501      0.0919
     11  C8        10.4840  114.8960   24.9280 C.3   501  JFQ501      0.0204
     12  C9        11.2220  114.1060   26.0560 C.3   501  JFQ501      0.0189
@<TRIPOS>BOND
     1     6    10    1
     2    11    10    1
     3    11    12    1
     4    10     9    1
     5     9     8    1
     6    12     7    1
     7     7     8    1
     8     7     4    1
     9     4     5    1
    10     5     3    1
    11     3     1    1
    12     1     2    1
