@<TRIPOS>MOLECULE
3rie_MTA_A_1.pdb
 20 22 0 0 0
SMALL
GASTEIGER

@<TRIPOS>ATOM
      1  CS        15.8640  116.9450   31.7060 C.3   401  MTA401      0.0693
      2  S5'       16.3110  115.3190   31.0950 S.3   401  MTA401     -0.1367
      3  C5'       17.1090  115.5880   29.5080 C.3   401  MTA401      0.0899
      4  C4'       18.5400  116.0330   29.7410 C.3   401  MTA401      0.1630
      5  O4'       19.2270  115.7650   28.5450 O.3   401  MTA401     -0.3153
      6  C2'       19.8650  117.8930   28.9850 C.3   401  MTA401      0.2569
      7  O2'       20.8770  118.8010   29.4260 O.3   401  MTA401     -0.2130
      8  C3'       18.7150  117.5410   29.9120 C.3   401  MTA401      0.2168
      9  O3'       18.9630  117.7470   31.2720 O.3   401  MTA401     -0.2175
     10  C1'       20.4160  116.4980   28.7660 C.3   401  MTA401      0.3185
     11  N9        21.2230  116.4760   27.5700 N.pl3 401  MTA401     -0.1439
     12  C8        20.9730  117.1290   26.4160 C.3   401  MTA401      0.3377
     13  N7        21.9580  116.9700   25.5060 N.2   401  MTA401     -0.2095
     14  C5        22.8220  116.0720   26.1020 C.2   401  MTA401      0.2526
     15  C6        24.0760  115.4440   25.7300 C.2   401  MTA401      0.4393
     16  N6        24.5950  115.6960   24.4990 N.pl3 401  MTA401      0.2180
     17  N1        24.6930  114.6610   26.6620 N.2   401  MTA401      0.0021
     18  C2        24.2260  114.4710   27.8960 C.3   401  MTA401      0.5254
     19  N3        23.0480  115.0020   28.3010 N.2   401  MTA401     -0.0055
     20  C4        22.3500  115.7840   27.4580 C.2   401  MTA401      0.3518
@<TRIPOS>BOND
     1    16    15    1
     2    13    14    2
     3    13    12    1
     4    15    14    1
     5    15    17    2
     6    14    20    1
     7    12    11    1
     8    17    18    1
     9    20    11    1
    10    20    19    2
    11    11    10    1
    12    18    19    1
    13     5    10    1
    14     5     4    1
    15    10     6    1
    16     6     7    1
    17     6     8    1
    18     3     4    1
    19     3     2    1
    20     4     8    1
    21     8     9    1
    22     2     1    1
