@<TRIPOS>MOLECULE
3rif_GLU_A_1.pdb
 10 9 0 0 0
SMALL
GASTEIGER

@<TRIPOS>ATOM
      1  N          5.5580   50.9030   38.9670 N.3   401  GLU401     -0.1208
      2  CA         6.9590   51.2800   39.1350 C.3   401  GLU401      0.1949
      3  C          7.3580   52.4090   38.1820 C.2   401  GLU401      0.3819
      4  O          6.5570   53.2900   37.8660 O.co2 401  GLU401     -0.2441
      5  CB         7.8700   50.0660   38.9340 C.3   401  GLU401      0.0424
      6  CG         9.2980   50.2740   39.4110 C.3   401  GLU401      0.1161
      7  CD        10.3170   49.9640   38.3370 C.2   401  GLU401      0.3649
      8  OE1        9.9160   49.8310   37.1660 O.co2 401  GLU401     -0.2457
      9  OE2       11.5170   49.8520   38.6620 O.co2 401  GLU401     -0.2457
     10  OXT        8.4940   52.4760   37.7070 O.co2 401  GLU401     -0.2441
@<TRIPOS>BOND
     1     8     7   ar
     2    10     3   ar
     3     4     3   ar
     4     3     2    1
     5     7     9   ar
     6     7     6    1
     7     5     2    1
     8     5     6    1
     9     1     2    1
