@<TRIPOS>MOLECULE
3rig_III_C_1.pdb
 48 47 0 0 0
SMALL
GASTEIGER

@<TRIPOS>ATOM
      1  N         20.5010   -4.5680   -2.7330 N.3     6  THR6       -0.1203
      2  CA        21.1510   -4.5250   -4.0950 C.3     6  THR6        0.1994
      3  C         20.4930   -5.5390   -5.0030 C.2     6  THR6        0.2618
      4  O         20.1940   -5.2210   -6.1570 O.2     6  THR6       -0.2717
      5  CB        22.6990   -4.7540   -4.0560 C.3     6  THR6        0.1784
      6  OG1       23.3700   -3.4970   -4.2340 O.3     6  THR6       -0.2211
      7  CG2       23.1730   -5.7120   -5.1670 C.3     6  THR6        0.0376
      8  N         20.2580   -6.7450   -4.4860 N.am    7  ALA7       -0.1965
      9  CA        19.4420   -7.7300   -5.2310 C.3     7  ALA7        0.1728
     10  C         17.9400   -7.3580   -5.3090 C.2     7  ALA7        0.2616
     11  O         17.1410   -8.1010   -5.9500 O.2     7  ALA7       -0.2715
     12  CB        19.6050   -9.1070   -4.6400 C.3     7  ALA7        0.0334
     13  N         17.5640   -6.2430   -4.6510 N.am    8  ARG8       -0.1963
     14  CA        16.1370   -5.9110   -4.3990 C.3     8  ARG8        0.1729
     15  C         15.5790   -4.9760   -5.4720 C.2     8  ARG8        0.2616
     16  O         16.0640   -3.8950   -5.6800 O.2     8  ARG8       -0.2715
     17  CB        15.9580   -5.3300   -2.9790 C.3     8  ARG8        0.0348
     18  CG        14.8390   -6.0000   -2.1650 C.3     8  ARG8        0.0492
     19  CD        14.5910   -5.4120   -0.7400 C.3     8  ARG8        0.2205
     20  NE        14.9610   -6.3820    0.2990 N.pl3   8  ARG8       -0.0865
     21  CZ        14.2700   -7.4850    0.5980 C.cat   8  ARG8        0.5346
     22  NH1       14.6960   -8.3140    1.5600 N.pl3   8  ARG8        0.1354
     23  NH2       13.1520   -7.7830   -0.0620 N.pl3   8  ARG8        0.1354
     24  C         13.5660   -3.2340   -6.8370 C.2     9  LYS9        0.2617
     25  N         14.5640   -5.4060   -6.2000 N.am    9  LYS9       -0.1963
     26  O         12.8160   -3.1690   -5.8700 O.2     9  LYS9       -0.2715
     27  CA        14.0640   -4.5810   -7.3260 C.3     9  LYS9        0.1728
     28  CB        12.9420   -5.3680   -8.0550 C.3     9  LYS9        0.0312
     29  CD        11.4490   -5.5350  -10.0400 C.3     9  LYS9        0.0234
     30  CE        10.9630   -4.9010  -11.3620 C.3     9  LYS9        0.1124
     31  CG        12.5170   -4.6480   -9.3390 C.3     9  LYS9        0.0041
     32  CX         9.3550   -5.4580  -13.1200 C.2     9  LYS9        0.0786
     33  SX         9.8580   -4.2680  -14.0310 S.2     9  LYS9       -0.0379
     34  CY         8.2150   -6.4110  -13.5040 C.3     9  LYS9        0.0566
     35  NZ         9.8890   -5.7220  -11.9320 N.am    9  LYS9       -0.2350
     36  N         13.9750   -2.1500   -7.4770 N.am   10  SER10      -0.1936
     37  CA        13.4860   -0.8230   -7.1090 C.3    10  SER10       0.2055
     38  C         13.5580    0.1100   -8.2840 C.2    10  SER10       0.2643
     39  O         14.1550   -0.2440   -9.2850 O.2    10  SER10      -0.2714
     40  CB        14.2840   -0.2710   -5.9270 C.3    10  SER10       0.2130
     41  OG        15.6750   -0.1820   -6.2320 O.3    10  SER10      -0.2179
     42  N         12.9310    1.2850   -8.2070 N.am   11  THR11      -0.1950
     43  CA        13.0980    2.3220   -9.2470 C.3    11  THR11       0.1897
     44  C         13.9990    3.5100   -8.8430 C.2    11  THR11       0.2313
     45  O         14.9520    3.3630   -8.0390 O.2    11  THR11      -0.2863
     46  CB        11.7440    2.8240   -9.8220 C.3    11  THR11       0.1794
     47  OG1       10.6640    2.2450   -9.0750 O.3    11  THR11      -0.2208
     48  CG2       11.5800    2.3700  -11.2670 C.3    11  THR11       0.0378
@<TRIPOS>BOND
     1    33    32    2
     2    34    32    1
     3    32    35    1
     4    35    30    1
     5    30    29    1
     6    48    46    1
     7    29    31    1
     8    46    43    1
     9    46    47    1
    10    31    28    1
    11    39    38    2
    12    43    44    1
    13    43    42    1
    14    44    45    2
    15    38    42   am
    16    38    37    1
    17    28    27    1
    18    36    37    1
    19    36    24   am
    20    27    24    1
    21    27    25    1
    22    37    40    1
    23    24    26    2
    24    41    40    1
    25    25    15   am
    26     4     3    2
    27    11    10    2
    28    16    15    2
    29    15    14    1
    30    10     9    1
    31    10    13   am
    32     9    12    1
    33     9     8    1
    34     7     5    1
    35     3     8   am
    36     3     2    1
    37    13    14    1
    38    14    17    1
    39     6     5    1
    40     2     5    1
    41     2     1    1
    42    17    18    1
    43    18    19    1
    44    19    20    1
    45    23    21    1
    46    20    21    2
    47    21    22    1
