@<TRIPOS>MOLECULE
3rik_3RI_B_1.pdb
 14 14 0 0 0
SMALL
GASTEIGER

@<TRIPOS>ATOM
      1  OAA       10.0930   -5.8000   37.6670 O.3   501  3RI501     -0.2189
      2  OAB        9.7280  -11.8710   38.3290 O.3   501  3RI501     -0.2188
      3  OAC       13.1520   -8.4060   41.2000 O.3   501  3RI501     -0.2188
      4  OAD       11.8580  -12.7500   39.5230 O.3   501  3RI501     -0.2175
      5  OAE       13.3330  -11.4830   41.3050 O.3   501  3RI501     -0.2175
      6  CAF        9.2950   -6.9430   38.0300 C.3   501  3RI501      0.1993
      7  CAG        9.4740   -7.3710   39.5080 C.3   501  3RI501      0.1082
      8  CAH        9.6280   -9.7830   39.2170 C.3   501  3RI501      0.1082
      9  CAI       10.7700   -8.7080   41.0580 C.3   501  3RI501      0.1082
     10  CAJ       10.5970  -10.8560   38.7680 C.3   501  3RI501      0.2006
     11  CAK       12.1300   -9.3910   41.3230 C.3   501  3RI501      0.2006
     12  CAL       11.3570  -11.4830   39.9440 C.3   501  3RI501      0.2162
     13  CAM       12.5210  -10.6330   40.4870 C.3   501  3RI501      0.2162
     14  NAN       10.3560   -8.5680   39.6450 N.3   501  3RI501     -0.2660
@<TRIPOS>BOND
     1     1     6    1
     2     6     7    1
     3     2    10    1
     4    10     8    1
     5    10    12    1
     6     8    14    1
     7     7    14    1
     8     4    12    1
     9    14     9    1
    10    12    13    1
    11    13     5    1
    12    13    11    1
    13     9    11    1
    14     3    11    1
