@<TRIPOS>MOLECULE
3ril_3RK_A_1.pdb
 11 11 0 0 0
SMALL
GASTEIGER

@<TRIPOS>ATOM
      1  OAA      -14.8550   -4.8250   38.8600 O.3   513  3RK513     -0.2188
      2  OAB      -12.6150   -8.2940   42.8100 O.3   513  3RK513     -0.2188
      3  OAC      -15.8630   -7.7900   39.3770 O.3   513  3RK513     -0.2175
      4  OAD      -14.7420   -9.0830   41.4580 O.3   513  3RK513     -0.2175
      5  CAE      -12.6680   -5.8880   39.3610 C.3   513  3RK513      0.1243
      6  CAF      -12.0620   -6.3760   41.6890 C.3   513  3RK513      0.1243
      7  NAG      -12.4010   -5.3830   40.6960 N.3   513  3RK513     -0.2125
      8  CAH      -14.1760   -6.0740   39.1200 C.3   513  3RK513      0.2020
      9  CAI      -13.2480   -7.2450   42.1050 C.3   513  3RK513      0.2020
     10  CAJ      -14.9240   -6.9840   40.1310 C.3   513  3RK513      0.2162
     11  CAK      -14.0130   -7.9330   40.9550 C.3   513  3RK513      0.2162
@<TRIPOS>BOND
     1     1     8    1
     2     8     5    1
     3     8    10    1
     4     5     7    1
     5     3    10    1
     6    10    11    1
     7     7     6    1
     8    11     4    1
     9    11     9    1
    10     6     9    1
    11     9     2    1
