@<TRIPOS>MOLECULE
3rim_TPP_A_1.pdb
 26 27 0 0 0
SMALL
GASTEIGER

@<TRIPOS>ATOM
      1  N1'       -8.8700  -16.2740   63.6770 N.2   1002  TPP1002    -0.1861
      2  C2'       -9.8810  -16.7750   64.3700 C.1   1002  TPP1002     0.0663
      3  CM2      -11.1380  -16.0040   64.3850 C.3   1002  TPP1002     0.1291
      4  N3'       -9.8010  -17.9400   65.0350 N.2   1002  TPP1002    -0.3368
      5  C4'       -8.6750  -18.6460   64.9940 C.2   1002  TPP1002     0.2292
      6  N4'       -8.6500  -19.7790   65.6500 N.pl3 1002  TPP1002    -0.0925
      7  C5'       -7.5660  -18.1590   64.2690 C.2   1002  TPP1002     0.0654
      8  C6'       -7.7190  -16.9280   63.6180 C.2   1002  TPP1002     0.1115
      9  C7'       -6.1780  -18.8350   64.1450 C.3   1002  TPP1002     0.1237
     10  N3        -5.4910  -18.6670   65.4450 N.pl3 1002  TPP1002    -0.2970
     11  C2        -5.5300  -19.6670   66.3600 C.3   1002  TPP1002     0.1543
     12  S1        -4.6780  -19.1450   67.7950 S.3   1002  TPP1002    -0.0951
     13  C5        -4.3070  -17.5440   67.1200 C.2   1002  TPP1002     0.0164
     14  C4        -4.8510  -17.5170   65.8280 C.2   1002  TPP1002     0.0279
     15  CM4       -4.7090  -16.3020   64.9170 C.3   1002  TPP1002     0.0473
     16  C6        -3.5140  -16.4370   67.8660 C.3   1002  TPP1002     0.0661
     17  C7        -2.7440  -16.9740   69.0630 C.3   1002  TPP1002     0.1544
     18  O7        -2.4930  -15.8990   69.9080 O.3   1002  TPP1002    -0.3134
     19  PA        -3.0980  -15.7550   71.3340 P.3   1002  TPP1002     0.2230
     20  O1A       -4.5370  -15.6850   71.1190 O.2   1002  TPP1002    -0.5169
     21  O2A       -2.3160  -14.7450   72.0780 O.3   1002  TPP1002    -0.4370
     22  O3A       -2.8860  -17.2120   72.0330 O.3   1002  TPP1002    -0.2261
     23  PB        -1.5540  -17.7150   72.6470 P.3   1002  TPP1002     0.5373
     24  O1B       -0.7680  -18.4920   71.6510 O.2   1002  TPP1002    -0.2221
     25  O2B       -0.8080  -16.5960   73.4460 O.3   1002  TPP1002    -0.1143
     26  O3B       -2.0310  -18.5670   73.8870 O.3   1002  TPP1002    -0.1143
@<TRIPOS>BOND
     1     8     1    1
     2     8     7    2
     3     1     2    2
     4     9     7    1
     5     9    10    1
     6     7     5    1
     7     2     3    1
     8     2     4    2
     9    15    14    1
    10     5     4    2
    11     5     6    1
    12    10    14    1
    13    10    11    1
    14    14    13    2
    15    11    12    1
    16    13    12    1
    17    13    16    1
    18    16    17    1
    19    17    18    1
    20    18    19    1
    21    20    19    2
    22    19    22    1
    23    19    21    1
    24    24    23    2
    25    22    23    1
    26    23    25    1
    27    23    26    1
