@<TRIPOS>MOLECULE
3rin_I2O_A_1.pdb
 27 31 0 0 0
SMALL
GASTEIGER

@<TRIPOS>ATOM
      1  CAA        6.7160   30.3910   30.9070 C.ar  401  I2O401     -0.0041
      2  CAB        5.4810   31.0160   31.2310 C.ar  401  I2O401     -0.0221
      3  CAC        4.3200   30.7030   30.4910 C.ar  401  I2O401     -0.0074
      4  CAD        4.4290   29.7660   29.4330 C.ar  401  I2O401      0.0040
      5  CAE        5.6370   29.1050   29.1050 C.ar  401  I2O401      0.0550
      6  CAF        6.7980   29.4660   29.8580 C.ar  401  I2O401      0.0042
      7  CAG        5.4150   32.0470   32.3830 C.3   401  I2O401      0.0310
      8  CAH        5.6950   28.1280   27.8940 C.2   401  I2O401      0.2647
      9  NAI        6.6040   27.1490   27.8530 N.am  401  I2O401     -0.2034
     10  CAJ        6.6480   26.3060   26.6740 C.3   401  I2O401      0.0957
     11  CAK        7.0640   27.0440   25.3930 C.3   401  I2O401      0.0234
     12  CAL        8.0390   26.0590   26.0350 C.3   401  I2O401      0.0234
     13  OAM        4.9850   28.3140   26.9170 O.2   401  I2O401     -0.2684
     14  CAN        3.0320   31.2990   30.7310 C.2   401  I2O401     -0.0155
     15  CAO        2.8580   32.6150   30.3220 C.2   401  I2O401      0.0288
     16  CAP        1.6660   33.3110   30.4610 C.2   401  I2O401      0.1405
     17  CAQ        0.5640   32.6620   31.0120 C.2   401  I2O401      0.0192
     18  CAR        0.6840   31.3000   31.4270 C.2   401  I2O401     -0.0221
     19  CAS        1.9180   30.6260   31.2740 C.3   401  I2O401      0.0522
     20  NAT        1.3940   34.5770   30.1080 N.2   401  I2O401     -0.3365
     21  CAU        0.1070   34.8740   30.3620 C.1   401  I2O401      0.1819
     22  CAV       -0.6050   33.7050   30.9930 C.3   401  I2O401      0.1248
     23  OAW       -0.4430   35.9340   30.0910 O.2   401  I2O401     -0.2139
     24  CAX       -1.2500   34.0470   32.3570 C.3   401  I2O401      0.0207
     25  CAY       -2.6690   34.4630   31.9370 C.3   401  I2O401      0.0015
     26  CAZ       -3.0390   33.3960   30.9280 C.3   401  I2O401      0.0015
     27  CBA       -1.7830   33.2770   30.0470 C.3   401  I2O401      0.0207
@<TRIPOS>BOND
     1    11    12    1
     2    11    10    1
     3    12    10    1
     4    10     9    1
     5    13     8    2
     6     9     8   am
     7     8     5    1
     8     5     4   ar
     9     5     6   ar
    10     4     3   ar
    11     6     1   ar
    12    27    26    1
    13    27    22    1
    14    23    21    2
    15    20    21    2
    16    20    16    2
    17    15    16    1
    18    15    14    2
    19    21    22    1
    20    16    17    1
    21     3    14    1
    22     3     2   ar
    23    14    19    1
    24     1     2   ar
    25    26    25    1
    26    22    17    1
    27    22    24    1
    28    17    18    2
    29     2     7    1
    30    19    18    1
    31    25    24    1
