@<TRIPOS>MOLECULE
3rir_BT5_A_1.pdb
 38 42 0 0 0
SMALL
GASTEIGER

@<TRIPOS>ATOM
      1  CBB       50.3890   17.4440   18.3860 C.2   500  BT5500      0.3451
      2  OBB       51.5690   16.9980   17.7870 O.3   500  BT5500     -0.4070
      3  OCB       50.1630   18.4890   17.8050 O.2   500  BT5500     -0.2446
      4  CAB       49.1670   17.1530   18.9790 C.2   500  BT5500      0.0776
      5  C9B       49.0550   16.8450   20.3080 C.2   500  BT5500     -0.0194
      6  C8B       47.7400   16.9260   21.0050 C.3   500  BT5500      0.0276
      7  C7B       47.7290   17.1030   22.5320 C.3   500  BT5500      0.0227
      8  C2B       46.5760   16.5480   23.2170 C.3   500  BT5500      0.1038
      9  S1B       46.4790   17.1710   24.7950 S.3   500  BT5500     -0.1261
     10  C6B       45.2600   15.9970   25.0600 C.3   500  BT5500      0.1201
     11  C5B       46.3170   14.9650   24.9160 C.2   500  BT5500      0.1621
     12  N1B       47.0300   14.2750   25.6640 N.2   500  BT5500     -0.3097
     13  C3B       48.2070   14.1110   25.0400 C.1   500  BT5500      0.3549
     14  O3B       49.3280   13.8450   25.7390 O.2   500  BT5500     -0.1752
     15  N2B       48.2880   14.7550   23.7750 N.2   500  BT5500     -0.3098
     16  C4B       47.0550   15.2800   23.7390 C.2   500  BT5500      0.1609
     17  P         52.8920   17.7140   17.2380 P.3   500  BT5500      0.2725
     18  OP1       52.5620   18.4890   15.9620 O.2   500  BT5500     -0.5081
     19  OP2       53.7780   16.5160   17.1370 O.3   500  BT5500     -0.4273
     20  O5'       53.4750   18.6950   18.3490 O.3   500  BT5500     -0.3024
     21  C5'       52.9070   19.9600   18.5780 C.3   500  BT5500      0.1823
     22  C4'       53.7930   21.0530   18.0760 C.3   500  BT5500      0.1822
     23  O4'       53.4080   22.2760   18.7330 O.3   500  BT5500     -0.3135
     24  C3'       55.2710   20.8850   18.4040 C.3   500  BT5500      0.2184
     25  O3'       56.0410   21.7570   17.5630 O.3   500  BT5500     -0.2174
     26  C2'       55.3300   21.4200   19.8080 C.3   500  BT5500      0.2570
     27  O2'       56.6310   21.7760   20.2270 O.3   500  BT5500     -0.2130
     28  C1'       54.4100   22.6410   19.6740 C.3   500  BT5500      0.3186
     29  N9        53.7290   23.0220   20.9030 N.pl3 500  BT5500     -0.1439
     30  C8        53.7980   22.5670   22.1640 C.3   500  BT5500      0.3377
     31  N7        52.7660   23.1140   22.8200 N.2   500  BT5500     -0.2095
     32  C5        52.0460   23.9060   21.9520 C.2   500  BT5500      0.2526
     33  C6        50.8920   24.7120   22.0820 C.2   500  BT5500      0.4393
     34  N6        50.2340   24.7810   23.3860 N.pl3 500  BT5500      0.2180
     35  N1        50.4230   25.3760   20.9580 N.2   500  BT5500      0.0021
     36  C2        51.0470   25.2970   19.7640 C.3   500  BT5500      0.5254
     37  N3        52.1530   24.5390   19.6340 N.2   500  BT5500     -0.0055
     38  C4        52.6650   23.8320   20.6950 C.2   500  BT5500      0.3518
@<TRIPOS>BOND
     1    18    17    2
     2    19    17    1
     3    17     2    1
     4    17    20    1
     5    25    24    1
     6     2     1    1
     7     3     1    2
     8    22    24    1
     9    22    21    1
    10    22    23    1
    11    20    21    1
    12     1     4    1
    13    24    26    1
    14    23    28    1
    15     4     5    2
    16    37    36    1
    17    37    38    2
    18    28    26    1
    19    28    29    1
    20    36    35    1
    21    26    27    1
    22     5     6    1
    23    38    29    1
    24    38    32    1
    25    29    30    1
    26    35    33    2
    27     6     7    1
    28    32    33    1
    29    32    31    2
    30    33    34    1
    31    30    31    1
    32     7     8    1
    33     8    16    1
    34     8     9    1
    35    16    15    2
    36    16    11    1
    37    15    13    2
    38     9    10    1
    39    11    10    1
    40    11    12    2
    41    13    12    2
    42    13    14    2
