@<TRIPOS>MOLECULE
3rit_DLY_A_1.pdb
 10 9 0 0 0
SMALL
GASTEIGER

@<TRIPOS>ATOM
      1  N        -64.1080  -26.1000  -32.3320 N.3   364  DLY364     -0.1208
      2  CA       -65.4340  -26.2230  -31.6540 C.3   364  DLY364      0.1943
      3  C        -65.2840  -26.2330  -30.1320 C.2   364  DLY364      0.3819
      4  O        -64.6890  -25.2850  -29.5390 O.co2 364  DLY364     -0.2441
      5  CB       -66.0520  -27.5690  -32.0610 C.3   364  DLY364      0.0307
      6  CG       -67.1090  -27.5020  -33.1690 C.3   364  DLY364      0.0036
      7  CD       -68.2940  -28.4240  -32.8780 C.3   364  DLY364      0.0206
      8  CE       -68.8810  -28.1660  -31.4860 C.3   364  DLY364      0.1093
      9  NZ       -69.4420  -29.3940  -30.9500 N.3   364  DLY364     -0.1314
     10  OXT      -65.7640  -27.2080  -29.4800 O.co2 364  DLY364     -0.2441
@<TRIPOS>BOND
     1     6     7    1
     2     6     5    1
     3     7     8    1
     4     1     2    1
     5     5     2    1
     6     2     3    1
     7     8     9    1
     8     3     4   ar
     9     3    10   ar
