@<TRIPOS>MOLECULE
3rit_ARG_A_1.pdb
 11 10 0 0 0
SMALL
GASTEIGER

@<TRIPOS>ATOM
      1  N        -64.1780  -23.4030  -34.7430 N.3   363  ARG363     -0.1245
      2  CA       -64.8840  -24.4400  -33.9880 C.3   363  ARG363      0.1563
      3  C        -63.8180  -25.3170  -33.3750 C.2   363  ARG363      0.2260
      4  O        -62.6960  -25.2800  -33.8560 O.2   363  ARG363     -0.2867
      5  CB       -65.7540  -25.2620  -34.9290 C.3   363  ARG363      0.0307
      6  CG       -65.5990  -24.9070  -36.3890 C.3   363  ARG363      0.0489
      7  CD       -64.3790  -25.5630  -36.9890 C.3   363  ARG363      0.2205
      8  NE       -64.6300  -25.8730  -38.3910 N.pl3 363  ARG363     -0.0865
      9  CZ       -63.8220  -26.5960  -39.1620 C.cat 363  ARG363      0.5346
     10  NH1      -62.6990  -27.0890  -38.6660 N.pl3 363  ARG363      0.1354
     11  NH2      -64.1380  -26.8310  -40.4310 N.pl3 363  ARG363      0.1354
@<TRIPOS>BOND
     1    11     9    1
     2     9    10    1
     3     9     8    2
     4     8     7    1
     5     7     6    1
     6     6     5    1
     7     5     2    1
     8     1     2    1
     9     2     3    1
    10     4     3    2
