@<TRIPOS>MOLECULE
3riv_HEM_A_1.pdb
 43 50 0 0 0
SMALL
GASTEIGER

@<TRIPOS>ATOM
      1  CHA      -19.5400   18.2450  -32.8390 C.2   305  HEM305      0.0000
      2  CHB      -20.4750   14.6750  -35.9910 C.2   305  HEM305      0.0000
      3  CHC      -21.5970   11.7010  -32.3570 C.2   305  HEM305      0.0000
      4  CHD      -20.3810   15.1850  -29.1600 C.2   305  HEM305      0.0000
      5  C1A      -19.6690   17.5220  -34.0110 C.ar  305  HEM305      0.0000
      6  C2A      -19.4200   18.0510  -35.3380 C.ar  305  HEM305      0.0000
      7  C3A      -19.6800   17.0750  -36.2270 C.ar  305  HEM305      0.0000
      8  C4A      -20.0960   15.9000  -35.4760 C.ar  305  HEM305      0.0000
      9  CMA      -19.5680   17.1790  -37.7710 C.3   305  HEM305      0.0000
     10  CAA      -18.9130   19.4860  -35.6060 C.3   305  HEM305      0.0000
     11  CBA      -17.4210   19.5690  -35.2540 C.3   305  HEM305      0.0000
     12  CGA      -16.9640   21.0160  -35.4230 C.2   305  HEM305      0.0000
     13  O1A      -17.1090   21.5380  -36.5660 O.co2 305  HEM305      0.0000
     14  O2A      -16.4510   21.6420  -34.4550 O.co2 305  HEM305      0.0000
     15  C1B      -20.8950   13.5690  -35.3070 C.2   305  HEM305      0.0000
     16  C2B      -21.3390   12.3190  -35.8770 C.2   305  HEM305      0.0000
     17  C3B      -21.6090   11.4870  -34.8650 C.2   305  HEM305      0.0000
     18  C4B      -21.4140   12.2080  -33.6260 C.2   305  HEM305      0.0000
     19  CMB      -21.3830   11.9880  -37.3830 C.3   305  HEM305      0.0000
     20  CAB      -22.1790   10.0650  -34.9390 C.2   305  HEM305      0.0000
     21  CBB      -23.0570    9.7490  -35.9160 C.2   305  HEM305      0.0000
     22  C1C      -21.2850   12.3780  -31.1840 C.ar  305  HEM305      0.0000
     23  C2C      -21.2230   11.7930  -29.8650 C.ar  305  HEM305      0.0000
     24  C3C      -20.8670   12.7540  -28.9860 C.ar  305  HEM305      0.0000
     25  C4C      -20.6870   13.9700  -29.7380 C.ar  305  HEM305      0.0000
     26  CMC      -21.5130   10.3000  -29.5970 C.3   305  HEM305      0.0000
     27  CAC      -20.6680   12.6430  -27.4590 C.2   305  HEM305      0.0000
     28  CBC      -21.2710   11.7370  -26.6890 C.2   305  HEM305      0.0000
     29  C1D      -20.1550   16.3480  -29.8500 C.2   305  HEM305      0.0000
     30  C2D      -20.1520   17.6590  -29.2540 C.2   305  HEM305      0.0000
     31  C3D      -19.9030   18.5990  -30.3810 C.2   305  HEM305      0.0000
     32  C4D      -19.7950   17.7940  -31.5730 C.2   305  HEM305      0.0000
     33  CMD      -20.3580   18.0420  -27.7800 C.3   305  HEM305      0.0000
     34  CAD      -19.8010   20.1350  -30.2580 C.3   305  HEM305      0.0000
     35  CBD      -18.2990   20.4770  -30.2260 C.3   305  HEM305      0.0000
     36  CGD      -18.0550   21.9690  -30.0460 C.2   305  HEM305      0.0000
     37  O1D      -16.8700   22.3890  -30.1150 O.co2 305  HEM305      0.0000
     38  O2D      -19.0020   22.7360  -29.7960 O.co2 305  HEM305      0.0000
     39  NA       -20.1260   16.2300  -34.1350 N.ar  305  HEM305      0.0000
     40  NB       -20.9880   13.4680  -33.9370 N.2   305  HEM305      0.0000
     41  NC       -20.9580   13.7170  -31.0630 N.ar  305  HEM305      0.0000
     42  ND       -20.0080   16.4750  -31.2270 N.2   305  HEM305      0.0000
     43 FE        -20.6350   14.9840  -32.6090 Fe    305  HEM305      0.0000
@<TRIPOS>BOND
     1     9     7    1
     2    19    16    1
     3    13    12   ar
     4     7     8   ar
     5     7     6   ar
     6     2     8    2
     7     2    15    1
     8    21    20    2
     9    16    15    1
    10    16    17    2
    11    10     6    1
    12    10    11    1
    13     8    39   ar
    14    12    11    1
    15    12    14   ar
    16     6     5   ar
    17    15    40    2
    18    20    17    1
    19    17    18    1
    20    39     5   ar
    21    39    43    1
    22     5     1    2
    23    40    18    1
    24    40    43    1
    25    18     3    2
    26     1    32    1
    27    43    42    1
    28    43    41    1
    29     3    22    1
    30    32    42    2
    31    32    31    1
    32    42    29    1
    33    22    41   ar
    34    22    23   ar
    35    41    25   ar
    36    31    34    1
    37    31    30    2
    38    34    35    1
    39    35    36    1
    40    37    36   ar
    41    36    38   ar
    42    23    26    1
    43    23    24   ar
    44    29    30    1
    45    29     4    2
    46    25     4    1
    47    25    24   ar
    48    30    33    1
    49    24    27    1
    50    27    28    2
