@<TRIPOS>MOLECULE
3riw_HEM_A_1.pdb
 43 50 0 0 0
SMALL
GASTEIGER

@<TRIPOS>ATOM
      1  CHA      -18.8310   17.1880  -32.6710 C.2   305  HEM305      0.0000
      2  CHB      -19.7430   13.7990  -36.0150 C.2   305  HEM305      0.0000
      3  CHC      -21.0290   10.7120  -32.5330 C.2   305  HEM305      0.0000
      4  CHD      -19.8750   13.9800  -29.2330 C.2   305  HEM305      0.0000
      5  C1A      -18.9090   16.5410  -33.8900 C.ar  305  HEM305      0.0000
      6  C2A      -18.5530   17.0790  -35.1820 C.ar  305  HEM305      0.0000
      7  C3A      -18.8270   16.1320  -36.0940 C.ar  305  HEM305      0.0000
      8  C4A      -19.3540   14.9860  -35.4170 C.ar  305  HEM305      0.0000
      9  CMA      -18.6590   16.1560  -37.6290 C.3   305  HEM305      0.0000
     10  CAA      -17.9860   18.5120  -35.4140 C.3   305  HEM305      0.0000
     11  CBA      -16.5090   18.5920  -35.0170 C.3   305  HEM305      0.0000
     12  CGA      -16.0260   20.0230  -35.1330 C.2   305  HEM305      0.0000
     13  O1A      -16.1620   20.6610  -36.2250 O.co2 305  HEM305      0.0000
     14  O2A      -15.5000   20.5320  -34.1050 O.co2 305  HEM305      0.0000
     15  C1B      -20.1750   12.6750  -35.3470 C.2   305  HEM305      0.0000
     16  C2B      -20.5680   11.4480  -35.9800 C.2   305  HEM305      0.0000
     17  C3B      -20.9080   10.6210  -35.0120 C.2   305  HEM305      0.0000
     18  C4B      -20.7510   11.2730  -33.7510 C.2   305  HEM305      0.0000
     19  CMB      -20.5780   11.1740  -37.5080 C.3   305  HEM305      0.0000
     20  CAB      -21.4080    9.1960  -35.1720 C.2   305  HEM305      0.0000
     21  CBB      -22.5230    9.0220  -35.8910 C.2   305  HEM305      0.0000
     22  C1C      -20.7280   11.2930  -31.3510 C.ar  305  HEM305      0.0000
     23  C2C      -20.7750   10.6380  -30.0560 C.ar  305  HEM305      0.0000
     24  C3C      -20.4290   11.5520  -29.1450 C.ar  305  HEM305      0.0000
     25  C4C      -20.1960   12.7990  -29.8450 C.ar  305  HEM305      0.0000
     26  CMC      -21.1200    9.1520  -29.8450 C.3   305  HEM305      0.0000
     27  CAC      -20.2840   11.4080  -27.6120 C.2   305  HEM305      0.0000
     28  CBC      -20.9590   10.5100  -26.9090 C.2   305  HEM305      0.0000
     29  C1D      -19.6270   15.1810  -29.8130 C.2   305  HEM305      0.0000
     30  C2D      -19.5780   16.4660  -29.1170 C.2   305  HEM305      0.0000
     31  C3D      -19.2450   17.4750  -30.2000 C.2   305  HEM305      0.0000
     32  C4D      -19.1400   16.6820  -31.4260 C.2   305  HEM305      0.0000
     33  CMD      -19.8040   16.7060  -27.6160 C.3   305  HEM305      0.0000
     34  CAD      -19.0560   18.9890  -30.0750 C.3   305  HEM305      0.0000
     35  CBD      -17.5510   19.2580  -30.0160 C.3   305  HEM305      0.0000
     36  CGD      -17.2080   20.7400  -29.8090 C.2   305  HEM305      0.0000
     37  O1D      -15.9810   21.0020  -29.8080 O.co2 305  HEM305      0.0000
     38  O2D      -18.0840   21.6700  -29.6360 O.co2 305  HEM305      0.0000
     39  NA       -19.4060   15.2720  -34.0780 N.ar  305  HEM305      0.0000
     40  NB       -20.3380   12.5420  -33.9810 N.2   305  HEM305      0.0000
     41  NC       -20.4130   12.6210  -31.1830 N.ar  305  HEM305      0.0000
     42  ND       -19.4160   15.3500  -31.1490 N.2   305  HEM305      0.0000
     43 FE        -19.9660   13.9360  -32.5810 Fe    305  HEM305      0.0000
@<TRIPOS>BOND
     1     9     7    1
     2    19    16    1
     3    13    12   ar
     4     7     8   ar
     5     7     6   ar
     6     2     8    2
     7     2    15    1
     8    16    15    1
     9    16    17    2
    10    21    20    2
    11     8    39   ar
    12    10     6    1
    13    10    11    1
    14    15    40    2
    15     6     5   ar
    16    20    17    1
    17    12    11    1
    18    12    14   ar
    19    17    18    1
    20    39     5   ar
    21    39    43    1
    22    40    18    1
    23    40    43    1
    24     5     1    2
    25    18     3    2
    26     1    32    1
    27    43    41    1
    28    43    42    1
    29     3    22    1
    30    32    42    2
    31    32    31    1
    32    22    41   ar
    33    22    23   ar
    34    41    25   ar
    35    42    29    1
    36    31    34    1
    37    31    30    2
    38    34    35    1
    39    23    26    1
    40    23    24   ar
    41    35    36    1
    42    25     4    1
    43    25    24   ar
    44    29     4    2
    45    29    30    1
    46    36    37   ar
    47    36    38   ar
    48    24    27    1
    49    30    33    1
    50    27    28    2
