@<TRIPOS>MOLECULE
3rix_923_A_1.pdb
 34 38 0 0 0
SMALL
GASTEIGER

@<TRIPOS>ATOM
      1  C1       -28.4790    0.2470   -9.2290 C.ar  552  923552     -0.0050
      2  C2       -28.2750    0.8880  -10.4570 C.ar  552  923552     -0.0146
      3  C3       -27.7910    0.1860  -11.5670 C.ar  552  923552     -0.0007
      4  C4       -27.5610   -1.1830  -11.4830 C.ar  552  923552      0.0363
      5  C5       -27.8190   -1.8150  -10.2790 C.ar  552  923552      0.1346
      6  C6       -28.2620   -1.1220   -9.1900 C.ar  552  923552      0.0152
      7  C7       -28.4300   -2.0570   -8.0200 C.3   552  923552      0.0755
      8  C8       -28.1530   -3.4030   -8.7090 C.3   552  923552      0.1978
      9  O9       -27.6600   -3.1590  -10.0490 O.3   552  923552     -0.4766
     10  C10      -28.4510    2.3390  -10.6590 C.3   552  923552      0.0939
     11  C11      -28.6480    3.3100   -9.5830 C.2   552  923552      0.1655
     12  O12      -28.7140    3.1100   -8.3350 O.3   552  923552     -0.4247
     13  C13      -28.8740    4.2370   -7.7610 C.2   552  923552      0.3325
     14  C14      -28.9340    5.3170   -8.6570 C.3   552  923552      0.1859
     15  C15      -28.7810    4.6410   -9.8350 C.2   552  923552      0.2178
     16  C16      -29.0990    6.7710   -8.4130 C.ar  552  923552     -0.0046
     17  C17      -29.2280    7.6670   -9.4790 C.ar  552  923552     -0.0045
     18  C18      -29.3790    9.0120   -9.1740 C.ar  552  923552      0.0152
     19  C19      -29.3750    9.4810   -7.8910 C.ar  552  923552      0.1346
     20  C20      -29.2400    8.6100   -6.8220 C.ar  552  923552      0.0363
     21  C21      -29.1040    7.2490   -7.0920 C.ar  552  923552     -0.0002
     22  C22      -29.5320   10.1930  -10.0840 C.3   552  923552      0.0755
     23  C23      -29.5220   11.3960   -9.1390 C.3   552  923552      0.1978
     24  O24      -29.5080   10.8370   -7.7990 O.3   552  923552     -0.4766
     25  C25      -28.3360   12.3260   -9.3710 C.3   552  923552      0.1634
     26  C26      -28.5240   13.0830  -10.6850 C.3   552  923552      0.0367
     27  O27      -27.1270   11.5600   -9.4550 O.3   552  923552     -0.2220
     28  C28      -28.2350   13.3420   -8.2400 C.3   552  923552      0.0367
     29  C29      -27.1200   -4.2350   -7.9700 C.3   552  923552      0.1634
     30  O30      -27.6240   -4.5660   -6.6660 O.3   552  923552     -0.2220
     31  C31      -25.8100   -3.4510   -7.8940 C.3   552  923552      0.0367
     32  C32      -26.9080   -5.5460   -8.7200 C.3   552  923552      0.0367
     33  O33      -28.9690    4.3490   -6.4910 O.2   552  923552     -0.2489
     34  O34      -28.7220    5.2410  -11.1830 O.2   552  923552     -0.2875
@<TRIPOS>BOND
     1     3     4   ar
     2     3     2   ar
     3     4     5   ar
     4    34    15    1
     5    26    25    1
     6    10     2    1
     7    10    11    1
     8     2     1   ar
     9     5     9    1
    10     5     6   ar
    11    22    18    1
    12    22    23    1
    13     9     8    1
    14    15    11    2
    15    15    14    1
    16    11    12    1
    17    17    18   ar
    18    17    16   ar
    19    27    25    1
    20    25    23    1
    21    25    28    1
    22     1     6   ar
    23     6     7    1
    24    18    19   ar
    25    23    24    1
    26    32    29    1
    27     8     7    1
    28     8    29    1
    29    14    16    1
    30    14    13    1
    31    16    21   ar
    32    12    13    1
    33    29    31    1
    34    29    30    1
    35    19    24    1
    36    19    20   ar
    37    13    33    2
    38    21    20   ar
