@<TRIPOS>MOLECULE
3riy_NAD_A_1.pdb
 44 48 0 0 0
SMALL
GASTEIGER

@<TRIPOS>ATOM
      1  PA       -10.9280   -1.5870  -17.9880 P.3   2001  NAD2001     0.2189
      2  O1A      -12.1370   -0.9300  -17.3750 O.3   2001  NAD2001    -0.4371
      3  O2A      -10.0160   -0.5210  -18.4090 O.2   2001  NAD2001    -0.5170
      4  O5B      -11.3190   -2.7880  -19.0570 O.3   2001  NAD2001    -0.3112
      5  C5B      -10.7540   -2.8600  -20.3360 C.3   2001  NAD2001     0.1813
      6  C4B      -11.9360   -3.2440  -21.2470 C.3   2001  NAD2001     0.1821
      7  O4B      -11.5080   -3.1750  -22.6250 O.3   2001  NAD2001    -0.3135
      8  C3B      -12.5400   -4.6160  -21.0830 C.3   2001  NAD2001     0.2184
      9  O3B      -13.9450   -4.4730  -20.9330 O.3   2001  NAD2001    -0.2174
     10  C2B      -12.2250   -5.3390  -22.4220 C.3   2001  NAD2001     0.2570
     11  O2B      -13.2060   -6.2540  -22.8450 O.3   2001  NAD2001    -0.2130
     12  C1B      -12.2140   -4.1680  -23.3620 C.3   2001  NAD2001     0.3186
     13  N9A      -11.4970   -4.3560  -24.5900 N.pl3 2001  NAD2001    -0.1439
     14  C8A      -10.2920   -5.0240  -24.7750 C.3   2001  NAD2001     0.3377
     15  N7A       -9.8910   -4.8270  -26.0700 N.2   2001  NAD2001    -0.2095
     16  C5A      -10.7740   -4.0080  -26.6870 C.2   2001  NAD2001     0.2526
     17  C6A      -10.8240   -3.4400  -27.9570 C.2   2001  NAD2001     0.4393
     18  N6A       -9.8550   -3.5580  -28.9070 N.pl3 2001  NAD2001     0.2180
     19  N1A      -11.9050   -2.6270  -28.1890 N.2   2001  NAD2001     0.0021
     20  C2A      -12.8830   -2.3620  -27.2820 C.3   2001  NAD2001     0.5254
     21  N3A      -12.8550   -2.9110  -26.0110 N.2   2001  NAD2001    -0.0055
     22  C4A      -11.7740   -3.6850  -25.7620 C.2   2001  NAD2001     0.3518
     23  O3       -10.1800   -2.6040  -16.9060 O.3   2001  NAD2001    -0.2703
     24  PN        -8.7670   -3.2040  -16.7840 P.3   2001  NAD2001     0.2189
     25  O1N       -8.2970   -3.5020  -18.1990 O.2   2001  NAD2001    -0.5170
     26  O2N       -8.9730   -4.3040  -15.7880 O.3   2001  NAD2001    -0.4371
     27  O5D       -7.8500   -2.0130  -16.1650 O.3   2001  NAD2001    -0.3112
     28  C5D       -7.9710   -1.6000  -14.8190 C.3   2001  NAD2001     0.1813
     29  C4D       -7.7660   -0.0870  -14.7560 C.3   2001  NAD2001     0.1799
     30  O4D       -6.3940    0.2180  -15.1800 O.3   2001  NAD2001    -0.3327
     31  C3D       -8.7260    0.7660  -15.5980 C.3   2001  NAD2001     0.2158
     32  O3D       -9.0570    1.9740  -14.8720 O.3   2001  NAD2001    -0.2175
     33  C2D       -7.9430    1.1070  -16.8490 C.3   2001  NAD2001     0.2309
     34  O2D       -8.2970    2.3570  -17.5180 O.3   2001  NAD2001    -0.2158
     35  C1D       -6.4800    1.1230  -16.2780 C.3   2001  NAD2001     0.2263
     36  N1N       -5.5290    0.6970  -17.3450 N.pl3 2001  NAD2001    -0.2787
     37  C2N       -5.0270    1.6850  -18.1840 C.3   2001  NAD2001     0.1244
     38  C3N       -4.2920    1.3150  -19.3020 C.2   2001  NAD2001     0.0544
     39  C7N       -3.9440    2.4530  -20.2170 C.2   2001  NAD2001     0.2818
     40  O7N       -3.7650    3.6770  -19.6050 O.2   2001  NAD2001    -0.2670
     41  N7N       -3.9040    2.2230  -21.4750 N.am  2001  NAD2001    -0.0839
     42  C4N       -3.9320   -0.0150  -19.5930 C.2   2001  NAD2001     0.0033
     43  C5N       -4.4380   -1.0120  -18.6920 C.2   2001  NAD2001     0.0157
     44  C6N       -5.2590   -0.6130  -17.5810 C.2   2001  NAD2001     0.0633
@<TRIPOS>BOND
     1    18    17    1
     2    19    17    2
     3    19    20    1
     4    17    16    1
     5    20    21    1
     6    16    15    2
     7    16    22    1
     8    15    14    1
     9    21    22    2
    10    22    13    1
    11    14    13    1
    12    13    12    1
    13    12     7    1
    14    12    10    1
    15    11    10    1
    16     7     6    1
    17    10     8    1
    18    41    39   am
    19     6     8    1
    20     6     5    1
    21     8     9    1
    22     5     4    1
    23    39    40    2
    24    39    38    1
    25    42    38    2
    26    42    43    1
    27    38    37    1
    28     4     1    1
    29    43    44    2
    30     3     1    2
    31    25    24    2
    32    37    36    1
    33     1     2    1
    34     1    23    1
    35    44    36    1
    36    34    33    1
    37    36    35    1
    38    23    24    1
    39    33    35    1
    40    33    31    1
    41    24    27    1
    42    24    26    1
    43    35    30    1
    44    27    28    1
    45    31    32    1
    46    31    29    1
    47    30    29    1
    48    28    29    1
