@<TRIPOS>MOLECULE
3rj0_BLD_A_1.pdb
 34 37 0 0 0
SMALL
GASTEIGER

@<TRIPOS>ATOM
      1  C01       36.2990   65.6140   16.8930 C.3    17  BLD17       0.0357
      2  C02       35.0240   65.0690   16.2320 C.3    17  BLD17       0.1821
      3  O02       35.0730   65.4150   14.8820 O.3    17  BLD17      -0.2204
      4  C03       34.8270   63.6060   16.4480 C.3    17  BLD17       0.1823
      5  O03       35.7050   62.8490   15.6070 O.3    17  BLD17      -0.2204
      6  C04       34.9910   63.2570   17.8930 C.3    17  BLD17       0.0407
      7  C05       36.4080   63.5830   18.4070 C.3    17  BLD17       0.0621
      8  C06       36.3800   63.2570   19.8980 C.3    17  BLD17       0.2688
      9  O06       35.4130   62.2800   20.1280 O.3    17  BLD17      -0.1899
     10  C07       38.6350   62.9250   19.5720 C.3    17  BLD17       0.1448
     11  O07       37.5630   62.7890   20.4010 O.3    17  BLD17      -0.3285
     12  C08       39.1270   64.4430   19.4970 C.3    17  BLD17       0.0298
     13  C09       38.5080   65.1890   18.3670 C.3    17  BLD17       0.0027
     14  C10       36.8610   64.9800   18.1200 C.3    17  BLD17       0.0075
     15  C11       38.8580   66.6110   18.3930 C.3    17  BLD17       0.0001
     16  C12       40.3330   66.7590   18.2300 C.3    17  BLD17       0.0000
     17  C13       41.0910   65.9190   19.2340 C.3    17  BLD17       0.0002
     18  C14       40.6170   64.5400   19.2900 C.3    17  BLD17       0.0024
     19  C15       41.4130   63.9450   20.4040 C.3    17  BLD17       0.0001
     20  C16       42.7910   64.5200   20.1420 C.3    17  BLD17       0.0001
     21  C17       42.5790   65.6830   19.1750 C.3    17  BLD17       0.0025
     22  C18       40.8760   66.6060   20.5630 C.3    17  BLD17       0.0000
     23  C19       36.1500   65.6470   19.1960 C.3    17  BLD17       0.0003
     24  C20       43.4410   66.8230   19.5040 C.3    17  BLD17       0.0330
     25  C21       43.0970   68.1500   18.8340 C.3    17  BLD17       0.0027
     26  C22       44.8630   66.4910   18.9970 C.3    17  BLD17       0.1820
     27  O22       44.8290   66.3850   17.6400 O.3    17  BLD17      -0.2204
     28  C23       45.9390   67.5070   19.3740 C.3    17  BLD17       0.1820
     29  O23       47.2050   67.1850   18.8480 O.3    17  BLD17      -0.2204
     30  C24       46.1040   67.7220   20.8840 C.3    17  BLD17       0.0330
     31  C25       47.2020   68.7240   21.2040 C.3    17  BLD17       0.0025
     32  C26       47.0260   69.9770   20.4110 C.3    17  BLD17       0.0001
     33  C27       47.4200   68.9540   22.6950 C.3    17  BLD17       0.0001
     34  C28       46.3690   66.4540   21.6480 C.3    17  BLD17       0.0027
@<TRIPOS>BOND
     1     3     2    1
     2     5     4    1
     3     2     4    1
     4     2     1    1
     5     4     6    1
     6     1    14    1
     7    27    26    1
     8     6     7    1
     9    14    13    1
    10    14     7    1
    11    14    23    1
    12    16    15    1
    13    16    17    1
    14    13    15    1
    15    13    12    1
    16     7     8    1
    17    25    24    1
    18    29    28    1
    19    26    28    1
    20    26    24    1
    21    21    17    1
    22    21    24    1
    23    21    20    1
    24    17    18    1
    25    17    22    1
    26    18    12    1
    27    18    19    1
    28    28    30    1
    29    12    10    1
    30    10    11    1
    31     8     9    1
    32     8    11    1
    33    20    19    1
    34    32    31    1
    35    30    31    1
    36    30    34    1
    37    31    33    1
