@<TRIPOS>MOLECULE
3rj5_NAD_A_1.pdb
 44 48 0 0 0
SMALL
GASTEIGER

@<TRIPOS>ATOM
      1  PA        52.7520    0.1560    5.2340 P.3   850  NAD850      0.2189
      2  O1A       51.8030   -0.8630    4.6510 O.3   850  NAD850     -0.4371
      3  O2A       53.8230    0.8070    4.3820 O.2   850  NAD850     -0.5170
      4  O5B       53.4810   -0.4270    6.5390 O.3   850  NAD850     -0.3112
      5  C5B       52.7570   -1.1640    7.5110 C.3   850  NAD850      0.1813
      6  C4B       53.7530   -1.7400    8.5130 C.3   850  NAD850      0.1821
      7  O4B       53.0370   -2.6070    9.4050 O.3   850  NAD850     -0.3135
      8  C3B       54.8350   -2.5830    7.8460 C.3   850  NAD850      0.2184
      9  O3B       56.0470   -2.4190    8.5980 O.3   850  NAD850     -0.2174
     10  C2B       54.2680   -3.9770    7.9920 C.3   850  NAD850      0.2570
     11  O2B       55.2340   -5.0230    7.8930 O.3   850  NAD850     -0.2130
     12  C1B       53.6310   -3.8990    9.3680 C.3   850  NAD850      0.3186
     13  N9A       52.7000   -5.0210    9.5740 N.pl3 850  NAD850     -0.1439
     14  C8A       51.5580   -5.2810    8.9170 C.3   850  NAD850      0.3377
     15  N7A       51.0350   -6.4270    9.4110 N.2   850  NAD850     -0.2095
     16  C5A       51.8620   -6.8710   10.3850 C.2   850  NAD850      0.2526
     17  C6A       51.8440   -7.9760   11.2320 C.2   850  NAD850      0.4393
     18  N6A       50.8310   -8.8660   11.1650 N.pl3 850  NAD850      0.2180
     19  N1A       52.8500   -8.1480   12.1250 N.2   850  NAD850      0.0021
     20  C2A       53.8590   -7.2600   12.1940 C.3   850  NAD850      0.5254
     21  N3A       53.9080   -6.1840   11.3910 N.2   850  NAD850     -0.0055
     22  C4A       52.9100   -5.9770   10.4790 C.2   850  NAD850      0.3518
     23  O3        51.8450    1.3470    5.8450 O.3   850  NAD850     -0.2703
     24  PN        52.2660    2.7180    6.5730 P.3   850  NAD850      0.2189
     25  O1N       51.4960    3.8480    5.9560 O.2   850  NAD850     -0.5170
     26  O2N       53.7640    2.8180    6.7220 O.3   850  NAD850     -0.4371
     27  O5D       51.5840    2.4410    8.0090 O.3   850  NAD850     -0.3112
     28  C5D       52.3310    2.3400    9.2240 C.3   850  NAD850      0.1813
     29  C4D       51.3960    2.6370   10.3990 C.3   850  NAD850      0.1799
     30  O4D       50.9120    3.9850   10.2760 O.3   850  NAD850     -0.3327
     31  C3D       50.1680    1.7280   10.4000 C.3   850  NAD850      0.2158
     32  O3D       49.8040    1.3140   11.7390 O.3   850  NAD850     -0.2175
     33  C2D       49.0780    2.5980    9.7870 C.3   850  NAD850      0.2309
     34  O2D       47.7790    2.1670   10.1970 O.3   850  NAD850     -0.2158
     35  C1D       49.4780    3.9790   10.2920 C.3   850  NAD850      0.2263
     36  N1N       48.9540    5.1340    9.5650 N.pl3 850  NAD850     -0.2787
     37  C2N       49.2120    5.3470    8.2530 C.3   850  NAD850      0.1244
     38  C3N       48.6960    6.4870    7.6140 C.2   850  NAD850      0.0544
     39  C7N       48.9430    6.7700    6.1470 C.2   850  NAD850      0.2818
     40  O7N       48.3120    7.6680    5.6030 O.2   850  NAD850     -0.2670
     41  N7N       49.8480    6.0560    5.4780 N.am  850  NAD850     -0.0839
     42  C4N       47.9310    7.3930    8.3540 C.2   850  NAD850      0.0033
     43  C5N       47.7050    7.1440    9.7060 C.2   850  NAD850      0.0157
     44  C6N       48.2340    5.9960   10.2960 C.2   850  NAD850      0.0633
@<TRIPOS>BOND
     1     3     1    2
     2     2     1    1
     3     1    23    1
     4     1     4    1
     5    41    39   am
     6    40    39    2
     7    23    24    1
     8    25    24    2
     9    39    38    1
    10     4     5    1
    11    24    26    1
    12    24    27    1
    13     5     6    1
    14    38    37    1
    15    38    42    2
    16     8    10    1
    17     8     6    1
    18     8     9    1
    19    11    10    1
    20    10    12    1
    21    27    28    1
    22    37    36    1
    23    42    43    1
    24     6     7    1
    25    14    15    1
    26    14    13    1
    27    28    29    1
    28    12     7    1
    29    12    13    1
    30    15    16    2
    31    36    35    1
    32    36    44    1
    33    13    22    1
    34    43    44    2
    35    33    34    1
    36    33    35    1
    37    33    31    1
    38    30    35    1
    39    30    29    1
    40    16    22    1
    41    16    17    1
    42    29    31    1
    43    31    32    1
    44    22    21    2
    45    18    17    1
    46    17    19    2
    47    21    20    1
    48    19    20    1
