@<TRIPOS>MOLECULE
3rj6_HEM_A_1.pdb
 43 50 0 0 0
SMALL
GASTEIGER

@<TRIPOS>ATOM
      1  CHA        0.4810   16.8530    9.3980 C.2   154  HEM154      0.0000
      2  CHB        3.6100   16.0110   13.0180 C.2   154  HEM154      0.0000
      3  CHC        6.8790   14.4940    9.8130 C.2   154  HEM154      0.0000
      4  CHD        3.8020   15.4800    6.1670 C.2   154  HEM154      0.0000
      5  C1A        1.0320   16.7440   10.6780 C.2   154  HEM154      0.0000
      6  C2A        0.3880   17.0880   11.9110 C.2   154  HEM154      0.0000
      7  C3A        1.2590   16.8500   12.9370 C.2   154  HEM154      0.0000
      8  C4A        2.4780   16.3980   12.3140 C.2   154  HEM154      0.0000
      9  CMA        1.0250   17.0480   14.3810 C.3   154  HEM154      0.0000
     10  CAA       -1.1070   17.4640   12.0830 C.3   154  HEM154      0.0000
     11  CBA       -1.9510   16.2700   12.5900 C.3   154  HEM154      0.0000
     12  CGA       -1.9130   15.0410   11.7270 C.2   154  HEM154      0.0000
     13  O1A       -2.3500   15.1570   10.5520 O.co2 154  HEM154      0.0000
     14  O2A       -1.4650   13.9690   12.2440 O.co2 154  HEM154      0.0000
     15  C1B        4.7320   15.4920   12.4320 C.ar  154  HEM154      0.0000
     16  C2B        5.9260   15.1070   13.2090 C.ar  154  HEM154      0.0000
     17  C3B        6.8310   14.7190   12.3260 C.ar  154  HEM154      0.0000
     18  C4B        6.2360   14.8030   10.9710 C.ar  154  HEM154      0.0000
     19  CMB        6.0230   15.1370   14.7410 C.3   154  HEM154      0.0000
     20  CAB        8.1940   14.2290   12.5290 C.3   154  HEM154      0.0000
     21  CBB        9.0540   14.7830   13.5080 C.3   154  HEM154      0.0000
     22  C1C        6.3340   14.6480    8.5180 C.2   154  HEM154      0.0000
     23  C2C        7.0770   14.4200    7.3190 C.2   154  HEM154      0.0000
     24  C3C        6.2220   14.7400    6.2950 C.2   154  HEM154      0.0000
     25  C4C        4.9810   15.0940    6.8440 C.2   154  HEM154      0.0000
     26  CMC        8.4780   13.9410    7.2680 C.3   154  HEM154      0.0000
     27  CAC        6.5690   14.7240    4.8440 C.2   154  HEM154      0.0000
     28  CBC        7.7350   15.0340    4.3360 C.2   154  HEM154      0.0000
     29  C1D        2.6540   15.9060    6.7210 C.ar  154  HEM154      0.0000
     30  C2D        1.5060   16.3620    5.9690 C.ar  154  HEM154      0.0000
     31  C3D        0.5220   16.7730    6.9120 C.ar  154  HEM154      0.0000
     32  C4D        1.0950   16.5680    8.2370 C.ar  154  HEM154      0.0000
     33  CMD        1.3670   16.4500    4.4580 C.3   154  HEM154      0.0000
     34  CAD       -0.8220   17.4150    6.5830 C.3   154  HEM154      0.0000
     35  CBD       -0.5920   18.9540    6.4690 C.3   154  HEM154      0.0000
     36  CGD       -1.7980   19.7540    6.0360 C.2   154  HEM154      0.0000
     37  O1D       -2.1560   19.6920    4.8080 O.co2 154  HEM154      0.0000
     38  O2D       -2.3560   20.4630    6.9510 O.co2 154  HEM154      0.0000
     39  NA         2.2910   16.3330   10.9730 N.2   154  HEM154      0.0000
     40  NB         4.9730   15.3340   11.1000 N.ar  154  HEM154      0.0000
     41  NC         5.0890   15.0210    8.2320 N.2   154  HEM154      0.0000
     42  ND         2.3610   16.0460    8.0930 N.ar  154  HEM154      0.0000
     43 FE          3.6520   15.6350    9.5830 Fe    154  HEM154      0.0000
@<TRIPOS>BOND
     1    28    27    2
     2    33    30    1
     3    37    36   ar
     4    27    24    1
     5    30    29   ar
     6    30    31   ar
     7    36    35    1
     8    36    38   ar
     9     4    29    2
    10     4    25    1
    11    24    25    1
    12    24    23    2
    13    35    34    1
    14    34    31    1
    15    29    42   ar
    16    25    41    2
    17    31    32   ar
    18    26    23    1
    19    23    22    1
    20    42    32   ar
    21    42    43    1
    22    41    22    1
    23    41    43    1
    24    32     1    2
    25    22     3    2
    26     1     5    1
    27    43    39    1
    28    43    40    1
    29     3    18    1
    30    13    12   ar
    31     5    39    2
    32     5     6    1
    33    18    40   ar
    34    18    17   ar
    35    39     8    1
    36    40    15   ar
    37    12    14   ar
    38    12    11    1
    39     6    10    1
    40     6     7    2
    41    10    11    1
    42     8     7    1
    43     8     2    2
    44    17    20    1
    45    17    16   ar
    46    15     2    1
    47    15    16   ar
    48    20    21    1
    49     7     9    1
    50    16    19    1
