@<TRIPOS>MOLECULE
3rj7_RCS_A_1.pdb
 26 27 0 0 0
SMALL
GASTEIGER

@<TRIPOS>ATOM
      1  S1        15.1340    1.2350   16.7690 S.O2  302  RCS302      0.0000
      2  C1        20.8450    7.8340   13.3810 C.2   302  RCS302      0.0000
      3  O1        21.5520   11.6140   10.9730 O.3   302  RCS302      0.0000
      4 RE1        20.0780    9.9740   13.1390 Re    302  RCS302      0.0000
      5  C2        19.8150    8.0700   14.3630 C.2   302  RCS302      0.0000
      6  O2        18.4740   12.5410   13.6670 O.3   302  RCS302      0.0000
      7  C3        20.2820    9.1310   15.2350 C.2   302  RCS302      0.0000
      8  O3        18.0290    9.2740   10.9710 O.3   302  RCS302      0.0000
      9  C4        21.9520    8.7590   13.6370 C.2   302  RCS302      0.0000
     10  C5        21.5590    9.5740   14.7450 C.3   302  RCS302      0.0000
     11  C6        20.9210   11.0120   11.8020 C.3   302  RCS302      0.0000
     12  C7        19.1030   11.5210   13.6170 C.3   302  RCS302      0.0000
     13  C8        18.6830    9.6870   11.7760 C.3   302  RCS302      0.0000
     14  C9        18.5490    7.3950   14.4410 C.2   302  RCS302      0.0000
     15  N1        18.1360    6.5120   13.5030 N.am  302  RCS302      0.0000
     16  C10       16.8100    6.0240   13.5890 C.3   302  RCS302      0.0000
     17  O4        17.7470    7.7560   15.3670 O.2   302  RCS302      0.0000
     18  C11       16.5270    4.8500   14.4990 C.ar  302  RCS302      0.0000
     19  N2        15.6630   -0.0650   16.0800 N.3   302  RCS302      0.0000
     20  O5        13.6760    1.3040   16.6540 O.2   302  RCS302      0.0000
     21  C12       15.2180    4.7720   14.9340 C.ar  302  RCS302      0.0000
     22  O6        15.6890    1.3890   18.1080 O.2   302  RCS302      0.0000
     23  C13       14.8430    3.6490   15.6440 C.ar  302  RCS302      0.0000
     24  C14       15.7290    2.6030   15.8710 C.ar  302  RCS302      0.0000
     25  C15       17.1010    2.7260   15.5520 C.ar  302  RCS302      0.0000
     26  C16       17.4640    3.8910   14.8350 C.ar  302  RCS302      0.0000
@<TRIPOS>BOND
     1     8    13    1
     2     3    11    1
     3    13     4    1
     4    11     4    1
     5     4    12    1
     6     4    10    1
     7     2     9    2
     8     2     5    1
     9    15    16    1
    10    15    14   am
    11    16    18    1
    12    12     6    1
    13     9    10    1
    14     5    14    1
    15     5     7    2
    16    14    17    2
    17    18    26   ar
    18    18    21   ar
    19    10     7    1
    20    26    25   ar
    21    21    23   ar
    22    25    24   ar
    23    23    24   ar
    24    24     1    1
    25    19     1    1
    26    20     1    2
    27     1    22    2
