@<TRIPOS>MOLECULE
3rj9_NAD_A_1.pdb
 44 48 0 0 0
SMALL
GASTEIGER

@<TRIPOS>ATOM
      1  PA        27.0410   11.0180  -16.0700 P.3   850  NAD850      0.2189
      2  O1A       28.1320   11.8410  -15.4740 O.3   850  NAD850     -0.4371
      3  O2A       26.6450   11.1610  -17.5350 O.2   850  NAD850     -0.5170
      4  O5B       25.6970   11.2700  -15.2170 O.3   850  NAD850     -0.3112
      5  C5B       25.7730   11.5990  -13.8270 C.3   850  NAD850      0.1813
      6  C4B       24.3810   12.0050  -13.3460 C.3   850  NAD850      0.1821
      7  O4B       24.4300   12.2480  -11.9310 O.3   850  NAD850     -0.3135
      8  C3B       23.9420   13.3120  -13.9900 C.3   850  NAD850      0.2184
      9  O3B       22.5230   13.2750  -14.2460 O.3   850  NAD850     -0.2174
     10  C2B       24.2980   14.3150  -12.9090 C.3   850  NAD850      0.2570
     11  O2B       23.6230   15.5600  -13.0030 O.3   850  NAD850     -0.2130
     12  C1B       23.9290   13.5480  -11.6570 C.3   850  NAD850      0.3186
     13  N9A       24.5610   14.1390  -10.4630 N.pl3 850  NAD850     -0.1439
     14  C8A       25.8830   14.2170  -10.2310 C.3   850  NAD850      0.3377
     15  N7A       26.0870   14.8320   -9.0610 N.2   850  NAD850     -0.2095
     16  C5A       24.8660   15.1190   -8.5460 C.2   850  NAD850      0.2526
     17  C6A       24.4520   15.7480   -7.3840 C.2   850  NAD850      0.4393
     18  N6A       25.3790   16.1910   -6.5050 N.pl3 850  NAD850      0.2180
     19  N1A       23.1140   15.9070   -7.1480 N.2   850  NAD850      0.0021
     20  C2A       22.1920   15.4740   -8.0350 C.3   850  NAD850      0.5254
     21  N3A       22.5650   14.8600   -9.1810 N.2   850  NAD850     -0.0055
     22  C4A       23.9010   14.6880   -9.4460 C.2   850  NAD850      0.3518
     23  O3        27.4090    9.4970  -15.8310 O.3   850  NAD850     -0.2703
     24  PN        26.5230    8.1790  -16.0230 P.3   850  NAD850      0.2189
     25  O1N       27.4410    7.1200  -16.5630 O.3   850  NAD850     -0.4371
     26  O2N       25.2070    8.4930  -16.6870 O.2   850  NAD850     -0.5170
     27  O5D       26.2020    7.8500  -14.4740 O.3   850  NAD850     -0.3112
     28  C5D       24.8740    7.6470  -13.9670 C.3   850  NAD850      0.1813
     29  C4D       24.9590    6.6700  -12.7910 C.3   850  NAD850      0.1799
     30  O4D       25.3710    5.3790  -13.2580 O.3   850  NAD850     -0.3327
     31  C3D       25.9720    7.0480  -11.7150 C.3   850  NAD850      0.2158
     32  O3D       25.4970    6.5760  -10.4430 O.3   850  NAD850     -0.2175
     33  C2D       27.1910    6.2120  -12.0550 C.3   850  NAD850      0.2309
     34  O2D       27.9910    6.0060  -10.8880 O.3   850  NAD850     -0.2158
     35  C1D       26.5140    4.9330  -12.5100 C.3   850  NAD850      0.2263
     36  N1N       27.3320    3.9790  -13.2720 N.pl3 850  NAD850     -0.2787
     37  C2N       27.9080    4.3410  -14.4460 C.3   850  NAD850      0.1244
     38  C3N       28.6720    3.4290  -15.1750 C.2   850  NAD850      0.0544
     39  C7N       29.3400    3.8020  -16.4950 C.2   850  NAD850      0.2818
     40  O7N       30.1540    3.0400  -16.9810 O.2   850  NAD850     -0.2670
     41  N7N       29.0410    4.9260  -17.1420 N.am  850  NAD850     -0.0839
     42  C4N       28.8100    2.1350  -14.6620 C.2   850  NAD850      0.0033
     43  C5N       28.1950    1.7790  -13.4550 C.2   850  NAD850      0.0157
     44  C6N       27.4380    2.7270  -12.7790 C.2   850  NAD850      0.0633
@<TRIPOS>BOND
     1     3     1    2
     2    41    39   am
     3    40    39    2
     4    26    24    2
     5    25    24    1
     6    39    38    1
     7     1    23    1
     8     1     2    1
     9     1     4    1
    10    24    23    1
    11    24    27    1
    12     4     5    1
    13    38    42    2
    14    38    37    1
    15    42    43    1
    16    27    28    1
    17    37    36    1
    18     9     8    1
    19     8     6    1
    20     8    10    1
    21    28    29    1
    22     5     6    1
    23    43    44    2
    24     6     7    1
    25    36    44    1
    26    36    35    1
    27    30    29    1
    28    30    35    1
    29    11    10    1
    30    10    12    1
    31    29    31    1
    32    35    33    1
    33    33    31    1
    34    33    34    1
    35     7    12    1
    36    31    32    1
    37    12    13    1
    38    13    14    1
    39    13    22    1
    40    14    15    1
    41    22    21    2
    42    22    16    1
    43    21    20    1
    44    15    16    2
    45    16    17    1
    46    20    19    1
    47    17    19    2
    48    17    18    1
