@<TRIPOS>MOLECULE
3rja_ABL_A_1.pdb
 23 24 0 0 0
SMALL
GASTEIGER

@<TRIPOS>ATOM
      1  C1       -10.3700  -33.9160   16.0560 C.1   604  ABL604      0.1594
      2  O1       -11.1400  -33.1060   16.6220 O.2   604  ABL604     -0.2244
      3  C2        -8.9170  -34.0980   16.5410 C.3   604  ABL604      0.2885
      4  O2        -8.4600  -32.8310   17.0120 O.3   604  ABL604     -0.2021
      5  C3        -7.9660  -34.6510   15.4500 C.3   604  ABL604      0.2271
      6  O3        -6.7540  -35.0710   16.1250 O.3   604  ABL604     -0.2165
      7  C4        -8.5960  -35.8680   14.8010 C.3   604  ABL604      0.1774
      8  O4        -7.7230  -36.4540   13.8020 O.3   604  ABL604     -0.3262
      9  C5        -9.9310  -35.4410   14.0980 C.3   604  ABL604      0.1771
     10  N5       -10.8070  -34.6630   15.0140 N.2   604  ABL604     -0.2009
     11  C6       -10.7760  -36.6560   13.6350 C.3   604  ABL604      0.2096
     12  O6       -11.6350  -36.3630   12.5170 O.3   604  ABL604     -0.2181
     13  C1A       -6.9170  -37.6160   14.1510 C.3   604  ABL604      0.2695
     14  C2A       -6.5740  -38.4360   12.8820 C.3   604  ABL604      0.2406
     15  O2A       -7.7980  -38.8450   12.2600 O.3   604  ABL604     -0.2149
     16  C3A       -5.7020  -39.6360   13.2740 C.3   604  ABL604      0.2198
     17  O3A       -5.3400  -40.4130   12.1330 O.3   604  ABL604     -0.2174
     18  C4A       -4.4520  -39.1190   14.0570 C.3   604  ABL604      0.2144
     19  O4A       -3.5870  -40.1780   14.4410 O.3   604  ABL604     -0.2176
     20  C5A       -4.9030  -38.3360   15.2960 C.3   604  ABL604      0.1835
     21  O5A       -5.7430  -37.2410   14.8560 O.3   604  ABL604     -0.3256
     22  C6A       -3.7240  -37.8370   16.1400 C.3   604  ABL604      0.2142
     23  O6A       -2.7900  -37.0870   15.4320 O.3   604  ABL604     -0.2176
@<TRIPOS>BOND
     1    17    16    1
     2    15    14    1
     3    12    11    1
     4    14    16    1
     5    14    13    1
     6    16    18    1
     7    11     9    1
     8     8    13    1
     9     8     7    1
    10    18    19    1
    11    18    20    1
    12     9     7    1
    13     9    10    1
    14    13    21    1
    15     7     5    1
    16    21    20    1
    17    10     1    2
    18    20    22    1
    19    23    22    1
    20     5     6    1
    21     5     3    1
    22     1     3    1
    23     1     2    2
    24     3     4    1
