@<TRIPOS>MOLECULE
3rjc_06Z_A_1.pdb
 22 24 0 0 0
SMALL
GASTEIGER

@<TRIPOS>ATOM
      1  F        114.0100   49.0010  -44.7830 F     450  06Z450     -0.2041
      2  N1       118.3270   46.1870  -49.8130 N.2   450  06Z450     -0.3642
      3  C2       119.4320   45.4120  -50.0910 C.2   450  06Z450      0.2162
      4  N3       119.9130   45.3890  -51.3240 N.pl3 450  06Z450     -0.0965
      5  C4       119.9790   44.6580  -49.0250 C.3   450  06Z450      0.1864
      6  C5       121.1320   43.7530  -49.1220 C.2   450  06Z450      0.1913
      7  C6       121.6050   42.9450  -47.9310 C.ar  450  06Z450      0.0360
      8  C7       120.6640   42.1670  -47.1220 C.ar  450  06Z450      0.0029
      9  C8       121.1120   41.3910  -46.0040 C.ar  450  06Z450      0.0001
     10  C9       122.5130   41.3730  -45.6730 C.ar  450  06Z450      0.0000
     11  C10      123.4600   42.1330  -46.4620 C.ar  450  06Z450      0.0001
     12  C11      123.0100   42.9180  -47.5900 C.ar  450  06Z450      0.0029
     13  O12      121.7370   43.6010  -50.2120 O.2   450  06Z450     -0.2899
     14  S13      119.0150   45.0010  -47.6040 S.3   450  06Z450     -0.0494
     15  C14      117.9920   46.0660  -48.5620 C.2   450  06Z450      0.2328
     16  N15      116.8920   46.7440  -48.0830 N.pl3 450  06Z450     -0.1781
     17  C16      116.2540   46.8220  -46.8120 C.ar  450  06Z450      0.0758
     18  C17      115.4060   47.9440  -46.4370 C.ar  450  06Z450      0.0462
     19  C18      114.7900   47.9490  -45.1120 C.ar  450  06Z450      0.1414
     20  C19      114.9870   46.8850  -44.1570 C.ar  450  06Z450      0.0297
     21  C20      115.8310   45.7620  -44.5380 C.ar  450  06Z450      0.0036
     22  C21      116.4580   45.7260  -45.8500 C.ar  450  06Z450      0.0168
@<TRIPOS>BOND
     1     4     3    1
     2    13     6    2
     3     3     2    2
     4     3     5    1
     5     2    15    2
     6     6     5    1
     7     6     7    1
     8     5    14    1
     9    15    16    1
    10    15    14    1
    11    16    17    1
    12     7    12   ar
    13     7     8   ar
    14    12    11   ar
    15     8     9   ar
    16    17    18   ar
    17    17    22   ar
    18    11    10   ar
    19    18    19   ar
    20     9    10   ar
    21    22    21   ar
    22    19     1    1
    23    19    20   ar
    24    21    20   ar
