@<TRIPOS>MOLECULE
3rjf_F2A_A_1.pdb
 30 32 0 0 0
SMALL
GASTEIGER

@<TRIPOS>ATOM
      1  PA         5.2820    5.7170   14.9700 P.3   338  F2A338      0.3820
      2  O1A        4.0870    5.6490   15.8660 O.3   338  F2A338     -0.1392
      3  O2A        6.5990    6.1290   15.5310 O.2   338  F2A338     -0.2548
      4  C3A        5.5760    3.9560   14.4250 C.3   338  F2A338      0.2357
      5  O5'        4.8860    6.6650   13.7470 O.3   338  F2A338     -0.2896
      6  PB         4.2100    2.8510   13.8050 P.3   338  F2A338      0.3895
      7  O1B        4.5450    2.6120   12.3890 O.2   338  F2A338     -0.2544
      8  O2B        2.9300    3.4920   14.1550 O.3   338  F2A338     -0.1388
      9  O3B        4.3790    1.5560   14.5740 O.3   338  F2A338     -0.2026
     10  PG         4.2710    1.4230   16.0870 P.3   338  F2A338      0.5389
     11  O1G        5.6080    1.0240   16.5970 O.3   338  F2A338     -0.1143
     12  O2G        3.0960    0.5870   16.4130 O.2   338  F2A338     -0.2220
     13  O3G        3.9910    2.7620   16.6560 O.3   338  F2A338     -0.1143
     14  C5'        3.6880    6.4400   13.0080 C.3   338  F2A338      0.1835
     15  C4'        3.9040    6.7050   11.5420 C.3   338  F2A338      0.1795
     16  O4'        4.7310    7.8780   11.3420 O.3   338  F2A338     -0.3155
     17  C1'        5.4280    7.7560   10.1060 C.3   338  F2A338      0.2873
     18  N9         6.8650    7.8340   10.3740 N.pl3 338  F2A338     -0.1460
     19  C4         7.8510    8.1620    9.4720 C.2   338  F2A338      0.3518
     20  N3         7.6950    8.5330    8.1880 N.2   338  F2A338     -0.0055
     21  C2         8.8790    8.7630    7.6170 C.3   338  F2A338      0.5254
     22  N1        10.1130    8.6510    8.1440 N.2   338  F2A338      0.0021
     23  C6        10.2300    8.2480    9.4300 C.2   338  F2A338      0.4393
     24  N6        11.4490    8.0700    9.9360 N.pl3 338  F2A338      0.2180
     25  C5         9.0490    8.0140   10.1530 C.2   338  F2A338      0.2526
     26  N7         8.8220    7.6430   11.4700 N.2   338  F2A338     -0.2095
     27  C8         7.5170    7.5550   11.5520 C.3   338  F2A338      0.3377
     28  C2'        5.0450    6.3950    9.5180 C.3   338  F2A338      0.1151
     29  C3'        4.6550    5.6340   10.7780 C.3   338  F2A338      0.1883
     30  O3'        3.7950    4.5340   10.5060 O.3   338  F2A338     -0.2202
@<TRIPOS>BOND
     1    21    22    1
     2    21    20    1
     3    22    23    2
     4    20    19    2
     5    23    24    1
     6    23    25    1
     7    19    25    1
     8    19    18    1
     9    28    17    1
    10    28    29    1
    11    17    18    1
    12    17    16    1
    13    25    26    2
    14    18    27    1
    15    30    29    1
    16    29    15    1
    17    16    15    1
    18    26    27    1
    19    15    14    1
    20     7     6    2
    21    14     5    1
    22     5     1    1
    23     6     8    1
    24     6     4    1
    25     6     9    1
    26     4     1    1
    27     9    10    1
    28     1     3    2
    29     1     2    1
    30    10    12    2
    31    10    11    1
    32    10    13    1
