@<TRIPOS>MOLECULE
3rjh_6CF_A_1.pdb
 30 31 0 0 0
SMALL
GASTEIGER

@<TRIPOS>ATOM
      1  N1         6.7210    7.4610   10.6130 N.am  401  6CF401     -0.1802
      2  P1         5.0980    5.3780   15.1440 P.3   401  6CF401      0.4410
      3  C2         7.6250    7.8610    9.6120 C.1   401  6CF401      0.2756
      4  O2         7.1860    8.2150    8.5040 O.2   401  6CF401     -0.1925
      5  P2         4.0170    2.6880   14.1030 P.3   401  6CF401      0.4486
      6  N3         8.9550    7.8570    9.8810 N.2   401  6CF401     -0.3024
      7  P3         3.8940    1.2770   16.3960 P.3   401  6CF401      0.5390
      8  C4         9.3920    7.4830   11.0860 C.2   401  6CF401      0.2346
      9  N4        10.7090    7.4690   11.2960 N.pl3 401  6CF401     -0.0921
     10  C5         8.4980    7.1010   12.1270 C.2   401  6CF401      0.0687
     11  C6         7.1850    7.1080   11.8530 C.2   401  6CF401      0.0835
     12  C1'        5.2750    7.4020   10.2910 C.3   401  6CF401      0.2090
     13  F1A        6.2210    3.7740   13.5110 F     401  6CF401     -0.1787
     14  O1A        3.8760    5.4000   15.9970 O.3   401  6CF401     -0.1352
     15  O1B        4.1710    2.2440   12.6950 O.2   401  6CF401     -0.2488
     16  O1G        3.6010    2.6420   16.9060 O.3   401  6CF401     -0.1143
     17  C2'        4.8720    6.0420    9.7070 C.3   401  6CF401      0.0874
     18  F2A        6.0490    3.0480   15.5380 F     401  6CF401     -0.1787
     19  O2A        6.3510    5.9560   15.6970 O.2   401  6CF401     -0.2492
     20  O2B        2.7380    3.3260   14.5200 O.3   401  6CF401     -0.1349
     21  O2G        4.9790    0.4840   17.0380 O.3   401  6CF401     -0.1143
     22  C3'        4.4480    5.2990   10.9670 C.3   401  6CF401      0.1857
     23  O3'        3.5620    4.2180   10.6930 O.3   401  6CF401     -0.2203
     24  C3A        5.4110    3.7030   14.5610 C.3   401  6CF401      0.4484
     25  O3B        4.1670    1.4060   14.9060 O.3   401  6CF401     -0.1990
     26  O3G        2.6470    0.4920   16.5770 O.2   401  6CF401     -0.2220
     27  C4'        3.7080    6.3900   11.7150 C.3   401  6CF401      0.1773
     28  O4'        4.5190    7.5700   11.4870 O.3   401  6CF401     -0.3339
     29  C5'        3.4940    6.1240   13.1890 C.3   401  6CF401      0.1836
     30  O5'        4.6910    6.3380   13.9330 O.3   401  6CF401     -0.2860
@<TRIPOS>BOND
     1     4     3    2
     2     3     6    2
     3     3     1   am
     4    17    12    1
     5    17    22    1
     6     6     8    2
     7    12     1    1
     8    12    28    1
     9     1    11    1
    10    23    22    1
    11    22    27    1
    12     8     9    1
    13     8    10    1
    14    28    27    1
    15    27    29    1
    16    11    10    2
    17    15     5    2
    18    29    30    1
    19    13    24    1
    20    30     2    1
    21     5    20    1
    22     5    24    1
    23     5    25    1
    24    24     2    1
    25    24    18    1
    26    25     7    1
    27     2    19    2
    28     2    14    1
    29     7    26    2
    30     7    16    1
    31     7    21    1
