@<TRIPOS>MOLECULE
3rji_6CF_A_1.pdb
 30 31 0 0 0
SMALL
GASTEIGER

@<TRIPOS>ATOM
      1  N1         6.5940    7.3480   10.7320 N.am  401  6CF401     -0.1802
      2  P1         4.9780    5.3570   15.2560 P.3   401  6CF401      0.4410
      3  C2         7.4760    7.7740    9.7200 C.1   401  6CF401      0.2756
      4  O2         7.0040    8.1540    8.6360 O.2   401  6CF401     -0.1925
      5  P2         3.8670    2.6450   14.2310 P.3   401  6CF401      0.4486
      6  N3         8.8100    7.7610    9.9470 N.2   401  6CF401     -0.3024
      7  P3         3.6600    1.2120   16.5250 P.3   401  6CF401      0.5390
      8  C4         9.2850    7.3400   11.1230 C.2   401  6CF401      0.2346
      9  N4        10.6120    7.2870   11.2680 N.pl3 401  6CF401     -0.0921
     10  C5         8.4190    6.9370   12.1910 C.2   401  6CF401      0.0687
     11  C6         7.0870    6.9540   11.9520 C.2   401  6CF401      0.0835
     12  C1'        5.1420    7.3210   10.4260 C.3   401  6CF401      0.2090
     13  F1A        6.1180    3.8050   13.6460 F     401  6CF401     -0.1787
     14  O1A        3.7920    5.3550   16.1550 O.3   401  6CF401     -0.1352
     15  O1B        4.0180    2.2340   12.8100 O.2   401  6CF401     -0.2488
     16  O1G        4.8370    0.6270   17.2210 O.3   401  6CF401     -0.1143
     17  C2'        4.6710    5.9820    9.8410 C.3   401  6CF401      0.0874
     18  F2A        5.9650    3.0440   15.6640 F     401  6CF401     -0.1787
     19  O2A        6.2520    5.9550   15.7630 O.2   401  6CF401     -0.2492
     20  O2B        2.5990    3.2780   14.6640 O.3   401  6CF401     -0.1349
     21  O2G        2.3400    0.5360   16.6490 O.2   401  6CF401     -0.2220
     22  C3'        4.2270    5.2560   11.1080 C.3   401  6CF401      0.1857
     23  O3'        3.3190    4.1820   10.8560 O.3   401  6CF401     -0.2203
     24  C3A        5.2940    3.6860   14.6910 C.3   401  6CF401      0.4484
     25  O3B        3.9920    1.3670   15.0380 O.3   401  6CF401     -0.1990
     26  O3G        3.5070    2.5680   17.1030 O.3   401  6CF401     -0.1143
     27  C4'        3.5390    6.3810   11.8580 C.3   401  6CF401      0.1773
     28  O4'        4.4020    7.5310   11.6190 O.3   401  6CF401     -0.3339
     29  C5'        3.3300    6.1370   13.3370 C.3   401  6CF401      0.1836
     30  O5'        4.5420    6.3360   14.0660 O.3   401  6CF401     -0.2860
@<TRIPOS>BOND
     1     4     3    2
     2     3     6    2
     3     3     1   am
     4    17    12    1
     5    17    22    1
     6     6     8    2
     7    12     1    1
     8    12    28    1
     9     1    11    1
    10    23    22    1
    11    22    27    1
    12     8     9    1
    13     8    10    1
    14    28    27    1
    15    27    29    1
    16    11    10    2
    17    15     5    2
    18    29    30    1
    19    13    24    1
    20    30     2    1
    21     5    20    1
    22     5    24    1
    23     5    25    1
    24    24     2    1
    25    24    18    1
    26    25     7    1
    27     2    19    2
    28     2    14    1
    29     7    21    2
    30     7    26    1
    31     7    16    1
