@<TRIPOS>MOLECULE
3rjk_6CF_A_1.pdb
 30 31 0 0 0
SMALL
GASTEIGER

@<TRIPOS>ATOM
      1  N1         6.7340    7.5350   10.4580 N.am  338  6CF338     -0.1802
      2  P1         5.2470    5.4110   14.9980 P.3   338  6CF338      0.4410
      3  C2         7.5670    7.9190    9.4080 C.1   338  6CF338      0.2756
      4  O2         7.0560    8.2640    8.3350 O.2   338  6CF338     -0.1925
      5  P2         4.1420    2.7030   13.9760 P.3   338  6CF338      0.4486
      6  N3         8.9020    7.9080    9.5830 N.2   338  6CF338     -0.3024
      7  P3         3.9890    1.2280   16.2270 P.3   338  6CF338      0.5390
      8  C4         9.4190    7.5390   10.7530 C.2   338  6CF338      0.2346
      9  N4        10.7420    7.4760   10.8510 N.pl3 338  6CF338     -0.0921
     10  C5         8.5970    7.1990   11.8650 C.2   338  6CF338      0.0687
     11  C6         7.2690    7.2120   11.6750 C.2   338  6CF338      0.0835
     12  C1'        5.2780    7.4540   10.1990 C.3   338  6CF338      0.2090
     13  F1A        6.3370    3.8090   13.3790 F     338  6CF338     -0.1787
     14  O1A        4.0880    5.4560   15.9290 O.3   338  6CF338     -0.1352
     15  O1B        4.3010    2.2900   12.5560 O.2   338  6CF338     -0.2488
     16  O1G        5.1790    0.6130   16.8570 O.3   338  6CF338     -0.1143
     17  C2'        4.8760    6.0990    9.6090 C.3   338  6CF338      0.0874
     18  F2A        6.2130    3.0820   15.3760 F     338  6CF338     -0.1787
     19  O2A        6.5350    5.9920   15.4530 O.2   338  6CF338     -0.2492
     20  O2B        2.8650    3.3260   14.4050 O.3   338  6CF338     -0.1349
     21  O2G        2.6780    0.5580   16.3680 O.2   338  6CF338     -0.2220
     22  C3'        4.4000    5.3530   10.8510 C.3   338  6CF338      0.1857
     23  O3'        3.4400    4.3530   10.5350 O.3   338  6CF338     -0.2203
     24  C3A        5.5360    3.7280   14.4310 C.3   338  6CF338      0.4484
     25  O3B        4.2870    1.4150   14.7550 O.3   338  6CF338     -0.1990
     26  O3G        3.8470    2.5840   16.8190 O.3   338  6CF338     -0.1143
     27  C4'        3.7200    6.4570   11.6350 C.3   338  6CF338      0.1773
     28  O4'        4.5640    7.6150   11.4150 O.3   338  6CF338     -0.3339
     29  C5'        3.5570    6.1650   13.1090 C.3   338  6CF338      0.1836
     30  O5'        4.7840    6.3690   13.8030 O.3   338  6CF338     -0.2860
@<TRIPOS>BOND
     1     4     3    2
     2     3     6    2
     3     3     1   am
     4     6     8    2
     5    17    12    1
     6    17    22    1
     7    12     1    1
     8    12    28    1
     9     1    11    1
    10    23    22    1
    11     8     9    1
    12     8    10    1
    13    22    27    1
    14    28    27    1
    15    27    29    1
    16    11    10    2
    17    15     5    2
    18    29    30    1
    19    13    24    1
    20    30     2    1
    21     5    20    1
    22     5    24    1
    23     5    25    1
    24    24     2    1
    25    24    18    1
    26    25     7    1
    27     2    19    2
    28     2    14    1
    29     7    21    2
    30     7    26    1
    31     7    16    1
