@<TRIPOS>MOLECULE
3rjm_III_E_1.pdb
 44 44 0 0 0
SMALL
GASTEIGER

@<TRIPOS>ATOM
      1  C         -3.2040  -19.1050   31.5750 C.2   401  ACE401      0.2423
      2  O         -4.2420  -19.5790   32.0350 O.2   401  ACE401     -0.2733
      3  CH3       -2.5280  -19.7670   30.4130 C.3   401  ACE401      0.0964
      4  N         -2.8100  -17.8550   31.8310 N.am  402  VAL402     -0.1978
      5  CA        -3.3330  -17.0660   32.9570 C.3   402  VAL402      0.1726
      6  C         -3.8520  -15.6840   32.4880 C.2   402  VAL402      0.2616
      7  O         -3.4610  -15.1860   31.4180 O.2   402  VAL402     -0.2715
      8  CB        -2.2800  -16.9080   34.1060 C.3   402  VAL402      0.0290
      9  CG1       -1.5630  -18.2150   34.3410 C.3   402  VAL402      0.0023
     10  CG2       -1.2830  -15.7980   33.8100 C.3   402  VAL402      0.0023
     11  N         -4.7380  -15.0790   33.2830 N.am  403  ASP403     -0.1957
     12  CA        -5.3970  -13.8470   32.8850 C.3   403  ASP403      0.1840
     13  C         -4.7120  -12.6480   33.5680 C.2   403  ASP403      0.2622
     14  O         -4.4510  -12.6600   34.7750 O.2   403  ASP403     -0.2715
     15  CB        -6.9020  -13.9310   33.1710 C.3   403  ASP403      0.1450
     16  CG        -7.6300  -14.9260   32.2390 C.2   403  ASP403      0.3671
     17  OD1       -7.3610  -14.9060   31.0240 O.co2 403  ASP403     -0.2456
     18  OD2       -8.4870  -15.7200   32.6980 O.co2 403  ASP403     -0.2456
     19  N         -4.3910  -11.6310   32.7670 N.am  404  VAL404     -0.1964
     20  CA        -3.6930  -10.4420   33.2410 C.3   404  VAL404      0.1712
     21  C         -4.4550   -9.1870   32.7740 C.2   404  VAL404      0.2459
     22  O         -5.1810   -9.2260   31.7720 O.2   404  VAL404     -0.2730
     23  CB        -2.1920  -10.3960   32.7510 C.3   404  VAL404      0.0289
     24  CG1       -1.3460  -11.5110   33.3970 C.3   404  VAL404      0.0023
     25  CG2       -2.0910  -10.4670   31.2320 C.3   404  VAL404      0.0023
     26  C         -4.4430   -6.0960   31.9890 C.2   405  PRO405      0.2623
     27  N         -4.3140   -8.0740   33.5160 N.am  405  PRO405     -0.2696
     28  O         -3.2380   -6.0910   31.7290 O.2   405  PRO405     -0.2715
     29  CA        -4.9500   -6.7830   33.2250 C.3   405  PRO405      0.1810
     30  CB        -4.6760   -5.8970   34.4360 C.3   405  PRO405      0.1438
     31  CD        -3.6590   -7.9770   34.8430 C.3   405  PRO405      0.0965
     32  CG        -3.4650   -6.4970   35.1070 C.3   405  PRO405      0.0533
     33  OB1       -5.8150   -5.9880   35.2870 O.3   405  PRO405     -0.3565
     34  CB2       -5.7850   -5.1390   36.4430 C.3   405  PRO405      0.1154
     35  CB3       -5.6900   -3.6660   36.0390 C.3   405  PRO405      0.0320
     36  CB4       -7.0240   -5.4150   37.2950 C.3   405  PRO405      0.0320
     37  C         -5.1440   -3.1540   30.3510 C.2   406  ASJ406      0.2293
     38  N         -5.3650   -5.4820   31.2450 N.am  406  ASJ406     -0.1971
     39  O         -4.3610   -2.3700   29.8430 O.2   406  ASJ406     -0.2864
     40  CA        -5.0450   -4.6510   30.0690 C.3   406  ASJ406      0.1709
     41  CB        -5.9940   -4.9910   28.9040 C.3   406  ASJ406      0.1436
     42  CG        -5.2550   -5.3580   27.6290 C.2   406  ASJ406      0.3671
     43  OD1       -4.0250   -5.5540   27.6850 O.co2 406  ASJ406     -0.2456
     44  OD2       -5.9060   -5.4610   26.5670 O.co2 406  ASJ406     -0.2456
@<TRIPOS>BOND
     1    44    42   ar
     2    42    43   ar
     3    42    41    1
     4    41    40    1
     5    39    37    2
     6    40    37    1
     7    40    38    1
     8     3     1    1
     9    17    16   ar
    10    25    23    1
    11    38    26   am
    12     7     6    2
    13     1     4   am
    14     1     2    2
    15    28    26    2
    16    22    21    2
    17     4     5    1
    18    26    29    1
    19    16    18   ar
    20    16    15    1
    21     6     5    1
    22     6    11   am
    23    23    20    1
    24    23    24    1
    25    19    20    1
    26    19    13   am
    27    21    20    1
    28    21    27   am
    29    12    15    1
    30    12    11    1
    31    12    13    1
    32     5     8    1
    33    29    27    1
    34    29    30    1
    35    27    31    1
    36    13    14    2
    37    10     8    1
    38     8     9    1
    39    30    32    1
    40    30    33    1
    41    31    32    1
    42    33    34    1
    43    35    34    1
    44    34    36    1
