@<TRIPOS>MOLECULE
3rjn_HE5_B_1.pdb
 41 48 0 0 0
SMALL
GASTEIGER

@<TRIPOS>ATOM
      1  O1A       13.1280   -7.1530    8.3890 O.2   201  HE5201      0.0000
      2  CGA       13.6980   -7.5280    9.4190 C.2   201  HE5201      0.0000
      3  O2A       15.1820   -7.7650    9.4050 O.3   201  HE5201      0.0000
      4  C40       16.1480   -7.2070   10.3150 C.3   201  HE5201      0.0000
      5  CBA       12.8260   -7.7550   10.6440 C.3   201  HE5201      0.0000
      6  CAA       11.4430   -7.0670   10.5490 C.3   201  HE5201      0.0000
      7  C2A       11.5190   -5.5380   10.6490 C.2   201  HE5201      0.0000
      8  C1A       10.7330   -4.6130    9.9560 C.2   201  HE5201      0.0000
      9  CHA        9.5980   -4.9450    9.0650 C.2   201  HE5201      0.0000
     10  C3A       12.4110   -4.8110   11.4080 C.2   201  HE5201      0.0000
     11  CMA       13.4910   -5.3490   12.3400 C.3   201  HE5201      0.0000
     12  C4A       12.1570   -3.4700   11.1840 C.2   201  HE5201      0.0000
     13  NA        10.9960   -3.2360   10.3370 N.2   201  HE5201      0.0000
     14  CHB       12.8860   -2.3480   11.8590 C.2   201  HE5201      0.0000
     15  C1B       12.8560   -1.0100   11.2300 C.ar  201  HE5201      0.0000
     16  C2B       13.5500    0.0430   11.8270 C.ar  201  HE5201      0.0000
     17  C3B       13.2760    1.1300   11.0370 C.ar  201  HE5201      0.0000
     18  CAB       13.8670    2.4680   11.4640 C.3   201  HE5201      0.0000
     19  NB        12.2060   -0.5410   10.1380 N.ar  201  HE5201      0.0000
     20 ZN         11.0650   -1.7660    8.7450 Zn    201  HE5201      0.0000
     21  ND         9.1510   -2.6130    8.1070 N.ar  201  HE5201      0.0000
     22  C4D        9.0290   -4.0540    8.0080 C.ar  201  HE5201      0.0000
     23  C4B       12.4760    0.7570    9.9800 C.ar  201  HE5201      0.0000
     24  CHC       12.0270    1.7480    8.9760 C.2   201  HE5201      0.0000
     25  C1C       10.8700    1.3030    8.1550 C.2   201  HE5201      0.0000
     26  C2C       10.1700    2.2510    7.4170 C.2   201  HE5201      0.0000
     27  C3C        9.2140    1.5350    6.7320 C.2   201  HE5201      0.0000
     28  CAC        8.2650    2.3460    5.8830 C.3   201  HE5201      0.0000
     29  NC        10.3130    0.0820    7.9490 N.2   201  HE5201      0.0000
     30  C4C        9.3030    0.1810    7.0580 C.2   201  HE5201      0.0000
     31  CHD        8.3390   -0.7850    6.4680 C.2   201  HE5201      0.0000
     32  C1D        8.4580   -2.2190    6.8660 C.ar  201  HE5201      0.0000
     33  C2D        7.8310   -3.3110    6.2420 C.ar  201  HE5201      0.0000
     34  CMD        6.9540   -3.3440    4.9970 C.3   201  HE5201      0.0000
     35  C3D        8.1700   -4.4270    6.9650 C.ar  201  HE5201      0.0000
     36  CAD        7.7060   -5.8040    6.5680 C.3   201  HE5201      0.0000
     37  CBD        7.0870   -6.5260    7.7470 C.3   201  HE5201      0.0000
     38  CGD        5.6070   -6.6180    7.5510 C.2   201  HE5201      0.0000
     39  O1D        5.0330   -7.6640    7.2350 O.2   201  HE5201      0.0000
     40  O2D        4.8510   -5.4190    7.8210 O.3   201  HE5201      0.0000
     41  C41        3.9450   -5.5020    8.9450 C.3   201  HE5201      0.0000
@<TRIPOS>BOND
     1    34    33    1
     2    28    27    1
     3    33    32   ar
     4    33    35   ar
     5    31    32    2
     6    31    30    1
     7    36    35    1
     8    36    37    1
     9    27    30    1
    10    27    26    2
    11    32    21   ar
    12    35    22   ar
    13    30    29    2
    14    39    38    2
    15    26    25    1
    16    38    37    1
    17    38    40    1
    18    40    41    1
    19    29    25    1
    20    29    20    1
    21    22    21   ar
    22    22     9    2
    23    21    20    1
    24    25    24    2
    25     1     2    2
    26    20    19    1
    27    20    13    1
    28    24    23    1
    29     9     8    1
    30     3     2    1
    31     3     4    1
    32     2     5    1
    33     8    13    2
    34     8     7    1
    35    23    19   ar
    36    23    17   ar
    37    19    15   ar
    38    13    12    1
    39     6     5    1
    40     6     7    1
    41     7    10    2
    42    17    18    1
    43    17    16   ar
    44    12    10    1
    45    12    14    2
    46    15    16   ar
    47    15    14    1
    48    10    11    1
