@<TRIPOS>MOLECULE
3rju_CIT_A_1.pdb
 13 12 0 0 0
SMALL
GASTEIGER

@<TRIPOS>ATOM
      1  C1        36.1940   42.7200   19.7140 C.2   391  CIT391      0.3680
      2  O1        36.0350   43.7490   19.0080 O.co2 391  CIT391     -0.2455
      3  O2        37.2850   42.1350   19.6570 O.co2 391  CIT391     -0.2455
      4  C2        35.1050   42.1960   20.6190 C.3   391  CIT391      0.1560
      5  C3        34.3310   41.0740   19.9180 C.3   391  CIT391      0.2402
      6  O7        35.2420   39.9700   19.7020 O.3   391  CIT391     -0.2129
      7  C4        33.7800   41.5450   18.5690 C.3   391  CIT391      0.1560
      8  C5        32.9830   40.4610   17.8680 C.2   391  CIT391      0.3680
      9  O3        32.1150   40.7390   17.0180 O.co2 391  CIT391     -0.2455
     10  O4        33.1970   39.2530   18.1440 O.co2 391  CIT391     -0.2455
     11  C6        33.2170   40.6160   20.8370 C.2   391  CIT391      0.3927
     12  O5        32.2030   41.3290   20.9740 O.co2 391  CIT391     -0.2429
     13  O6        33.3470   39.5330   21.4740 O.co2 391  CIT391     -0.2429
@<TRIPOS>BOND
     1     9     8   ar
     2     8    10   ar
     3     8     7    1
     4     7     5    1
     5     2     1   ar
     6     3     1   ar
     7     6     5    1
     8     1     4    1
     9     5     4    1
    10     5    11    1
    11    11    12   ar
    12    11    13   ar
