@<TRIPOS>MOLECULE
3rjw_SAH_A_1.pdb
 26 28 0 0 0
SMALL
GASTEIGER

@<TRIPOS>ATOM
      1  N        -15.9700   -1.7320   46.7480 N.3   1198  SAH1198    -0.1208
      2  CA       -15.7080   -0.8950   45.5910 C.3   1198  SAH1198     0.1952
      3  CB       -14.2130   -0.7910   45.3200 C.3   1198  SAH1198     0.0422
      4  CG       -13.4970    0.0660   46.3590 C.3   1198  SAH1198     0.0597
      5  SD       -13.3960    1.8160   45.8610 S.3   1198  SAH1198    -0.1375
      6  C        -16.5600   -1.2600   44.3820 C.2   1198  SAH1198     0.3819
      7  O        -16.4150   -0.7230   43.2960 O.co2 1198  SAH1198    -0.2441
      8  OXT      -17.5210   -2.1680   44.5180 O.co2 1198  SAH1198    -0.2441
      9  C5'      -13.9770    2.6480   47.3780 C.3   1198  SAH1198     0.0899
     10  C4'      -15.4610    2.3400   47.7570 C.3   1198  SAH1198     0.1630
     11  O4'      -15.6870    0.9520   48.1450 O.3   1198  SAH1198    -0.3153
     12  C3'      -15.8390    3.0820   49.0140 C.3   1198  SAH1198     0.2168
     13  O3'      -16.1230    4.4110   48.6830 O.3   1198  SAH1198    -0.2175
     14  C2'      -17.1180    2.2730   49.4040 C.3   1198  SAH1198     0.2569
     15  O2'      -18.1740    2.3940   48.4390 O.3   1198  SAH1198    -0.2130
     16  C1'      -16.5810    0.8500   49.2880 C.3   1198  SAH1198     0.3185
     17  N9       -15.8190    0.4250   50.4720 N.pl3 1198  SAH1198    -0.1439
     18  C8       -14.4770    0.1600   50.5250 C.3   1198  SAH1198     0.3377
     19  N7       -14.1270   -0.2150   51.7170 N.2   1198  SAH1198    -0.2095
     20  C5       -15.1840   -0.2220   52.5240 C.2   1198  SAH1198     0.2526
     21  C6       -15.3750   -0.5010   53.8990 C.2   1198  SAH1198     0.4393
     22  N6       -14.3510   -0.9100   54.6950 N.pl3 1198  SAH1198     0.2180
     23  N1       -16.6200   -0.3980   54.3880 N.2   1198  SAH1198     0.0021
     24  C2       -17.6600   -0.0130   53.6030 C.3   1198  SAH1198     0.5254
     25  N3       -17.5010    0.2750   52.2930 N.2   1198  SAH1198    -0.0055
     26  C4       -16.3040    0.1860   51.7230 C.2   1198  SAH1198     0.3518
@<TRIPOS>BOND
     1     7     6   ar
     2     6     8   ar
     3     6     2    1
     4     3     2    1
     5     3     4    1
     6     2     1    1
     7     5     4    1
     8     5     9    1
     9     9    10    1
    10    10    11    1
    11    10    12    1
    12    11    16    1
    13    15    14    1
    14    13    12    1
    15    12    14    1
    16    16    14    1
    17    16    17    1
    18    17    18    1
    19    17    26    1
    20    18    19    1
    21    19    20    2
    22    26    25    2
    23    26    20    1
    24    25    24    1
    25    20    21    1
    26    24    23    1
    27    21    23    2
    28    21    22    1
