@<TRIPOS>MOLECULE
3rjw_CIQ_A_1.pdb
 37 41 0 0 0
SMALL
GASTEIGER

@<TRIPOS>ATOM
      1  N1        -9.7090   15.4170   47.5030 N.2   2000  CIQ2000    -0.3272
      2  C2        -8.4600   14.9700   47.2950 C.1   2000  CIQ2000     0.1133
      3  N3        -8.1360   13.6970   47.5800 N.2   2000  CIQ2000    -0.3474
      4  C4        -9.0600   12.8350   48.0260 C.2   2000  CIQ2000     0.1326
      5  C5       -10.3770   13.2660   48.2040 C.2   2000  CIQ2000     0.0761
      6  C6       -10.6850   14.6020   47.9280 C.2   2000  CIQ2000     0.2135
      7  CAA      -12.6130   10.6830   50.5550 C.3   2000  CIQ2000     0.2526
      8  CAB      -15.8300   19.9260   46.1800 C.3   2000  CIQ2000     0.0173
      9  CAC      -16.1500   18.2390   44.3470 C.3   2000  CIQ2000     0.0173
     10  CAD       -8.7070   11.5150   48.2940 C.3   2000  CIQ2000     0.1270
     11  CAE      -11.3350   12.3630   48.6600 C.2   2000  CIQ2000     0.0459
     12  CAF       -6.5690   18.7770   46.9680 C.3   2000  CIQ2000     0.0001
     13  CAG       -5.7290   17.6660   47.6020 C.3   2000  CIQ2000     0.0011
     14  CAH       -7.2180   18.2700   45.6800 C.3   2000  CIQ2000     0.0011
     15  CAI       -9.8000    4.9920   46.9750 C.3   2000  CIQ2000     0.0188
     16  CAJ       -8.3490    5.0610   46.4840 C.3   2000  CIQ2000     0.0188
     17  CAK       -7.3120    8.0630   49.6990 C.3   2000  CIQ2000     0.0646
     18  CAL       -8.1800    9.3060   49.9060 C.3   2000  CIQ2000     0.2065
     19  CAM       -6.6070   16.4690   47.9720 C.3   2000  CIQ2000     0.0170
     20  CAN       -8.0990   17.0450   45.9470 C.3   2000  CIQ2000     0.0170
     21  CAO      -13.2130   15.7250   46.0890 C.3   2000  CIQ2000     0.0390
     22  CAP      -13.0540   17.2900   48.0540 C.3   2000  CIQ2000     0.0390
     23  CAQ       -9.8230    5.7560   48.3090 C.3   2000  CIQ2000     0.0721
     24  CAR       -7.5950    5.7090   47.6420 C.3   2000  CIQ2000     0.0721
     25  CAS       -8.1680    6.7990   49.6750 C.3   2000  CIQ2000     0.0759
     26  CAT      -13.8280   16.8720   45.2860 C.3   2000  CIQ2000     0.0738
     27  CAU      -13.6170   18.3900   47.1460 C.3   2000  CIQ2000     0.0738
     28  NAX      -11.9130   15.1010   48.0680 N.pl3 2000  CIQ2000    -0.2106
     29  OAY      -11.9340   10.1690   49.4040 O.2   2000  CIQ2000    -0.4687
     30  OAZ       -9.3170    9.3260   49.0210 O.2   2000  CIQ2000    -0.4762
     31  CBA      -10.9830   11.0430   48.9640 C.2   2000  CIQ2000     0.1688
     32  CBB       -9.6650   10.6180   48.7770 C.2   2000  CIQ2000     0.1567
     33  CBG      -15.1510   18.8550   45.3260 C.3   2000  CIQ2000     0.0576
     34  CBH      -12.3230   16.2330   47.2220 C.3   2000  CIQ2000     0.0978
     35  CBI       -7.3970   15.9350   46.7690 C.3   2000  CIQ2000     0.1091
     36  NBJ       -8.5970    6.5630   48.2940 N.3   2000  CIQ2000    -0.2726
     37  NBK      -14.5580   17.8010   46.1700 N.3   2000  CIQ2000    -0.2738
@<TRIPOS>BOND
     1     9    33    1
     2    26    21    1
     3    26    37    1
     4    33    37    1
     5    33     8    1
     6    14    20    1
     7    14    12    1
     8    20    35    1
     9    21    34    1
    10    37    27    1
    11    16    15    1
    12    16    24    1
    13    35     2    1
    14    35    19    1
    15    12    13    1
    16    15    23    1
    17    27    22    1
    18    34    22    1
    19    34    28    1
    20     2     1    2
    21     2     3    2
    22     1     6    2
    23     3     4    2
    24    13    19    1
    25    24    36    1
    26     6    28    1
    27     6     5    1
    28     4     5    1
    29     4    10    1
    30     5    11    2
    31    36    23    1
    32    36    25    1
    33    10    32    1
    34    11    31    1
    35    32    31    2
    36    32    30    1
    37    31    29    1
    38    30    18    1
    39    29     7    1
    40    25    17    1
    41    17    18    1
