@<TRIPOS>MOLECULE
3rjy_GLC_A_1.pdb
 12 12 0 0 0
SMALL
GASTEIGER

@<TRIPOS>ATOM
      1  C1       -26.4510   18.3630   -7.5590 C.3   401  GLC401      0.3024
      2  C2       -26.9360   16.9850   -7.1420 C.3   401  GLC401      0.2434
      3  C3       -26.5570   16.7200   -5.6930 C.3   401  GLC401      0.2199
      4  C4       -25.1530   17.1990   -5.2750 C.3   401  GLC401      0.2144
      5  C5       -24.6450   18.4690   -5.9710 C.3   401  GLC401      0.1836
      6  C6       -23.1280   18.6520   -5.7810 C.3   401  GLC401      0.2142
      7  O1       -27.1640   19.2990   -6.7970 O.3   401  GLC401     -0.1869
      8  O2       -28.3380   16.8520   -7.2950 O.3   401  GLC401     -0.2148
      9  O3       -26.6730   15.3370   -5.5160 O.3   401  GLC401     -0.2174
     10  O4       -25.1990   17.4950   -3.8940 O.3   401  GLC401     -0.2176
     11  O5       -25.0530   18.5110   -7.3300 O.3   401  GLC401     -0.3236
     12  O6       -22.3890   18.8940   -6.9640 O.3   401  GLC401     -0.2176
@<TRIPOS>BOND
     1     1    11    1
     2     1     2    1
     3     1     7    1
     4    11     5    1
     5     8     2    1
     6     2     3    1
     7    12     6    1
     8     5     6    1
     9     5     4    1
    10     3     9    1
    11     3     4    1
    12     4    10    1
