@<TRIPOS>MOLECULE
3rk0_AMP_A_1.pdb
 23 25 0 0 0
SMALL
GASTEIGER

@<TRIPOS>ATOM
      1  P         68.6230   21.7890    1.2670 P.3   301  AMP301      0.5327
      2  O1P       69.4960   22.6660    0.4510 O.2   301  AMP301     -0.2224
      3  O2P       68.8220   22.1180    2.8170 O.3   301  AMP301     -0.1145
      4  O3P       69.0130   20.2560    0.9470 O.3   301  AMP301     -0.1145
      5  O5'       67.0730   21.9610    0.8420 O.3   301  AMP301     -0.2675
      6  C5'       66.6780   23.2840    1.1620 C.3   301  AMP301      0.1860
      7  C4'       65.2180   23.4970    0.7840 C.3   301  AMP301      0.1823
      8  O4'       64.3630   22.5570    1.4790 O.3   301  AMP301     -0.3135
      9  C3'       64.8220   24.9040    1.2010 C.3   301  AMP301      0.2184
     10  O3'       64.8110   25.7920    0.0750 O.3   301  AMP301     -0.2174
     11  C2'       63.4380   24.7450    1.8820 C.3   301  AMP301      0.2570
     12  O2'       62.4420   25.5440    1.2410 O.3   301  AMP301     -0.2130
     13  C1'       63.1180   23.2360    1.7840 C.3   301  AMP301      0.3186
     14  N9        62.5460   22.7190    3.0530 N.pl3 301  AMP301     -0.1439
     15  C8        63.2180   22.4370    4.2220 C.3   301  AMP301      0.3377
     16  N7        62.3930   21.9920    5.1330 N.2   301  AMP301     -0.2095
     17  C5        61.1370   21.9590    4.6160 C.2   301  AMP301      0.2526
     18  C6        59.8450   21.5830    5.0980 C.2   301  AMP301      0.4393
     19  N6        59.6750   21.1160    6.3910 N.pl3 301  AMP301      0.2180
     20  N1        58.7860   21.6900    4.2640 N.2   301  AMP301      0.0021
     21  C2        58.9190   22.1370    3.0070 C.3   301  AMP301      0.5254
     22  N3        60.1050   22.5000    2.5160 N.2   301  AMP301     -0.0055
     23  C4        61.2230   22.4240    3.2660 C.2   301  AMP301      0.3518
@<TRIPOS>BOND
     1    10     9    1
     2     2     1    2
     3     7     6    1
     4     7     9    1
     5     7     8    1
     6     5     6    1
     7     5     1    1
     8     4     1    1
     9     9    11    1
    10    12    11    1
    11     1     3    1
    12     8    13    1
    13    13    11    1
    14    13    14    1
    15    22    21    1
    16    22    23    2
    17    21    20    1
    18    14    23    1
    19    14    15    1
    20    23    17    1
    21    15    16    1
    22    20    18    2
    23    17    18    1
    24    17    16    2
    25    18    19    1
