@<TRIPOS>MOLECULE
3rk1_ATP_A_1.pdb
 31 33 0 0 0
SMALL
GASTEIGER

@<TRIPOS>ATOM
      1  PG        17.5360   12.5130   32.6170 P.3   301  ATP301      0.5373
      2  O1G       18.6380   13.4290   32.4480 O.3   301  ATP301     -0.1143
      3  O2G       17.2690   12.2050   34.0070 O.3   301  ATP301     -0.1143
      4  O3G       16.2420   13.1610   31.9040 O.2   301  ATP301     -0.2221
      5  PB        17.0460    9.7760   31.9040 P.3   301  ATP301      0.2277
      6  O1B       17.6760    8.8260   30.9710 O.2   301  ATP301     -0.5168
      7  O2B       15.5620    9.9750   31.7120 O.3   301  ATP301     -0.4368
      8  O3B       17.8670   11.1330   31.7790 O.3   301  ATP301     -0.2258
      9  PA        16.3580    9.0220   34.6340 P.3   301  ATP301      0.2189
     10  O1A       17.1470    9.1120   35.8790 O.3   301  ATP301     -0.4371
     11  O2A       15.2130   10.0300   34.6190 O.2   301  ATP301     -0.5170
     12  O3A       17.3590    9.2870   33.4040 O.3   301  ATP301     -0.2700
     13  O5'       15.8440    7.5310   34.4210 O.3   301  ATP301     -0.3112
     14  C5'       16.6400    6.4460   34.8150 C.3   301  ATP301      0.1813
     15  C4'       16.6600    5.3460   33.7530 C.3   301  ATP301      0.1821
     16  O4'       15.4750    4.5530   33.7080 O.3   301  ATP301     -0.3135
     17  C3'       16.8970    5.8420   32.3450 C.3   301  ATP301      0.2184
     18  O3'       18.3050    5.9260   32.1200 O.3   301  ATP301     -0.2174
     19  C2'       16.1800    4.8230   31.4830 C.3   301  ATP301      0.2570
     20  O2'       16.9210    3.7320   31.0380 O.3   301  ATP301     -0.2130
     21  C1'       15.0020    4.4220   32.3620 C.3   301  ATP301      0.3186
     22  N9        13.7300    5.2330   32.2500 N.pl3 301  ATP301     -0.1439
     23  C8        13.3940    6.3550   32.9830 C.3   301  ATP301      0.3377
     24  N7        12.2170    6.7740   32.5550 N.2   301  ATP301     -0.2095
     25  C5        11.7330    5.9830   31.5650 C.2   301  ATP301      0.2526
     26  C6        10.5840    5.9260   30.7250 C.2   301  ATP301      0.4393
     27  N6         9.6090    6.8330   30.6630 N.pl3 301  ATP301      0.2180
     28  N1        10.4660    4.8870   29.7920 N.2   301  ATP301      0.0021
     29  C2        11.4500    3.9300   29.6590 C.3   301  ATP301      0.5254
     30  N3        12.5880    3.9820   30.4570 N.2   301  ATP301     -0.0055
     31  C4        12.7190    4.9820   31.3800 C.2   301  ATP301      0.3518
@<TRIPOS>BOND
     1    29    28    1
     2    29    30    1
     3    28    26    2
     4    30    31    2
     5    27    26    1
     6    26    25    1
     7     6     5    2
     8    20    19    1
     9    31    25    1
    10    31    22    1
    11    19    17    1
    12    19    21    1
    13    25    24    2
    14     7     5    1
    15     8     5    1
    16     8     1    1
    17     5    12    1
    18     4     1    2
    19    18    17    1
    20    22    21    1
    21    22    23    1
    22    17    15    1
    23    21    16    1
    24     2     1    1
    25    24    23    1
    26     1     3    1
    27    12     9    1
    28    16    15    1
    29    15    14    1
    30    13     9    1
    31    13    14    1
    32    11     9    2
    33     9    10    1
