@<TRIPOS>MOLECULE
3rk5_07Z_A_1.pdb
 24 26 0 0 0
SMALL
GASTEIGER

@<TRIPOS>ATOM
      1  C1        89.6130  118.4450  -47.8730 C.ar  436  07Z436      0.0736
      2  N2        90.2480  118.5180  -49.0850 N.pl3 436  07Z436     -0.1779
      3  C3        91.3690  117.8580  -49.5200 C.2   436  07Z436      0.2367
      4  N4        91.7760  118.0740  -50.7720 N.2   436  07Z436     -0.3601
      5  C5        92.8530  117.3570  -51.0730 C.2   436  07Z436      0.2306
      6  C6        93.3040  116.5530  -50.0320 C.2   436  07Z436      0.1189
      7  S7        92.3430  116.7290  -48.6230 S.3   436  07Z436     -0.0310
      8  N8        93.3860  117.4180  -52.2380 N.pl3 436  07Z436     -0.0924
      9  C9        94.4760  115.6300  -50.1010 C.2   436  07Z436      0.2070
     10  C10       94.8990  114.7500  -48.9710 C.ar  436  07Z436      0.0587
     11  C11       93.9340  113.9810  -48.2180 C.ar  436  07Z436      0.0064
     12  C12       94.3430  113.1320  -47.1500 C.ar  436  07Z436      0.0208
     13  C13       95.7150  113.0480  -46.8380 C.ar  436  07Z436      0.0989
     14  N14       96.6290  113.7830  -47.5690 N.ar  436  07Z436     -0.2422
     15  C15       96.2680  114.6230  -48.6160 C.ar  436  07Z436      0.1020
     16  O16       95.1740  115.5730  -51.2560 O.2   436  07Z436     -0.2858
     17  C17       88.7260  119.5170  -47.5240 C.ar  436  07Z436      0.0168
     18  C18       88.0160  119.5020  -46.3060 C.ar  436  07Z436      0.0079
     19  C19       88.1620  118.4130  -45.3840 C.ar  436  07Z436      0.0799
     20  C20       89.0480  117.3350  -45.7170 C.ar  436  07Z436      0.0079
     21  C21       89.7610  117.3470  -46.9420 C.ar  436  07Z436      0.0168
     22  C22       87.3920  118.4270  -44.1090 C.2   436  07Z436      0.3878
     23  O23       86.5640  119.4730  -43.8570 O.co2 436  07Z436     -0.2406
     24  O24       87.4930  117.3880  -43.1600 O.co2 436  07Z436     -0.2406
@<TRIPOS>BOND
     1     8     5    1
     2    16     9    1
     3     5     4    2
     4     5     6    1
     5     4     3    2
     6     9     6    2
     7     9    10    1
     8     6     7    1
     9     3     2    1
    10     3     7    1
    11     2     1    1
    12    10    15   ar
    13    10    11   ar
    14    15    14   ar
    15    11    12   ar
    16     1    17   ar
    17     1    21   ar
    18    14    13   ar
    19    17    18   ar
    20    12    13   ar
    21    21    20   ar
    22    18    19   ar
    23    20    19   ar
    24    19    22    1
    25    22    23   ar
    26    22    24   ar
