@<TRIPOS>MOLECULE
3rk7_08Z_A_1.pdb
 24 26 0 0 0
SMALL
GASTEIGER

@<TRIPOS>ATOM
      1  C1        90.2690  118.4390  -47.6000 C.ar  467  08Z467      0.0736
      2  N2        90.8270  118.5070  -48.8550 N.pl3 467  08Z467     -0.1779
      3  C3        91.9270  117.8440  -49.3480 C.2   467  08Z467      0.2367
      4  N4        92.2760  118.0470  -50.6280 N.2   467  08Z467     -0.3601
      5  C5        93.3480  117.3120  -50.9620 C.2   467  08Z467      0.2306
      6  C6        93.8360  116.5240  -49.9360 C.2   467  08Z467      0.1189
      7  S7        92.9550  116.7230  -48.4980 S.3   467  08Z467     -0.0310
      8  N8        93.8390  117.3380  -52.1350 N.pl3 467  08Z467     -0.0924
      9  C9        94.9960  115.5970  -50.0580 C.2   467  08Z467      0.2070
     10  C10       95.4480  114.7020  -48.9530 C.ar  467  08Z467      0.0587
     11  C11       94.4710  113.9440  -48.1900 C.ar  467  08Z467      0.0064
     12  C12       94.8730  113.0720  -47.1520 C.ar  467  08Z467      0.0208
     13  C13       96.2550  112.9450  -46.8720 C.ar  467  08Z467      0.0989
     14  N14       97.1790  113.6680  -47.6110 N.ar  467  08Z467     -0.2422
     15  C15       96.8220  114.5360  -48.6390 C.ar  467  08Z467      0.1020
     16  O16       95.6430  115.5510  -51.2240 O.2   467  08Z467     -0.2858
     17  C17       89.5510  119.5920  -47.1060 C.ar  467  08Z467      0.0168
     18  C18       88.9390  119.5700  -45.8230 C.ar  467  08Z467      0.0060
     19  C19       89.0190  118.3950  -44.9930 C.ar  467  08Z467      0.0567
     20  C20       89.7270  117.2500  -45.4780 C.ar  467  08Z467      0.0060
     21  C21       90.3410  117.2690  -46.7580 C.ar  467  08Z467      0.0168
     22  C22       88.3620  118.3870  -43.6490 C.2   467  08Z467      0.2842
     23  O23       87.7050  119.4950  -43.2390 O.2   467  08Z467     -0.2667
     24  N24       88.4010  117.3480  -42.8650 N.am  467  08Z467     -0.0837
@<TRIPOS>BOND
     1     8     5    1
     2    16     9    1
     3     5     4    2
     4     5     6    1
     5     4     3    2
     6     9     6    2
     7     9    10    1
     8     6     7    1
     9     3     2    1
    10     3     7    1
    11    10    15   ar
    12    10    11   ar
    13     2     1    1
    14    15    14   ar
    15    11    12   ar
    16    14    13   ar
    17     1    17   ar
    18     1    21   ar
    19    12    13   ar
    20    17    18   ar
    21    21    20   ar
    22    18    19   ar
    23    20    19   ar
    24    19    22    1
    25    22    23    2
    26    22    24   am
