@<TRIPOS>MOLECULE
3rk9_09Z_A_1.pdb
 18 19 0 0 0
SMALL
GASTEIGER

@<TRIPOS>ATOM
      1  C1       -35.8730  -83.6810  -83.0850 C.3   483  09Z483      0.0234
      2  C2       -36.7130  -82.4730  -83.5880 C.3   483  09Z483      0.0956
      3  C3       -35.8030  -81.2220  -83.6980 C.3   483  09Z483      0.0234
      4  N4       -37.2740  -82.8280  -84.9060 N.pl3 483  09Z483     -0.2059
      5  C5       -38.3130  -82.1010  -85.4720 C.2   483  09Z483      0.2324
      6  N6       -38.6380  -82.2620  -86.7830 N.2   483  09Z483     -0.3605
      7  C7       -39.6590  -81.4630  -87.1120 C.2   483  09Z483      0.2306
      8  C8       -40.1190  -80.6870  -86.0820 C.2   483  09Z483      0.1189
      9  S9       -39.2630  -80.9690  -84.6400 S.3   483  09Z483     -0.0313
     10  N10      -40.1420  -81.4320  -88.3100 N.pl3 483  09Z483     -0.0924
     11  C11      -41.2510  -79.6910  -86.2060 C.2   483  09Z483      0.2070
     12  C12      -41.7070  -78.8200  -85.0940 C.ar  483  09Z483      0.0587
     13  C13      -40.7260  -78.1020  -84.2910 C.ar  483  09Z483      0.0064
     14  C14      -41.1310  -77.2390  -83.2080 C.ar  483  09Z483      0.0208
     15  C15      -42.5200  -77.0910  -82.9320 C.ar  483  09Z483      0.0989
     16  N16      -43.4650  -77.7760  -83.7100 N.ar  483  09Z483     -0.2422
     17  C17      -43.1120  -78.6400  -84.7900 C.ar  483  09Z483      0.1020
     18  O18      -41.8640  -79.5700  -87.4050 O.2   483  09Z483     -0.2858
@<TRIPOS>BOND
     1    10     7    1
     2    18    11    1
     3     7     6    2
     4     7     8    1
     5     6     5    2
     6    11     8    2
     7    11    12    1
     8     8     9    1
     9     5     4    1
    10     5     9    1
    11    12    17   ar
    12    12    13   ar
    13     4     2    1
    14    17    16   ar
    15    13    14   ar
    16    16    15   ar
    17     3     2    1
    18     2     1    1
    19    14    15   ar
