@<TRIPOS>MOLECULE
3rkb_12Z_A_1.pdb
 21 23 0 0 0
SMALL
GASTEIGER

@<TRIPOS>ATOM
      1  C1       -93.8840  -44.8330  -49.7350 C.3   457  12Z457      0.1865
      2  C2       -93.3740  -45.5890  -50.7440 C.2   457  12Z457      0.2162
      3  N3       -92.3210  -46.4070  -50.3590 N.2   457  12Z457     -0.3645
      4  C4       -92.0240  -46.2780  -49.0780 C.2   457  12Z457      0.2285
      5  S5       -93.0280  -45.1410  -48.2220 S.3   457  12Z457     -0.0498
      6  C6       -95.0020  -43.8540  -49.8160 C.2   457  12Z457      0.1928
      7  N7       -93.8170  -45.5820  -52.0490 N.pl3 457  12Z457     -0.0965
      8  N8       -91.0150  -46.9460  -48.4550 N.pl3 457  12Z457     -0.2061
      9  O9       -95.6690  -43.7890  -50.8710 O.2   457  12Z457     -0.2899
     10  C10      -96.0460  -41.2670  -46.5090 C.ar  457  12Z457      0.0989
     11  N11      -97.0290  -41.9190  -47.2130 N.ar  457  12Z457     -0.2422
     12  C12      -96.6730  -42.7390  -48.2620 C.ar  457  12Z457      0.1017
     13  C13      -95.3090  -42.9460  -48.6590 C.ar  457  12Z457      0.0552
     14  C14      -94.2910  -42.2460  -47.9100 C.ar  457  12Z457      0.0060
     15  C15      -94.6550  -41.3980  -46.8200 C.ar  457  12Z457      0.0208
     16  C16      -89.0640  -45.4970  -45.5100 C.3   457  12Z457      0.0018
     17  C17      -89.6220  -45.6220  -46.9480 C.3   457  12Z457      0.0217
     18  C18      -90.5440  -46.8860  -47.0970 C.3   457  12Z457      0.0955
     19  C19      -89.7510  -48.1660  -46.7100 C.3   457  12Z457      0.0217
     20  C20      -89.2370  -48.0590  -45.2460 C.3   457  12Z457      0.0018
     21  C21      -88.3360  -46.8030  -45.0650 C.3   457  12Z457      0.0001
@<TRIPOS>BOND
     1     7     2    1
     2     9     6    2
     3     2     3    2
     4     2     1    1
     5     3     4    2
     6     6     1    1
     7     6    13    1
     8     1     5    1
     9     4     8    1
    10     4     5    1
    11    13    12   ar
    12    13    14   ar
    13     8    18    1
    14    12    11   ar
    15    14    15   ar
    16    11    10   ar
    17    18    17    1
    18    18    19    1
    19    17    16    1
    20    15    10   ar
    21    19    20    1
    22    16    21    1
    23    20    21    1
