@<TRIPOS>MOLECULE
3rke_MZZ_A_1.pdb
 14 15 0 0 0
SMALL
GASTEIGER

@<TRIPOS>ATOM
      1  C1         5.7980    2.6820   27.2040 C.ar  610  MZZ610      0.0891
      2  C2         5.5280    2.3810   28.4570 C.ar  610  MZZ610      0.0182
      3  C3         4.7020    2.9380   29.3000 C.ar  610  MZZ610      0.0061
      4  C4         4.0190    3.9710   28.9170 C.ar  610  MZZ610      0.0566
      5  C5         4.2700    4.3050   27.6540 C.ar  610  MZZ610      0.0061
      6  C6         5.1430    3.6840   26.8800 C.ar  610  MZZ610      0.0182
      7  N7         6.8550    1.9230   26.2850 N.pl3 610  MZZ610     -0.1281
      8  C8         3.1040    4.5880   29.9370 C.2   610  MZZ610      0.2659
      9  N9         1.7460    4.8600   29.9460 N.ar  610  MZZ610     -0.2537
     10  O12        3.8030    4.8290   31.1370 O.2   610  MZZ610     -0.2666
     11  C17        1.1660    5.3520   30.9670 C.ar  610  MZZ610      0.1051
     12  C18       -0.1740    5.5150   30.5750 C.ar  610  MZZ610      0.1197
     13  N19       -0.2840    5.1160   29.3320 N.ar  610  MZZ610     -0.2219
     14  C20        0.9930    4.7150   28.9610 C.ar  610  MZZ610      0.1852
@<TRIPOS>BOND
     1     7     1    1
     2     6     1   ar
     3     6     5   ar
     4     1     2   ar
     5     5     4   ar
     6     2     3   ar
     7     4     3   ar
     8     4     8    1
     9    14    13   ar
    10    14     9   ar
    11    13    12   ar
    12     8     9   am
    13     8    10    2
    14     9    11   ar
    15    12    11   ar
