@<TRIPOS>MOLECULE
3rke_HEM_A_1.pdb
 43 50 0 0 0
SMALL
GASTEIGER

@<TRIPOS>ATOM
      1  CHA        8.4990    0.0270   28.4840 C.2   1001  HEM1001     0.0000
      2  CHB        8.7700    4.8770   28.2670 C.2   1001  HEM1001     0.0000
      3  CHC       10.6840    4.4710   23.8990 C.2   1001  HEM1001     0.0000
      4  CHD       10.5110   -0.3230   24.1420 C.2   1001  HEM1001     0.0000
      5  C1A        8.4210    1.3440   28.7950 C.2   1001  HEM1001     0.0000
      6  C2A        7.9020    1.8430   30.0450 C.2   1001  HEM1001     0.0000
      7  C3A        7.9630    3.1680   30.0050 C.2   1001  HEM1001     0.0000
      8  C4A        8.5280    3.5710   28.7150 C.2   1001  HEM1001     0.0000
      9  CMA        7.5160    4.0870   31.1530 C.3   1001  HEM1001     0.0000
     10  CAA        7.3600    0.9680   31.1860 C.3   1001  HEM1001     0.0000
     11  CBA        8.5320    0.3020   31.8710 C.3   1001  HEM1001     0.0000
     12  CGA        8.0220   -0.5260   33.0040 C.2   1001  HEM1001     0.0000
     13  O1A        6.9770   -0.1440   33.5940 O.co2 1001  HEM1001     0.0000
     14  O2A        8.6700   -1.5520   33.3270 O.co2 1001  HEM1001     0.0000
     15  C1B        9.2540    5.2470   27.0290 C.ar  1001  HEM1001     0.0000
     16  C2B        9.4170    6.5710   26.4380 C.ar  1001  HEM1001     0.0000
     17  C3B        9.9710    6.4210   25.2310 C.ar  1001  HEM1001     0.0000
     18  C4B       10.1720    5.0190   25.0280 C.ar  1001  HEM1001     0.0000
     19  CMB        9.0720    7.9560   27.0130 C.3   1001  HEM1001     0.0000
     20  CAB       10.3200    7.5210   24.1880 C.2   1001  HEM1001     0.0000
     21  CBB       10.7100    8.7550   24.5420 C.2   1001  HEM1001     0.0000
     22  C1C       10.7870    3.1460   23.5960 C.2   1001  HEM1001     0.0000
     23  C2C       11.3080    2.6310   22.3450 C.2   1001  HEM1001     0.0000
     24  C3C       11.2580    1.2850   22.4260 C.2   1001  HEM1001     0.0000
     25  C4C       10.6990    0.9520   23.7100 C.2   1001  HEM1001     0.0000
     26  CMC       11.8090    3.5220   21.1790 C.3   1001  HEM1001     0.0000
     27  CAC       11.6710    0.2040   21.4050 C.2   1001  HEM1001     0.0000
     28  CBC       12.4480    0.4930   20.3530 C.2   1001  HEM1001     0.0000
     29  C1D        9.8640   -0.6830   25.2810 C.ar  1001  HEM1001     0.0000
     30  C2D        9.3560   -2.0000   25.5610 C.ar  1001  HEM1001     0.0000
     31  C3D        8.7390   -1.8920   26.9400 C.ar  1001  HEM1001     0.0000
     32  C4D        8.9280   -0.5010   27.3140 C.ar  1001  HEM1001     0.0000
     33  CMD        9.4470   -3.2780   24.7210 C.3   1001  HEM1001     0.0000
     34  CAD        8.0190   -3.0100   27.7360 C.3   1001  HEM1001     0.0000
     35  CBD        6.5670   -2.9930   27.2570 C.3   1001  HEM1001     0.0000
     36  CGD        5.8540   -4.1490   27.8950 C.2   1001  HEM1001     0.0000
     37  O1D        5.9560   -5.2920   27.3510 O.co2 1001  HEM1001     0.0000
     38  O2D        5.2110   -3.9180   28.9590 O.co2 1001  HEM1001     0.0000
     39  NA         8.7990    2.4080   28.0040 N.2   1001  HEM1001     0.0000
     40  NB         9.7270    4.3230   26.1160 N.ar  1001  HEM1001     0.0000
     41  NC        10.4240    2.0990   24.4120 N.2   1001  HEM1001     0.0000
     42  ND         9.5930    0.1770   26.3230 N.ar  1001  HEM1001     0.0000
     43 FE          9.6830    2.2430   26.2120 Fe    1001  HEM1001     0.0000
@<TRIPOS>BOND
     1    28    27    2
     2    26    23    1
     3    27    24    1
     4    23    24    2
     5    23    22    1
     6    24    25    1
     7    22     3    2
     8    22    41    1
     9    25     4    1
    10    25    41    2
    11     3    18    1
    12     4    29    2
    13    20    21    2
    14    20    17    1
    15    41    43    1
    16    33    30    1
    17    18    17   ar
    18    18    40   ar
    19    17    16   ar
    20    29    30   ar
    21    29    42   ar
    22    30    31   ar
    23    40    43    1
    24    40    15   ar
    25    43    42    1
    26    43    39    1
    27    42    32   ar
    28    16    19    1
    29    16    15   ar
    30    31    32   ar
    31    31    34    1
    32    15     2    1
    33    35    34    1
    34    35    36    1
    35    32     1    2
    36    37    36   ar
    37    36    38   ar
    38    39     8    1
    39    39     5    2
    40     2     8    2
    41     1     5    1
    42     8     7    1
    43     5     6    1
    44     7     6    2
    45     7     9    1
    46     6    10    1
    47    10    11    1
    48    11    12    1
    49    12    14   ar
    50    12    13   ar
