@<TRIPOS>MOLECULE
3rkh_HEC_A_1.pdb
 43 50 0 0 0
SMALL
GASTEIGER

@<TRIPOS>ATOM
      1 FE         34.7020   25.8390  148.5860 Fe    1004  HEC1004     0.0000
      2  CHA       35.5520   28.9250  147.5300 C.2   1004  HEC1004     0.0000
      3  CHB       37.1360   24.4480  146.6120 C.2   1004  HEC1004     0.0000
      4  CHC       34.0610   22.7820  149.8820 C.2   1004  HEC1004     0.0000
      5  CHD       32.0060   27.1470  150.2410 C.2   1004  HEC1004     0.0000
      6  NA        36.0740   26.5370  147.3060 N.ar  1004  HEC1004     0.0000
      7  C1A       36.2270   27.8780  146.9800 C.ar  1004  HEC1004     0.0000
      8  C2A       37.2230   27.9780  145.9500 C.ar  1004  HEC1004     0.0000
      9  C3A       37.6340   26.7310  145.6880 C.ar  1004  HEC1004     0.0000
     10  C4A       36.9440   25.8100  146.5470 C.ar  1004  HEC1004     0.0000
     11  CMA       38.7200   26.3140  144.7050 C.3   1004  HEC1004     0.0000
     12  CAA       37.7320   29.2670  145.2460 C.3   1004  HEC1004     0.0000
     13  CBA       38.7210   29.9650  146.1870 C.3   1004  HEC1004     0.0000
     14  CGA       39.9410   29.1060  146.5150 C.2   1004  HEC1004     0.0000
     15  O1A       40.8120   28.8460  145.6220 O.co2 1004  HEC1004     0.0000
     16  O2A       40.0510   28.7010  147.7010 O.co2 1004  HEC1004     0.0000
     17  NB        35.4530   23.9770  148.2900 N.2   1004  HEC1004     0.0000
     18  C1B       36.5260   23.6140  147.5330 C.2   1004  HEC1004     0.0000
     19  C2B       36.9400   22.2770  147.9100 C.2   1004  HEC1004     0.0000
     20  C3B       36.0570   21.7900  148.7940 C.2   1004  HEC1004     0.0000
     21  C4B       35.1280   22.8700  149.0560 C.2   1004  HEC1004     0.0000
     22  CMB       38.1030   21.5960  147.1850 C.3   1004  HEC1004     0.0000
     23  CAB       35.9710   20.4180  149.5350 C.3   1004  HEC1004     0.0000
     24  CBB       37.3840   20.0610  150.0860 C.3   1004  HEC1004     0.0000
     25  NC        33.2940   25.0960  149.8270 N.ar  1004  HEC1004     0.0000
     26  C1C       33.1700   23.7820  150.1900 C.ar  1004  HEC1004     0.0000
     27  C2C       32.0970   23.6710  151.1550 C.ar  1004  HEC1004     0.0000
     28  C3C       31.4300   24.8570  151.1540 C.ar  1004  HEC1004     0.0000
     29  C4C       32.2460   25.7980  150.3630 C.ar  1004  HEC1004     0.0000
     30  CMC       31.5450   22.2750  151.5810 C.3   1004  HEC1004     0.0000
     31  CAC       30.0660   25.2030  151.8140 C.3   1004  HEC1004     0.0000
     32  CBC       29.9990   24.9980  153.3490 C.3   1004  HEC1004     0.0000
     33  ND        33.9370   27.6920  148.8500 N.2   1004  HEC1004     0.0000
     34  C1D       32.8220   28.0250  149.5690 C.2   1004  HEC1004     0.0000
     35  C2D       32.6330   29.4590  149.5750 C.2   1004  HEC1004     0.0000
     36  C3D       33.7350   30.0090  148.7700 C.2   1004  HEC1004     0.0000
     37  C4D       34.4760   28.8580  148.3400 C.2   1004  HEC1004     0.0000
     38  CMD       31.5120   30.2290  150.2800 C.3   1004  HEC1004     0.0000
     39  CAD       33.9480   31.5110  148.4470 C.3   1004  HEC1004     0.0000
     40  CBD       34.5350   32.2450  149.6560 C.3   1004  HEC1004     0.0000
     41  CGD       35.9970   31.9490  149.8330 C.2   1004  HEC1004     0.0000
     42  O1D       36.7000   31.4620  148.9080 O.co2 1004  HEC1004     0.0000
     43  O2D       36.4920   32.2110  150.9650 O.co2 1004  HEC1004     0.0000
@<TRIPOS>BOND
     1    11     9    1
     2    12     8    1
     3    12    13    1
     4    15    14   ar
     5     9     8   ar
     6     9    10   ar
     7     8     7   ar
     8    13    14    1
     9    14    16   ar
    10    10     3    2
    11    10     6   ar
    12     3    18    1
    13     7     6   ar
    14     7     2    2
    15    22    19    1
    16     6     1    1
    17     2    37    1
    18    18    19    1
    19    18    17    2
    20    19    20    2
    21    17     1    1
    22    17    21    1
    23    37    36    1
    24    37    33    2
    25    39    36    1
    26    39    40    1
    27     1    33    1
    28     1    25    1
    29    36    35    2
    30    20    21    1
    31    20    23    1
    32    33    34    1
    33    42    41   ar
    34    21     4    2
    35    23    24    1
    36    34    35    1
    37    34     5    2
    38    35    38    1
    39    40    41    1
    40    25    26   ar
    41    25    29   ar
    42    41    43   ar
    43     4    26    1
    44    26    27   ar
    45     5    29    1
    46    29    28   ar
    47    28    27   ar
    48    28    31    1
    49    27    30    1
    50    31    32    1
