@<TRIPOS>MOLECULE
3rko_CA7_C_1.pdb
 36 38 0 0 0
SMALL
GASTEIGER

@<TRIPOS>ATOM
      1  C1         3.2800  -10.2950  -39.9590 C.3   510  CA7510      0.2695
      2  O1         1.8600  -10.3030  -40.1390 O.3   510  CA7510     -0.3257
      3  C2         3.6130   -9.0260  -39.1500 C.3   510  CA7510      0.2406
      4  O2         2.9290   -9.0730  -37.8800 O.3   510  CA7510     -0.2149
      5  C3         3.2060   -7.7480  -39.8780 C.3   510  CA7510      0.2198
      6  O3         3.5800   -6.6280  -39.0710 O.3   510  CA7510     -0.2174
      7  C4         3.9390   -7.7060  -41.1830 C.3   510  CA7510      0.2144
      8  O4         3.5280   -6.5580  -41.9170 O.3   510  CA7510     -0.2176
      9  C5         3.4990   -8.9080  -41.9890 C.3   510  CA7510      0.1835
     10  O5         3.8860  -10.1240  -41.2830 O.3   510  CA7510     -0.3256
     11  C6         4.0880   -8.7180  -43.3600 C.3   510  CA7510      0.2142
     12  O6         5.5020   -8.6930  -43.3110 O.3   510  CA7510     -0.2176
     13  OAB       -0.6230  -13.4270  -38.0230 O.3   510  CA7510     -0.2176
     14  OAF        1.9290  -13.7960  -43.6420 O.3   510  CA7510     -0.2149
     15  OAG        2.0360  -11.1720  -43.0740 O.3   510  CA7510     -0.2175
     16  CAH       -2.5000  -19.2770  -42.2890 C.3   510  CA7510      0.0001
     17  CAI       -2.1330  -18.1020  -41.3740 C.3   510  CA7510      0.0026
     18  CAJ       -1.2560  -20.1650  -42.4480 C.3   510  CA7510      0.0000
     19  CAK       -2.3630  -26.6050  -43.7770 C.3   510  CA7510      0.0000
     20  CAL       -1.0250  -17.2760  -42.0380 C.3   510  CA7510      0.0322
     21  CAM       -1.4150  -21.4120  -43.3460 C.3   510  CA7510      0.0000
     22  CAN       -3.7270  -25.8880  -44.0230 C.3   510  CA7510      0.0000
     23  CAO       -1.2260  -25.7090  -44.2740 C.3   510  CA7510      0.0000
     24  CAP       -0.5070  -16.1300  -41.1520 C.3   510  CA7510      0.1449
     25  CAR       -0.3260  -12.2640  -38.8090 C.3   510  CA7510      0.2141
     26  CAS       -2.5570  -22.3530  -42.8780 C.3   510  CA7510      0.0000
     27  CAT       -3.7160  -24.5950  -43.2000 C.3   510  CA7510      0.0000
     28  CAU       -1.2310  -24.3970  -43.4630 C.3   510  CA7510      0.0000
     29  OAV        0.2760  -13.7140  -40.5070 O.3   510  CA7510     -0.3257
     30  OAX        0.4340  -15.4340  -42.0350 O.3   510  CA7510     -0.3286
     31  CAZ       -2.5330  -23.6620  -43.6860 C.3   510  CA7510      0.0000
     32  CBB        0.8240  -12.5960  -39.7670 C.3   510  CA7510      0.1803
     33  CBF        1.2670  -13.2940  -42.4790 C.3   510  CA7510      0.2404
     34  CBG        2.0200  -12.0800  -41.9840 C.3   510  CA7510      0.2167
     35  CBH        1.1690  -14.3630  -41.4190 C.3   510  CA7510      0.2695
     36  CBJ        1.2830  -11.4960  -40.7620 C.3   510  CA7510      0.1804
@<TRIPOS>BOND
     1    23    19    1
     2    23    28    1
     3    22    19    1
     4    22    27    1
     5    31    28    1
     6    31    27    1
     7    31    26    1
     8    14    33    1
     9    11    12    1
    10    11     9    1
    11    21    26    1
    12    21    18    1
    13    15    34    1
    14    33    34    1
    15    33    35    1
    16    18    16    1
    17    16    17    1
    18    20    17    1
    19    20    24    1
    20    30    35    1
    21    30    24    1
    22     9    10    1
    23     9     7    1
    24    34    36    1
    25     8     7    1
    26    35    29    1
    27    10     1    1
    28     7     5    1
    29    36     2    1
    30    36    32    1
    31    29    32    1
    32     2     1    1
    33     1     3    1
    34     5     3    1
    35     5     6    1
    36    32    25    1
    37     3     4    1
    38    25    13    1
