@<TRIPOS>MOLECULE
3rkr_NAP_A_1.pdb
 31 33 0 0 0
SMALL
GASTEIGER

@<TRIPOS>ATOM
      1  PA        31.3040  -66.7480  -30.4130 P.3   240  NAP240      0.2231
      2  O1A       29.7010  -66.8450  -30.2490 O.2   240  NAP240     -0.5169
      3  O2A       31.7530  -65.4940  -29.7550 O.3   240  NAP240     -0.4370
      4  O5B       31.6360  -66.6450  -32.0050 O.3   240  NAP240     -0.3111
      5  C5B       31.7510  -65.2800  -32.4810 C.3   240  NAP240      0.1813
      6  C4B       31.1110  -65.1070  -33.8720 C.3   240  NAP240      0.1820
      7  O4B       31.4560  -66.2720  -34.6800 O.3   240  NAP240     -0.3136
      8  C3B       29.5550  -65.0550  -33.6870 C.3   240  NAP240      0.2157
      9  O3B       28.8120  -64.1460  -34.5210 O.3   240  NAP240     -0.2175
     10  C2B       29.1060  -66.4780  -34.0330 C.3   240  NAP240      0.2314
     11  O2B       27.8490  -66.3840  -34.6780 O.3   240  NAP240     -0.2630
     12  C1B       30.2180  -67.0180  -34.9770 C.3   240  NAP240      0.3158
     13  N9A       30.2750  -68.4870  -34.7890 N.pl3 240  NAP240     -0.1439
     14  C8A       30.7200  -69.1820  -33.7090 C.3   240  NAP240      0.3377
     15  N7A       30.5510  -70.4730  -33.9070 N.2   240  NAP240     -0.2095
     16  C5A       29.9700  -70.6990  -35.1120 C.2   240  NAP240      0.2526
     17  C6A       29.5530  -71.8670  -35.8620 C.2   240  NAP240      0.4393
     18  N6A       29.6840  -73.1860  -35.4280 N.pl3 240  NAP240      0.2180
     19  N1A       29.0160  -71.6700  -37.0550 N.2   240  NAP240      0.0021
     20  C2A       28.8420  -70.4250  -37.5170 C.3   240  NAP240      0.5254
     21  N3A       29.2070  -69.3120  -36.8690 N.2   240  NAP240     -0.0055
     22  C4A       29.7840  -69.4100  -35.6750 C.2   240  NAP240      0.3518
     23  O3        31.9790  -68.0670  -29.7100 O.3   240  NAP240     -0.2261
     24  PN        33.2370  -67.8350  -28.6640 P.3   240  NAP240      0.5373
     25  O1N       34.2100  -66.6250  -29.1460 O.2   240  NAP240     -0.2221
     26  O2N       32.6250  -67.5310  -27.1960 O.3   240  NAP240     -0.1143
     27  O5D       34.0480  -69.0660  -28.5220 O.3   240  NAP240     -0.1143
     28  P2B       26.7970  -67.0510  -33.6690 P.3   240  NAP240      0.5328
     29  O1X       25.2790  -66.7330  -34.0530 O.2   240  NAP240     -0.2224
     30  O2X       26.9880  -68.6460  -33.6770 O.3   240  NAP240     -0.1145
     31  O3X       27.0720  -66.6000  -32.2880 O.3   240  NAP240     -0.1145
@<TRIPOS>BOND
     1    20    19    1
     2    20    21    1
     3    19    17    2
     4    21    22    2
     5    17    18    1
     6    17    16    1
     7    22    16    1
     8    22    13    1
     9    16    15    2
    10    12    13    1
    11    12     7    1
    12    12    10    1
    13    13    14    1
    14     7     6    1
    15    11    10    1
    16    11    28    1
    17     9     8    1
    18    29    28    2
    19    10     8    1
    20    15    14    1
    21     6     8    1
    22     6     5    1
    23    30    28    1
    24    28    31    1
    25     5     4    1
    26     4     1    1
    27     1     2    2
    28     1     3    1
    29     1    23    1
    30    23    24    1
    31    25    24    2
    32    24    27    1
    33    24    26    1
