@<TRIPOS>MOLECULE
3rku_NAP_A_1.pdb
 48 52 0 0 0
SMALL
GASTEIGER

@<TRIPOS>ATOM
      1  PA        36.7040   52.3070   24.8400 P.3   268  NAP268      0.2189
      2  O1A       36.9960   53.1940   23.7180 O.2   268  NAP268     -0.5170
      3  O2A       36.8820   52.9340   26.1630 O.3   268  NAP268     -0.4371
      4  O5B       37.5420   50.9600   24.7450 O.3   268  NAP268     -0.3112
      5  C5B       37.4280   50.1130   23.6520 C.3   268  NAP268      0.1813
      6  C4B       38.6070   49.1400   23.7270 C.3   268  NAP268      0.1820
      7  O4B       38.6410   48.3750   22.5410 O.3   268  NAP268     -0.3136
      8  C3B       39.9790   49.8050   23.8490 C.3   268  NAP268      0.2157
      9  O3B       40.7630   49.1110   24.8200 O.3   268  NAP268     -0.2175
     10  C2B       40.6190   49.6520   22.4870 C.3   268  NAP268      0.2314
     11  O2B       42.0000   49.4250   22.6370 O.3   268  NAP268     -0.2630
     12  C1B       39.9460   48.3690   22.0360 C.3   268  NAP268      0.3158
     13  N9A       39.9380   48.2100   20.5850 N.pl3 268  NAP268     -0.1439
     14  C8A       39.3020   48.9960   19.6730 C.3   268  NAP268      0.3377
     15  N7A       39.5780   48.4850   18.4440 N.2   268  NAP268     -0.2095
     16  C5A       40.3690   47.3950   18.5610 C.2   268  NAP268      0.2526
     17  C6A       40.9300   46.5200   17.6270 C.2   268  NAP268      0.4393
     18  N6A       40.7200   46.6960   16.3090 N.pl3 268  NAP268      0.2180
     19  N1A       41.7150   45.4620   18.0800 N.2   268  NAP268      0.0021
     20  C2A       41.9230   45.3120   19.4330 C.3   268  NAP268      0.5254
     21  N3A       41.3550   46.1880   20.3470 N.2   268  NAP268     -0.0055
     22  C4A       40.5980   47.2140   19.9120 C.2   268  NAP268      0.3518
     23  O3        35.2280   51.7810   24.6920 O.3   268  NAP268     -0.2703
     24  PN        34.3030   51.1730   25.8250 P.3   268  NAP268      0.2189
     25  O1N       33.3350   52.1860   26.2860 O.2   268  NAP268     -0.5170
     26  O2N       35.0990   50.4420   26.8470 O.3   268  NAP268     -0.4371
     27  O5D       33.6400   50.0730   24.8490 O.3   268  NAP268     -0.3112
     28  C5D       33.7700   48.6990   25.1220 C.3   268  NAP268      0.1813
     29  C4D       32.6070   47.8930   24.5520 C.3   268  NAP268      0.1799
     30  O4D       31.3700   48.2690   25.1350 O.3   268  NAP268     -0.3327
     31  C3D       32.4470   48.1370   23.0670 C.3   268  NAP268      0.2158
     32  O3D       32.0370   46.9220   22.4880 O.3   268  NAP268     -0.2175
     33  C2D       31.3070   49.1210   23.0110 C.3   268  NAP268      0.2309
     34  O2D       30.6400   49.0720   21.8060 O.3   268  NAP268     -0.2158
     35  C1D       30.4380   48.5590   24.1060 C.3   268  NAP268      0.2263
     36  N1N       29.4570   49.5330   24.5800 N.pl3 268  NAP268     -0.2787
     37  C2N       29.8510   50.7690   24.9980 C.3   268  NAP268      0.1244
     38  C3N       28.8950   51.6780   25.4610 C.2   268  NAP268      0.0544
     39  C7N       29.2970   53.0310   25.9430 C.2   268  NAP268      0.2818
     40  O7N       28.2710   53.9790   26.1150 O.2   268  NAP268     -0.2670
     41  N7N       30.5920   53.2880   26.1890 N.am  268  NAP268     -0.0839
     42  C4N       27.5580   51.3330   25.5050 C.2   268  NAP268      0.0033
     43  C5N       27.1810   50.0600   25.0910 C.2   268  NAP268      0.0157
     44  C6N       28.1440   49.1720   24.6300 C.2   268  NAP268      0.0633
     45  P2B       43.1560   49.9740   21.6570 P.3   268  NAP268      0.5328
     46  O1X       43.2550   48.9450   20.5530 O.2   268  NAP268     -0.2224
     47  O2X       44.4500   50.0430   22.4420 O.3   268  NAP268     -0.1145
     48  O3X       42.8590   51.3190   21.0220 O.3   268  NAP268     -0.1145
@<TRIPOS>BOND
     1    18    17    1
     2    17    19    2
     3    17    16    1
     4    19    20    1
     5    15    16    2
     6    15    14    1
     7    16    22    1
     8    20    21    1
     9    14    13    1
    10    22    21    2
    11    22    13    1
    12    46    45    2
    13    13    12    1
    14    48    45    1
    15    45    47    1
    16    45    11    1
    17    34    33    1
    18    12    10    1
    19    12     7    1
    20    10    11    1
    21    10     8    1
    22    32    31    1
    23     7     6    1
    24    33    31    1
    25    33    35    1
    26    31    29    1
    27     5     6    1
    28     5     4    1
    29     2     1    2
    30     6     8    1
    31     8     9    1
    32    35    36    1
    33    35    30    1
    34    29    28    1
    35    29    30    1
    36    36    44    1
    37    36    37    1
    38    44    43    2
    39    23     1    1
    40    23    24    1
    41     4     1    1
    42     1     3    1
    43    27    28    1
    44    27    24    1
    45    37    38    1
    46    43    42    1
    47    38    42    2
    48    38    39    1
    49    24    25    2
    50    24    26    1
    51    39    40    2
    52    39    41   am
