@<TRIPOS>MOLECULE
3rkw_BT5_A_1.pdb
 37 41 0 0 0
SMALL
GASTEIGER

@<TRIPOS>ATOM
      1  CBB       50.8490   17.1800   18.1110 C.3   500  BT5500      0.1491
      2  OBB       51.9860   17.9100   18.4760 O.3   500  BT5500     -0.3141
      3  CAB       49.6690   17.3000   18.8770 C.3   500  BT5500      0.0325
      4  C9B       49.7970   16.9740   20.2440 C.3   500  BT5500      0.0026
      5  C8B       48.6760   16.5400   21.1230 C.3   500  BT5500      0.0010
      6  C7B       48.5970   17.1550   22.5650 C.3   500  BT5500      0.0122
      7  C2B       47.4610   16.7170   23.3560 C.3   500  BT5500      0.0652
      8  S1B       47.3050   17.2910   24.9040 S.3   500  BT5500     -0.1381
      9  C6B       46.2030   16.1050   25.3310 C.3   500  BT5500      0.0765
     10  C5B       46.8640   14.7570   24.8620 C.3   500  BT5500      0.1043
     11  N1B       47.7540   14.1570   25.7540 N.3   500  BT5500     -0.1726
     12  C3B       49.0880   14.6610   25.3880 C.3   500  BT5500      0.3038
     13  O3B       50.0670   14.0170   25.9150 O.3   500  BT5500     -0.1830
     14  N2B       49.0540   14.6890   23.8790 N.3   500  BT5500     -0.1727
     15  C4B       47.7540   15.1460   23.5910 C.3   500  BT5500      0.1035
     16  P         53.2750   18.0950   17.6760 P.3   500  BT5500      0.2141
     17  OP1       52.9190   18.7960   16.4600 O.2   500  BT5500     -0.5172
     18  OP2       53.9840   16.8430   17.5710 O.3   500  BT5500     -0.4373
     19  O5'       54.1290   19.0200   18.6150 O.3   500  BT5500     -0.3114
     20  C5'       53.6840   20.2410   19.0300 C.3   500  BT5500      0.1813
     21  C4'       54.7490   21.2800   18.9090 C.3   500  BT5500      0.1821
     22  O4'       54.1790   22.6100   18.8690 O.3   500  BT5500     -0.3135
     23  C3'       55.9410   21.3400   19.8690 C.3   500  BT5500      0.2184
     24  O3'       57.0610   20.6120   19.4180 O.3   500  BT5500     -0.2174
     25  C2'       56.2250   22.8390   19.9260 C.3   500  BT5500      0.2570
     26  O2'       56.9390   23.2350   18.7580 O.3   500  BT5500     -0.2130
     27  C1'       54.8280   23.4060   19.7990 C.3   500  BT5500      0.3186
     28  N9        54.0710   23.3550   21.0480 N.pl3 500  BT5500     -0.1439
     29  C8        54.2240   22.6630   22.1790 C.3   500  BT5500      0.3377
     30  N7        53.1880   22.9750   22.9920 N.2   500  BT5500     -0.2095
     31  C5        52.3590   23.8240   22.3650 C.2   500  BT5500      0.2526
     32  C6        51.1770   24.5070   22.6270 C.2   500  BT5500      0.4393
     33  N6        50.4670   24.4550   23.8650 N.pl3 500  BT5500      0.2180
     34  N1        50.7170   25.3450   21.6960 N.2   500  BT5500      0.0021
     35  C2        51.3350   25.5070   20.5420 C.3   500  BT5500      0.5254
     36  N3        52.4490   24.8920   20.2640 N.2   500  BT5500     -0.0055
     37  C4        52.9560   24.0540   21.1330 C.2   500  BT5500      0.3518
@<TRIPOS>BOND
     1    17    16    2
     2    18    16    1
     3    16     2    1
     4    16    19    1
     5     1     2    1
     6     1     3    1
     7    19    20    1
     8    26    25    1
     9    22    21    1
    10    22    27    1
    11     3     4    1
    12    21    20    1
    13    21    23    1
    14    24    23    1
    15    27    25    1
    16    27    28    1
    17    23    25    1
    18     4     5    1
    19    36    35    1
    20    36    37    2
    21    35    34    1
    22    28    37    1
    23    28    29    1
    24     5     6    1
    25    37    31    1
    26    34    32    2
    27    29    30    1
    28    31    32    1
    29    31    30    2
    30     6     7    1
    31    32    33    1
    32     7    15    1
    33     7     8    1
    34    15    14    1
    35    15    10    1
    36    14    12    1
    37    10     9    1
    38    10    11    1
    39     8     9    1
    40    12    11    1
    41    12    13    1
