@<TRIPOS>MOLECULE
3rky_BTN_A_1.pdb
 16 17 0 0 0
SMALL
GASTEIGER

@<TRIPOS>ATOM
      1  C11       50.4680   18.1490   17.8260 C.2   500  BTN500      0.3880
      2  O11       51.5440   17.5340   18.1090 O.co2 500  BTN500     -0.2405
      3  O12       50.4880   18.9410   16.8550 O.co2 500  BTN500     -0.2405
      4  C10       49.2280   18.0040   18.6980 C.2   500  BTN500      0.0861
      5  C9        49.2670   17.0720   19.8710 C.2   500  BTN500      0.0065
      6  C8        48.0150   16.8250   20.6860 C.2   500  BTN500     -0.0031
      7  C7        48.0510   17.0850   22.1960 C.2   500  BTN500     -0.0085
      8  C2        46.9780   16.4530   22.9860 C.3   500  BTN500      0.1253
      9  S1        46.4780   17.2830   24.3580 S.3   500  BTN500     -0.1216
     10  C6        45.4950   16.0210   24.8620 C.3   500  BTN500      0.1205
     11  C5        46.6980   15.1270   24.9500 C.2   500  BTN500      0.1625
     12  N1        47.2510   14.3620   25.7570 N.2   500  BTN500     -0.3097
     13  C3        48.4960   14.1360   25.2760 C.1   500  BTN500      0.3549
     14  O3        49.4130   13.4350   25.9720 O.2   500  BTN500     -0.1752
     15  N2        48.7980   14.8040   24.0530 N.2   500  BTN500     -0.3094
     16  C4        47.6010   15.4250   23.8870 C.2   500  BTN500      0.1650
@<TRIPOS>BOND
     1     3     1   ar
     2     1     2   ar
     3     1     4    1
     4     4     5    2
     5     5     6    1
     6     6     7    2
     7     7     8    1
     8     8    16    1
     9     8     9    1
    10    16    15    2
    11    16    11    1
    12    15    13    2
    13     9    10    1
    14    10    11    1
    15    11    12    2
    16    13    12    2
    17    13    14    2
