@<TRIPOS>MOLECULE
3rkz_06T_A_1.pdb
 36 39 0 0 0
SMALL
GASTEIGER

@<TRIPOS>ATOM
      1  C1         7.1670    9.3410   23.3280 C.3     1  06T1        0.0323
      2  C2         6.0010   10.2120   23.7110 C.ar    1  06T1       -0.0060
      3  C3         4.6750    9.8430   23.7850 C.ar    1  06T1        0.0389
      4  N1         3.9470   10.9650   24.1740 N.ar    1  06T1       -0.3137
      5  C4         4.8190   12.0230   24.3350 C.ar    1  06T1        0.0435
      6  C5         6.0960   11.5740   24.0570 C.ar    1  06T1        0.0438
      7  C6         7.2570   12.4600   24.1670 C.2     1  06T1        0.1739
      8  O1         8.4020   12.0160   24.0970 O.2     1  06T1       -0.2913
      9  C7         6.9980   13.8760   24.6770 C.3     1  06T1        0.0695
     10  C8         5.6950   14.0270   25.4910 C.3     1  06T1        0.0128
     11  C9         4.4800   13.4220   24.7580 C.3     1  06T1        0.0446
     12  C10        5.8840   13.3240   26.8530 C.3     1  06T1        0.0008
     13  C11        5.4300   15.5100   25.7620 C.3     1  06T1        0.0008
     14  C12        2.5480   11.0730   24.3930 C.2     1  06T1        0.0642
     15  C13        1.7470   11.9880   23.7220 C.2     1  06T1        0.0138
     16  C14        0.3690   11.9840   23.9660 C.2     1  06T1       -0.0098
     17  C15       -0.2070   11.0790   24.8800 C.3     1  06T1        0.1414
     18  C16        0.6090   10.1610   25.5490 C.2     1  06T1        0.0676
     19  C17        2.0010   10.1970   25.3140 C.2     1  06T1        0.0325
     20  N2         0.1290    9.2450   26.4590 N.2     1  06T1       -0.2758
     21  C18        0.8490    8.0400   26.8200 C.3     1  06T1        0.1046
     22  C19        1.2460    7.2030   25.5710 C.3     1  06T1        0.0422
     23  C20        2.4330    6.2600   25.8630 C.3     1  06T1        0.0953
     24  N3         3.4640    6.3550   24.8100 N.am    1  06T1       -0.2779
     25  C21        4.2500    7.6010   24.7530 C.3     1  06T1        0.0997
     26  C22        4.0510    8.4960   23.5220 C.3     1  06T1        0.0653
     27  C23        3.7000    5.3480   23.9200 C.2     1  06T1        0.2431
     28  O2         4.5570    5.4560   23.0320 O.2     1  06T1       -0.2733
     29  C24        2.9050    4.0570   23.9900 C.3     1  06T1        0.1679
     30  C25        3.5350    3.1280   25.0090 C.3     1  06T1        0.0304
     31  N4         3.0430    3.4210   22.6370 N.3     1  06T1       -0.1231
     32  C26        0.0720    6.4530   24.9470 C.3     1  06T1        0.0038
     33  C27        0.0530    7.3000   27.9020 C.3     1  06T1        0.0263
     34  C28       -1.6860   11.1130   25.1590 C.2     1  06T1        0.2700
     35  O3        -2.1860   10.6570   26.2000 O.2     1  06T1       -0.2709
     36  N5        -2.4510   11.7200   24.2350 N.am    1  06T1       -0.0872
@<TRIPOS>BOND
     1    31    29    1
     2    28    27    2
     3     1     2    1
     4    26     3    1
     5    26    25    1
     6     2     3   ar
     7     2     6   ar
     8    15    16    2
     9    15    14    1
    10     3     4   ar
    11    27    29    1
    12    27    24   am
    13    16    17    1
    14    29    30    1
    15     6     7    1
    16     6     5   ar
    17     8     7    2
    18     7     9    1
    19     4     5   ar
    20     4    14    1
    21    36    34   am
    22     5    11    1
    23    14    19    2
    24     9    10    1
    25    25    24    1
    26    11    10    1
    27    24    23    1
    28    17    34    1
    29    17    18    1
    30    32    22    1
    31    34    35    2
    32    19    18    1
    33    10    13    1
    34    10    12    1
    35    18    20    2
    36    22    23    1
    37    22    21    1
    38    20    21    1
    39    21    33    1
