@<TRIPOS>MOLECULE
3rl3_5GP_A_1.pdb
 24 26 0 0 0
SMALL
GASTEIGER

@<TRIPOS>ATOM
      1  P        -24.0770   10.5650    7.1860 P.3   951  5GP951      0.5327
      2  O1P      -22.7100    9.9540    7.2740 O.3   951  5GP951     -0.1145
      3  O2P      -24.7920   10.7370    8.6110 O.3   951  5GP951     -0.1145
      4  O3P      -23.9890   11.9630    6.4880 O.2   951  5GP951     -0.2224
      5  O5'      -25.0070    9.6110    6.2800 O.3   951  5GP951     -0.2675
      6  C5'      -26.4230    9.8170    6.2150 C.3   951  5GP951      0.1859
      7  C4'      -27.0050    8.9770    5.0420 C.3   951  5GP951      0.1801
      8  O4'      -26.2170    9.2600    3.8430 O.3   951  5GP951     -0.3326
      9  C3'      -26.8670    7.4600    5.1470 C.3   951  5GP951      0.2158
     10  O3'      -27.9090    6.9560    5.9520 O.3   951  5GP951     -0.2175
     11  C2'      -27.0420    7.0410    3.6870 C.3   951  5GP951      0.2310
     12  O2'      -28.3950    7.2380    3.2210 O.3   951  5GP951     -0.2158
     13  C1'      -26.1580    8.0840    3.0180 C.3   951  5GP951      0.2293
     14  N9       -24.7930    7.5330    2.9240 N.pl3 951  5GP951     -0.2354
     15  C8       -23.8410    7.4910    3.8640 C.3   951  5GP951      0.2246
     16  N7       -22.7460    6.9020    3.3570 N.2   951  5GP951     -0.2322
     17  C5       -23.0140    6.5560    2.0950 C.2   951  5GP951      0.2182
     18  C6       -22.2880    5.9210    1.0910 C.1   951  5GP951      0.2372
     19  O6       -21.1260    5.5560    1.2750 O.2   951  5GP951     -0.2069
     20  N1       -22.8910    5.7230   -0.1520 N.2   951  5GP951     -0.2485
     21  C2       -24.2070    6.1550   -0.3530 C.1   951  5GP951      0.2531
     22  N2       -24.8030    5.9860   -1.5260 N.pl3 951  5GP951     -0.0226
     23  N3       -24.8790    6.7570    0.6350 N.2   951  5GP951     -0.3074
     24  C4       -24.3110    6.9650    1.8270 C.2   951  5GP951      0.2300
@<TRIPOS>BOND
     1    22    21    1
     2    21    20    2
     3    21    23    2
     4    20    18    2
     5    23    24    2
     6    18    19    2
     7    18    17    1
     8    24    17    1
     9    24    14    1
    10    17    16    2
    11    14    13    1
    12    14    15    1
    13    13    11    1
    14    13     8    1
    15    12    11    1
    16    16    15    1
    17    11     9    1
    18     8     7    1
    19     7     9    1
    20     7     6    1
    21     9    10    1
    22     6     5    1
    23     5     1    1
    24     4     1    2
    25     1     2    1
    26     1     3    1
