@<TRIPOS>MOLECULE
3rl4_5GP_A_1.pdb
 24 26 0 0 0
SMALL
GASTEIGER

@<TRIPOS>ATOM
      1  P        -23.8720   11.3580    7.3000 P.3   951  5GP951      0.5327
      2  O1P      -22.5070   10.8010    7.3830 O.3   951  5GP951     -0.1145
      3  O2P      -24.5900   11.6000    8.7310 O.3   951  5GP951     -0.1145
      4  O3P      -23.8350   12.7720    6.6230 O.2   951  5GP951     -0.2224
      5  O5'      -24.8120   10.4050    6.4280 O.3   951  5GP951     -0.2675
      6  C5'      -26.2020   10.7260    6.2020 C.3   951  5GP951      0.1859
      7  C4'      -26.7620    9.9250    5.0380 C.3   951  5GP951      0.1801
      8  O4'      -25.9290   10.2050    3.8950 O.3   951  5GP951     -0.3326
      9  C3'      -26.6680    8.4100    5.1630 C.3   951  5GP951      0.2158
     10  O3'      -27.7260    7.8970    5.9960 O.3   951  5GP951     -0.2175
     11  C2'      -26.8170    8.0000    3.7000 C.3   951  5GP951      0.2310
     12  O2'      -28.1760    8.1370    3.2580 O.3   951  5GP951     -0.2158
     13  C1'      -25.9810    9.0850    3.0010 C.3   951  5GP951      0.2293
     14  N9       -24.5990    8.5730    2.7710 N.pl3 951  5GP951     -0.2354
     15  C8       -23.5650    8.5240    3.6310 C.3   951  5GP951      0.2246
     16  N7       -22.5220    7.9690    3.0240 N.2   951  5GP951     -0.2322
     17  C5       -22.8840    7.6490    1.7830 C.2   951  5GP951      0.2182
     18  C6       -22.2280    7.0490    0.7110 C.1   951  5GP951      0.2372
     19  O6       -21.0520    6.6800    0.7570 O.2   951  5GP951     -0.2069
     20  N1       -22.9310    6.8800   -0.4720 N.2   951  5GP951     -0.2485
     21  C2       -24.2680    7.2830   -0.5740 C.1   951  5GP951      0.2531
     22  N2       -24.9130    7.0980   -1.7200 N.pl3 951  5GP951     -0.0226
     23  N3       -24.8830    7.8600    0.4690 N.2   951  5GP951     -0.3074
     24  C4       -24.2100    8.0350    1.6260 C.2   951  5GP951      0.2300
@<TRIPOS>BOND
     1    22    21    1
     2    21    20    2
     3    21    23    2
     4    20    18    2
     5    23    24    2
     6    18    19    2
     7    18    17    1
     8    24    17    1
     9    24    14    1
    10    17    16    2
    11    14    13    1
    12    14    15    1
    13    13    11    1
    14    13     8    1
    15    16    15    1
    16    12    11    1
    17    11     9    1
    18     8     7    1
    19     7     9    1
    20     7     6    1
    21     9    10    1
    22     6     5    1
    23     5     1    1
    24     4     1    2
    25     1     2    1
    26     1     3    1
