@<TRIPOS>MOLECULE
3rl6_AMP_A_1.pdb
 23 25 0 0 0
SMALL
GASTEIGER

@<TRIPOS>ATOM
      1  P        -16.0920    6.8460    6.0860 P.3   296  AMP296      0.5327
      2  O1P      -15.3320    8.1010    6.2450 O.3   296  AMP296     -0.1145
      3  O2P      -17.1740    6.7490    5.0110 O.2   296  AMP296     -0.2224
      4  O3P      -15.0630    5.8520    5.6730 O.3   296  AMP296     -0.1145
      5  O5'      -16.6570    6.3470    7.4900 O.3   296  AMP296     -0.2675
      6  C5'      -18.0380    6.4470    7.8030 C.3   296  AMP296      0.1860
      7  C4'      -18.2680    7.3500    8.9880 C.3   296  AMP296      0.1823
      8  O4'      -17.3980    6.9610   10.0830 O.3   296  AMP296     -0.3135
      9  C3'      -17.9500    8.8200    8.7700 C.3   296  AMP296      0.2184
     10  O3'      -18.9960    9.5150    8.1180 O.3   296  AMP296     -0.2174
     11  C2'      -17.6760    9.3200   10.1800 C.3   296  AMP296      0.2570
     12  O2'      -18.8900    9.5420   10.8720 O.3   296  AMP296     -0.2130
     13  C1'      -16.9870    8.1080   10.8030 C.3   296  AMP296      0.3186
     14  N9       -15.5200    8.2060   10.7290 N.pl3 296  AMP296     -0.1439
     15  C8       -14.7400    8.0080    9.6500 C.3   296  AMP296      0.3377
     16  N7       -13.4580    8.1910   10.0390 N.2   296  AMP296     -0.2095
     17  C5       -13.4470    8.4880   11.3590 C.2   296  AMP296      0.2526
     18  C6       -12.4420    8.7600   12.2790 C.2   296  AMP296      0.4393
     19  N6       -11.0100    8.7460   11.8200 N.pl3 296  AMP296      0.2180
     20  N1       -12.7580    9.0290   13.5640 N.2   296  AMP296      0.0021
     21  C2       -14.0390    9.0350   13.9600 C.3   296  AMP296      0.5254
     22  N3       -15.0230    8.7730   13.0960 N.2   296  AMP296     -0.0055
     23  C4       -14.7660    8.5010   11.8040 C.2   296  AMP296      0.3518
@<TRIPOS>BOND
     1     3     1    2
     2     4     1    1
     3     1     2    1
     4     1     5    1
     5     5     6    1
     6     6     7    1
     7    10     9    1
     8     9     7    1
     9     9    11    1
    10     7     8    1
    11    15    16    1
    12    15    14    1
    13    16    17    2
    14     8    13    1
    15    11    13    1
    16    11    12    1
    17    14    13    1
    18    14    23    1
    19    17    23    1
    20    17    18    1
    21    23    22    2
    22    19    18    1
    23    18    20    2
    24    22    21    1
    25    20    21    1
