@<TRIPOS>MOLECULE
3rl7_III_H_1.pdb
 33 32 0 0 0
SMALL
GASTEIGER

@<TRIPOS>ATOM
      1  N         29.7130  -12.6290  -15.6450 N.3   2838  TYR2838    -0.1231
      2  CA        30.6720  -11.4950  -15.4730 C.3   2838  TYR2838     0.1694
      3  C         31.0970  -11.3220  -14.0140 C.2   2838  TYR2838     0.2592
      4  O         32.2240  -10.9070  -13.7330 O.2   2838  TYR2838    -0.2718
      5  CB        30.0720  -10.2030  -16.0150 C.3   2838  TYR2838     0.0304
      6  N         30.1850  -11.6310  -13.0950 N.am  2839  LEU2839    -0.1966
      7  CA        30.4900  -11.6700  -11.6630 C.3   2839  LEU2839     0.1728
      8  C         30.7880  -13.1140  -11.2390 C.2   2839  LEU2839     0.2616
      9  O         31.0000  -13.4080  -10.0600 O.2   2839  LEU2839    -0.2715
     10  CB        29.3470  -11.0530  -10.8410 C.3   2839  LEU2839     0.0311
     11  CG        28.0260  -11.7930  -10.5800 C.3   2839  LEU2839     0.0022
     12  CD1       27.0700  -10.8960   -9.8060 C.3   2839  LEU2839     0.0001
     13  CD2       27.3590  -12.2940  -11.8580 C.3   2839  LEU2839     0.0001
     14  N         30.7730  -14.0030  -12.2310 N.am  2840  VAL2840    -0.1963
     15  CA        31.2240  -15.3860  -12.1060 C.3   2840  VAL2840     0.1727
     16  C         32.3380  -15.5610  -13.1350 C.2   2840  VAL2840     0.2617
     17  O         32.2410  -15.0190  -14.2380 O.2   2840  VAL2840    -0.2715
     18  CB        30.0960  -16.3960  -12.4400 C.3   2840  VAL2840     0.0290
     19  CG1       30.4300  -17.7770  -11.8850 C.3   2840  VAL2840     0.0023
     20  CG2       28.7440  -15.9180  -11.9000 C.3   2840  VAL2840     0.0023
     21  N         33.3870  -16.3070  -12.7880 N.am  2841  THR2841    -0.1937
     22  CA        34.5130  -16.5120  -13.7100 C.3   2841  THR2841     0.2028
     23  C         35.1590  -17.8930  -13.5800 C.2   2841  THR2841     0.2642
     24  O         35.3710  -18.3860  -12.4700 O.2   2841  THR2841    -0.2714
     25  CB        35.6110  -15.4280  -13.5280 C.3   2841  THR2841     0.1808
     26  OG1       35.0010  -14.1430  -13.3510 O.3   2841  THR2841    -0.2208
     27  CG2       36.5450  -15.3780  -14.7380 C.3   2841  THR2841     0.0379
     28  N         35.4630  -18.5020  -14.7280 N.am  2842  SER2842    -0.1949
     29  CA        36.2640  -19.7240  -14.7890 C.3   2842  SER2842     0.1924
     30  C         37.7450  -19.3800  -14.6850 C.2   2842  SER2842     0.2314
     31  O         38.2620  -18.5830  -15.4700 O.2   2842  SER2842    -0.2863
     32  CB        36.0040  -20.4830  -16.0950 C.3   2842  SER2842     0.2116
     33  OG        34.6960  -21.0210  -16.1330 O.3   2842  SER2842    -0.2180
@<TRIPOS>BOND
     1    33    32    1
     2    32    29    1
     3     5     2    1
     4     1     2    1
     5     2     3    1
     6    31    30    2
     7    29    28    1
     8    29    30    1
     9    27    25    1
    10    28    23   am
    11    17    16    2
    12     3     4    2
    13     3     6   am
    14    22    23    1
    15    22    25    1
    16    22    21    1
    17    23    24    2
    18    25    26    1
    19    16    21   am
    20    16    15    1
    21     6     7    1
    22    18    15    1
    23    18    20    1
    24    18    19    1
    25    14    15    1
    26    14     8   am
    27    13    11    1
    28     7     8    1
    29     7    10    1
    30     8     9    2
    31    10    11    1
    32    11    12    1
