@<TRIPOS>MOLECULE
3rl8_III_F_1.pdb
 48 48 0 0 0
SMALL
GASTEIGER

@<TRIPOS>ATOM
      1  N         58.3730   -7.4220   50.7610 N.3   2838  TYR2838    -0.1227
      2  CA        59.7190   -7.6770   51.3880 C.3   2838  TYR2838     0.1736
      3  C         60.8010   -6.7700   50.7930 C.2   2838  TYR2838     0.2595
      4  O         61.5260   -6.1030   51.5260 O.2   2838  TYR2838    -0.2718
      5  CB        60.1190   -9.1470   51.2670 C.3   2838  TYR2838     0.0548
      6  CG        59.9820   -9.9610   52.5390 C.ar  2838  TYR2838    -0.0200
      7  CD1       60.2630   -9.4030   53.7890 C.ar  2838  TYR2838    -0.0009
      8  CD2       59.6150  -11.3080   52.4870 C.ar  2838  TYR2838    -0.0009
      9  CE1       60.1510  -10.1570   54.9560 C.ar  2838  TYR2838     0.0417
     10  CE2       59.5080  -12.0760   53.6500 C.ar  2838  TYR2838     0.0417
     11  CZ        59.7780  -11.4940   54.8790 C.ar  2838  TYR2838     0.1957
     12  OH        59.6710  -12.2420   56.0280 O.3   2838  TYR2838    -0.2866
     13  N         60.9080   -6.7650   49.4660 N.am  2839  LEU2839    -0.1966
     14  CA        61.6700   -5.7490   48.7380 C.3   2839  LEU2839     0.1728
     15  C         60.7080   -4.7770   48.0280 C.2   2839  LEU2839     0.2616
     16  O         61.0330   -3.6070   47.8180 O.2   2839  LEU2839    -0.2715
     17  CB        62.6380   -6.4100   47.7390 C.3   2839  LEU2839     0.0311
     18  CG        63.8370   -5.7230   47.0450 C.3   2839  LEU2839     0.0022
     19  CD1       63.3950   -4.7810   45.9060 C.3   2839  LEU2839     0.0001
     20  CD2       64.7910   -5.0220   48.0250 C.3   2839  LEU2839     0.0001
     21  N         59.5190   -5.2470   47.6710 N.am  2840  VAL2840    -0.1963
     22  CA        58.5750   -4.3740   46.9850 C.3   2840  VAL2840     0.1727
     23  C         57.8570   -3.4610   47.9740 C.2   2840  VAL2840     0.2617
     24  O         57.5300   -3.8480   49.0980 O.2   2840  VAL2840    -0.2715
     25  CB        57.5660   -5.1260   46.0340 C.3   2840  VAL2840     0.0290
     26  CG1       58.3080   -5.8630   44.9130 C.3   2840  VAL2840     0.0023
     27  CG2       56.6610   -6.0710   46.7970 C.3   2840  VAL2840     0.0023
     28  N         57.6560   -2.2230   47.5530 N.am  2841  THR2841    -0.1937
     29  CA        56.8630   -1.2860   48.3250 C.3   2841  THR2841     0.2028
     30  C         55.5620   -1.0990   47.5480 C.2   2841  THR2841     0.2643
     31  O         55.5640   -0.4780   46.4800 O.2   2841  THR2841    -0.2714
     32  CB        57.6240    0.0400   48.5210 C.3   2841  THR2841     0.1808
     33  OG1       58.8160   -0.2090   49.2890 O.3   2841  THR2841    -0.2208
     34  CG2       56.7580    1.0650   49.2480 C.3   2841  THR2841     0.0379
     35  N         54.4690   -1.6090   48.1260 N.am  2842  SER2842    -0.1935
     36  CA        53.1610   -1.6850   47.4690 C.3   2842  SER2842     0.2055
     37  C         52.1440   -0.7230   48.0930 C.2   2842  SER2842     0.2644
     38  O         51.9950   -0.6700   49.3130 O.2   2842  SER2842    -0.2714
     39  CB        52.6380   -3.1300   47.5060 C.3   2842  SER2842     0.2130
     40  OG        51.2440   -3.2090   47.2110 O.3   2842  SER2842    -0.2179
     41  N         51.4490    0.0290   47.2460 N.am  2843  VAL2843    -0.1941
     42  CA        50.4850    1.0310   47.6820 C.3   2843  VAL2843     0.1977
     43  C         49.0630    0.6880   47.1800 C.2   2843  VAL2843     0.3842
     44  O         48.0610    1.3490   47.5360 O.co2 2843  VAL2843    -0.2437
     45  CB        50.9060    2.4970   47.2660 C.3   2843  VAL2843     0.0311
     46  CG1       52.2890    2.8870   47.8270 C.3   2843  VAL2843     0.0023
     47  CG2       50.8640    2.6950   45.7620 C.3   2843  VAL2843     0.0023
     48  OXT       48.8720   -0.2860   46.4210 O.co2 2843  VAL2843    -0.2437
@<TRIPOS>BOND
     1    26    25    1
     2    47    45    1
     3    19    18    1
     4    25    27    1
     5    25    22    1
     6    48    43   ar
     7    31    30    2
     8    22    21    1
     9    22    23    1
    10    18    17    1
    11    18    20    1
    12    43    44   ar
    13    43    42    1
    14    40    39    1
    15    41    42    1
    16    41    37   am
    17    45    42    1
    18    45    46    1
    19    36    39    1
    20    36    37    1
    21    36    35    1
    22    30    35   am
    23    30    29    1
    24    28    23   am
    25    28    29    1
    26    21    15   am
    27    17    14    1
    28    16    15    2
    29    23    24    2
    30    15    14    1
    31    37    38    2
    32    29    32    1
    33    32    34    1
    34    32    33    1
    35    14    13    1
    36    13     3   am
    37     1     2    1
    38     3     2    1
    39     3     4    2
    40     5     2    1
    41     5     6    1
    42     8     6   ar
    43     8    10   ar
    44     6     7   ar
    45    10    11   ar
    46     7     9   ar
    47    11     9   ar
    48    11    12    1
