@<TRIPOS>MOLECULE
3rl9_ADE_A_1.pdb
 10 11 0 0 0
SMALL
GASTEIGER

@<TRIPOS>ATOM
      1  N9       -17.1390  -14.4210   -8.3000 N.2   248  ADE248     -0.1914
      2  C8       -15.8750  -14.5520   -7.8020 C.3   248  ADE248      0.2618
      3  N7       -15.0050  -14.9770   -8.6870 N.2   248  ADE248     -0.2267
      4  C5       -15.7440  -15.1360   -9.8470 C.2   248  ADE248      0.2303
      5  C6       -15.4050  -15.5640  -11.1540 C.2   248  ADE248      0.4393
      6  N6       -14.1670  -15.9220  -11.5190 N.pl3 248  ADE248      0.2185
      7  N1       -16.3940  -15.6030  -12.0780 N.2   248  ADE248     -0.0265
      8  C2       -17.6370  -15.2450  -11.7140 C.3   248  ADE248      0.4008
      9  N3       -18.0720  -14.8320  -10.5190 N.2   248  ADE248     -0.1640
     10  C4       -17.0690  -14.8000   -9.6220 C.1   248  ADE248      0.0579
@<TRIPOS>BOND
     1     7     8    1
     2     7     5    2
     3     8     9    1
     4     6     5    1
     5     5     4    1
     6     9    10    2
     7     4    10    1
     8     4     3    2
     9    10     1    2
    10     3     2    1
    11     1     2    1
