@<TRIPOS>MOLECULE
3rlb_VIB_A_1.pdb
 18 19 0 0 0
SMALL
GASTEIGER

@<TRIPOS>ATOM
      1  CM2       37.0650  -25.2360   41.7910 C.3   191  VIB191      0.1291
      2  N4A       36.2090  -21.6970   44.8310 N.pl3 191  VIB191     -0.0925
      3  CM4       33.0740  -21.9020   48.7990 C.3   191  VIB191      0.0473
      4  O1        28.9960  -20.3490   48.8980 O.3   191  VIB191     -0.2200
      5  C7        29.4930  -20.4020   47.5680 C.3   191  VIB191      0.1873
      6  C6        30.9120  -19.8960   47.6810 C.3   191  VIB191      0.0691
      7  C2        32.9770  -21.9370   45.1150 C.3   191  VIB191      0.1543
      8  S1        31.7250  -20.7330   45.1530 S.3   191  VIB191     -0.0951
      9  C5        31.8150  -20.7910   46.8750 C.2   191  VIB191      0.0165
     10  C4        32.7970  -21.7330   47.3410 C.2   191  VIB191      0.0279
     11  N3        33.4340  -22.3470   46.3040 N.pl3 191  VIB191     -0.2970
     12  C7A       34.4990  -23.3380   46.5240 C.3   191  VIB191      0.1237
     13  C4A       35.9570  -22.9830   44.5080 C.2   191  VIB191      0.2292
     14  N3A       36.5220  -23.4680   43.4040 N.2   191  VIB191     -0.3368
     15  C2A       36.3950  -24.7750   43.0550 C.1   191  VIB191      0.0663
     16  N1A       35.6320  -25.6160   43.7720 N.2   191  VIB191     -0.1861
     17  C6A       35.0210  -25.1710   44.8890 C.2   191  VIB191      0.1115
     18  C5A       35.1580  -23.8310   45.2780 C.2   191  VIB191      0.0654
@<TRIPOS>BOND
     1     1    15    1
     2    15    14    2
     3    15    16    2
     4    14    13    2
     5    16    17    1
     6    13     2    1
     7    13    18    1
     8    17    18    2
     9     7     8    1
    10     7    11    1
    11     8     9    1
    12    18    12    1
    13    11    12    1
    14    11    10    1
    15     9    10    2
    16     9     6    1
    17    10     3    1
    18     5     6    1
    19     5     4    1
