@<TRIPOS>MOLECULE
3rlf_ANP_A_1.pdb
 31 33 0 0 0
SMALL
GASTEIGER

@<TRIPOS>ATOM
      1  PG        53.0030    1.8890    3.4450 P.3   2501  ANP2501     0.4884
      2  O1G       52.5470    2.9550    2.4780 O.2   2501  ANP2501    -0.2331
      3  O2G       53.2540    2.3880    4.8370 O.3   2501  ANP2501    -0.1240
      4  O3G       54.0990    0.9970    2.9150 O.3   2501  ANP2501    -0.1240
      5  PB        51.1260   -0.0990    4.8630 P.3   2501  ANP2501     0.4669
      6  O1B       51.2410   -1.5320    4.4000 O.2   2501  ANP2501    -0.2351
      7  O2B       51.8910    0.3570    6.0740 O.3   2501  ANP2501    -0.1253
      8  N3B       51.5710    0.8970    3.5020 N.3   2501  ANP2501    -0.0163
      9  PA        48.8690    0.5210    6.5220 P.3   2501  ANP2501     0.2220
     10  O1A       49.4080    1.8510    6.9880 O.2   2501  ANP2501    -0.5170
     11  O2A       48.9650   -0.6410    7.4770 O.3   2501  ANP2501    -0.4370
     12  O3A       49.5420    0.1190    5.1130 O.3   2501  ANP2501    -0.2360
     13  O5'       47.3170    0.7120    6.1140 O.3   2501  ANP2501    -0.3111
     14  C5'       46.6140   -0.3560    5.4720 C.3   2501  ANP2501     0.1813
     15  C4'       45.3470    0.1360    4.7860 C.3   2501  ANP2501     0.1821
     16  O4'       44.4190    0.5680    5.7730 O.3   2501  ANP2501    -0.3135
     17  C3'       45.5820    1.3130    3.8470 C.3   2501  ANP2501     0.2184
     18  O3'       44.9340    0.9920    2.6130 O.3   2501  ANP2501    -0.2174
     19  C2'       44.9260    2.5050    4.5280 C.3   2501  ANP2501     0.2570
     20  O2'       44.2930    3.3820    3.5830 O.3   2501  ANP2501    -0.2130
     21  C1'       43.8990    1.8500    5.4480 C.3   2501  ANP2501     0.3186
     22  N9        43.6930    2.5680    6.7280 N.pl3 2501  ANP2501    -0.1439
     23  C8        44.6510    2.9200    7.6160 C.3   2501  ANP2501     0.3377
     24  N7        44.1050    3.5510    8.6870 N.2   2501  ANP2501    -0.2095
     25  C5        42.7730    3.5990    8.4910 C.2   2501  ANP2501     0.2526
     26  C6        41.6020    4.1210    9.2350 C.2   2501  ANP2501     0.4393
     27  N6        41.7680    4.7370   10.4340 N.pl3 2501  ANP2501     0.2180
     28  N1        40.3760    3.9700    8.6730 N.2   2501  ANP2501     0.0021
     29  C2        40.2050    3.3580    7.4810 C.3   2501  ANP2501     0.5254
     30  N3        41.2240    2.8520    6.7580 N.2   2501  ANP2501    -0.0055
     31  C4        42.5050    2.9430    7.2010 C.2   2501  ANP2501     0.3518
@<TRIPOS>BOND
     1     2     1    2
     2    18    17    1
     3     4     1    1
     4     1     8    1
     5     1     3    1
     6     8     5    1
     7    20    19    1
     8    17    19    1
     9    17    15    1
    10     6     5    2
    11    19    21    1
    12    15    14    1
    13    15    16    1
    14     5    12    1
    15     5     7    1
    16    12     9    1
    17    21    16    1
    18    21    22    1
    19    14    13    1
    20    13     9    1
    21     9    10    2
    22     9    11    1
    23    22    31    1
    24    22    23    1
    25    30    31    2
    26    30    29    1
    27    31    25    1
    28    29    28    1
    29    23    24    1
    30    25    24    2
    31    25    26    1
    32    28    26    2
    33    26    27    1
