@<TRIPOS>MOLECULE
3rlf_MAL_F_1.pdb
 23 24 0 0 0
SMALL
GASTEIGER

@<TRIPOS>ATOM
      1  C1        34.4910   40.0240   29.1590 C.3   2000  MAL2000     0.2695
      2  C2        34.5220   41.3500   29.9160 C.3   2000  MAL2000     0.2406
      3  C3        33.1160   41.9220   30.0840 C.3   2000  MAL2000     0.2198
      4  C4        32.4010   42.0180   28.7330 C.3   2000  MAL2000     0.2144
      5  C5        32.4550   40.6810   27.9850 C.3   2000  MAL2000     0.1835
      6  C6        31.8810   40.8200   26.5800 C.3   2000  MAL2000     0.2142
      7  O1        33.8340   39.0360   29.9600 O.3   2000  MAL2000    -0.3257
      8  O2        35.1160   41.1510   31.2020 O.3   2000  MAL2000    -0.2149
      9  O3        33.1970   43.2140   30.6890 O.3   2000  MAL2000    -0.2174
     10  O4        31.0390   42.4150   28.9380 O.3   2000  MAL2000    -0.2176
     11  O5        33.8070   40.1930   27.9090 O.3   2000  MAL2000    -0.3256
     12  O6        31.7530   39.5350   25.9590 O.3   2000  MAL2000    -0.2176
     13  C1'       34.6050   35.0190   31.0340 C.3   2000  MAL2000     0.3023
     14  C2'       35.5440   36.1080   31.5630 C.3   2000  MAL2000     0.2433
     15  C3'       34.9150   37.4930   31.4450 C.3   2000  MAL2000     0.2168
     16  C4'       34.4850   37.7660   30.0080 C.3   2000  MAL2000     0.1804
     17  C5'       33.5180   36.6780   29.5320 C.3   2000  MAL2000     0.1804
     18  C6'       33.2580   36.8290   28.0380 C.3   2000  MAL2000     0.2141
     19  O1'       33.5860   34.7240   31.9970 O.3   2000  MAL2000    -0.1869
     20  O2'       35.8740   35.8440   32.9320 O.3   2000  MAL2000    -0.2148
     21  O3'       35.8410   38.5030   31.8650 O.3   2000  MAL2000    -0.2175
     22  O5'       34.0090   35.3460   29.7620 O.3   2000  MAL2000    -0.3237
     23  O6'       32.2760   35.8760   27.6310 O.3   2000  MAL2000    -0.2176
@<TRIPOS>BOND
     1    12     6    1
     2     6     5    1
     3    23    18    1
     4    11     5    1
     5    11     1    1
     6     5     4    1
     7    18    17    1
     8     4    10    1
     9     4     3    1
    10     1     2    1
    11     1     7    1
    12    17    22    1
    13    17    16    1
    14    22    13    1
    15     2     3    1
    16     2     8    1
    17     7    16    1
    18    16    15    1
    19     3     9    1
    20    13    14    1
    21    13    19    1
    22    15    14    1
    23    15    21    1
    24    14    20    1
