@<TRIPOS>MOLECULE
3rli_PMS_A_1.pdb
 10 10 0 0 0
SMALL
GASTEIGER

@<TRIPOS>ATOM
      1  C         12.5890    9.2220    5.7400 C.3   400  PMS400      0.1742
      2  S         11.1720    8.6820    6.6030 S.3   400  PMS400     -0.0138
      3  C1        12.3620   10.0490    4.4540 C.ar  400  PMS400      0.0010
      4  C2        11.8700   11.3590    4.5630 C.ar  400  PMS400     -0.0026
      5  C3        11.6780   12.0990    3.3900 C.ar  400  PMS400     -0.0003
      6  C4        11.9690   11.5310    2.1300 C.ar  400  PMS400     -0.0000
      7  C5        12.4600   10.2310    2.0260 C.ar  400  PMS400     -0.0003
      8  C6        12.6510    9.4780    3.2100 C.ar  400  PMS400     -0.0026
      9  O2S       10.4540    7.5980    5.9420 O.3   400  PMS400     -0.0778
     10  O1S       10.2910    9.8620    6.9350 O.3   400  PMS400     -0.0778
@<TRIPOS>BOND
     1     7     6   ar
     2     7     8   ar
     3     6     5   ar
     4     8     3   ar
     5     5     4   ar
     6     3     4   ar
     7     3     1    1
     8     1     2    1
     9     9     2    1
    10     2    10    1
