@<TRIPOS>MOLECULE
3rlj_RLJ_A_1.pdb
 28 29 0 0 0
SMALL
GASTEIGER

@<TRIPOS>ATOM
      1  C1        28.0400    4.8800    3.5090 C.ar    1  RLJ1        0.0173
      2  F1        23.7090    2.5460    3.9970 F       1  RLJ1       -0.1658
      3  C2        27.0690    5.8740    3.4780 C.ar    1  RLJ1        0.0116
      4  F2        23.5880    4.1100    5.4650 F       1  RLJ1       -0.1658
      5  C3        25.7300    5.5610    3.6830 C.ar    1  RLJ1        0.0724
      6  F3        23.0210    4.4890    3.4140 F       1  RLJ1       -0.1658
      7  C4        25.3440    4.2420    3.9190 C.ar    1  RLJ1        0.0823
      8  C5        27.6680    3.5620    3.7430 C.ar    1  RLJ1        0.0734
      9  C6        26.3250    3.2540    3.9430 C.ar    1  RLJ1        0.0211
     10  C7        23.8850    3.8490    4.1960 C.3     1  RLJ1        0.4192
     11  C8        24.7960    6.6450    3.6630 C.1     1  RLJ1        0.1004
     12  N8        24.0660    7.5180    3.6440 N.1     1  RLJ1       -0.1908
     13  N9        28.6350    2.6490    3.7740 N.am    1  RLJ1       -0.1771
     14  C10       28.4510    1.3490    3.9920 C.2     1  RLJ1        0.2768
     15  O10       27.3630    0.8200    4.2160 O.2     1  RLJ1       -0.2702
     16  C11       29.7450    0.5320    3.9730 C.3     1  RLJ1        0.2359
     17  O11       30.8100    1.3560    3.4930 O.3     1  RLJ1       -0.2124
     18  C12       29.5750   -0.7060    3.0900 C.3     1  RLJ1        0.0465
     19  C13       30.0640    0.0970    5.3940 C.3     1  RLJ1        0.2444
     20  O14       30.1330    1.2850    6.1950 O.3     1  RLJ1       -0.4723
     21  C16       29.9250    1.0180    7.5120 C.ar    1  RLJ1        0.1387
     22  C17       29.2800    1.9720    8.2910 C.ar    1  RLJ1        0.0376
     23  C18       29.0510    1.7300    9.6400 C.ar    1  RLJ1        0.0134
     24  C19       29.4680    0.5330   10.2130 C.ar    1  RLJ1        0.0686
     25  C20       30.1110   -0.4250    9.4360 C.ar    1  RLJ1        0.0134
     26  C21       30.3380   -0.1820    8.0850 C.ar    1  RLJ1        0.0376
     27  C22       29.2460    0.3130   11.6100 C.1     1  RLJ1        0.1004
     28  N22       29.0680    0.1510   12.7220 N.1     1  RLJ1       -0.1908
@<TRIPOS>BOND
     1    18    16    1
     2     6    10    1
     3     3     1   ar
     4     3     5   ar
     5    17    16    1
     6     1     8   ar
     7    12    11    3
     8    11     5    1
     9     5     7   ar
    10     8    13    1
    11     8     9   ar
    12    13    14   am
    13     7     9   ar
    14     7    10    1
    15    16    14    1
    16    16    19    1
    17    14    15    2
    18     2    10    1
    19    10     4    1
    20    19    20    1
    21    20    21    1
    22    21    26   ar
    23    21    22   ar
    24    26    25   ar
    25    22    23   ar
    26    25    24   ar
    27    23    24   ar
    28    24    27    1
    29    27    28    3
