@<TRIPOS>MOLECULE
3rll_RLL_A_1.pdb
 32 34 0 0 0
SMALL
GASTEIGER

@<TRIPOS>ATOM
      1  CAA       29.3660   -1.0770    2.7010 C.3     1  RLL1        0.0465
      2  NAB       23.9830    7.2500    4.1600 N.1     1  RLL1       -0.1908
      3  NAC       28.5000    0.2350   12.1990 N.1     1  RLL1       -0.1908
      4  OAD       27.1670    0.3930    3.8330 O.2     1  RLL1       -0.2702
      5  OAE       30.5510    1.0350    2.9850 O.3     1  RLL1       -0.2124
      6  FAF       23.5160    2.2890    4.2090 F       1  RLL1       -0.1658
      7  FAG       23.5190    3.8670    5.6790 F       1  RLL1       -0.1658
      8  FAH       22.8570    4.2560    3.6580 F       1  RLL1       -0.1658
      9  CAI       24.6910    6.3680    4.0380 C.1     1  RLL1        0.1004
     10  CAJ       28.7460    0.3860   11.0980 C.1     1  RLL1        0.1004
     11  CAK       27.3050    3.7120    8.9340 C.ar    1  RLL1        0.0000
     12  CAL       27.6150    3.8570    7.5860 C.ar    1  RLL1        0.0001
     13  CAM       27.8420    4.5330    3.4270 C.ar    1  RLL1        0.0173
     14  CAN       26.9150    5.5560    3.5740 C.ar    1  RLL1        0.0116
     15  CAO       29.8420   -0.3870    9.0660 C.ar    1  RLL1        0.0134
     16  CAP       30.1460   -0.2400    7.7170 C.ar    1  RLL1        0.0376
     17  CAQ       27.7880    2.6170    9.6430 C.ar    1  RLL1        0.0008
     18  CAR       28.4070    2.9070    6.9520 C.ar    1  RLL1        0.0030
     19  CAS       26.1220    2.9220    3.8830 C.ar    1  RLL1        0.0211
     20  CAT       29.9590   -0.1870    4.9640 C.3     1  RLL1        0.2444
     21  NAU       28.4040    2.2820    3.5220 N.am    1  RLL1       -0.1771
     22  OAV       29.9750    1.0430    5.7030 O.3     1  RLL1       -0.4723
     23  CAW       28.2380    0.9670    3.6430 C.2     1  RLL1        0.2768
     24  CAX       27.4500    3.2090    3.5840 C.ar    1  RLL1        0.0734
     25  CAY       25.5900    5.2650    3.8780 C.ar    1  RLL1        0.0724
     26  CAZ       29.0590    0.5640    9.7130 C.ar    1  RLL1        0.0686
     27  CBA       29.6690    0.8610    7.0160 C.ar    1  RLL1        0.1386
     28  CBB       25.1840    3.9410    4.0340 C.ar    1  RLL1        0.0823
     29  CBC       28.5810    1.6660    9.0110 C.ar    1  RLL1        0.0125
     30  CBD       28.8890    1.8130    7.6620 C.ar    1  RLL1        0.0346
     31  CBE       29.5490    0.1850    3.5490 C.3     1  RLL1        0.2359
     32  CBF       23.7360    3.5860    4.3980 C.3     1  RLL1        0.4192
@<TRIPOS>BOND
     1     1    31    1
     2     5    31    1
     3    13    14   ar
     4    13    24   ar
     5    21    24    1
     6    21    23   am
     7    31    23    1
     8    31    20    1
     9    14    25   ar
    10    24    19   ar
    11    23     4    2
    12     8    32    1
    13    25    28   ar
    14    25     9    1
    15    19    28   ar
    16    28    32    1
    17     9     2    3
    18     6    32    1
    19    32     7    1
    20    20    22    1
    21    22    27    1
    22    18    12   ar
    23    18    30   ar
    24    27    30   ar
    25    27    16   ar
    26    12    11   ar
    27    30    29   ar
    28    16    15   ar
    29    11    17   ar
    30    29    17   ar
    31    29    26   ar
    32    15    26   ar
    33    26    10    1
    34    10     3    3
