@<TRIPOS>MOLECULE
3rlm_HEC_A_1.pdb
 43 50 0 0 0
SMALL
GASTEIGER

@<TRIPOS>ATOM
      1 FE         25.6410   29.5820  -84.6320 Fe    500  HEC500      0.0000
      2  CHA       25.5380   30.2690  -81.2930 C.2   500  HEC500      0.0000
      3  CHB       22.7630   31.3120  -85.1570 C.2   500  HEC500      0.0000
      4  CHC       26.3720   29.6510  -88.0110 C.2   500  HEC500      0.0000
      5  CHD       27.8500   27.0920  -84.1220 C.2   500  HEC500      0.0000
      6  NA        24.3340   30.6330  -83.4030 N.ar  500  HEC500      0.0000
      7  C1A       24.3990   30.7970  -82.0740 C.ar  500  HEC500      0.0000
      8  C2A       23.2600   31.5630  -81.5010 C.ar  500  HEC500      0.0000
      9  C3A       22.4840   31.8770  -82.6070 C.ar  500  HEC500      0.0000
     10  C4A       23.2170   31.2710  -83.7560 C.ar  500  HEC500      0.0000
     11  CMA       21.1840   32.6380  -82.6600 C.3   500  HEC500      0.0000
     12  CAA       23.0040   31.9220  -80.0530 C.3   500  HEC500      0.0000
     13  CBA       21.9850   30.9390  -79.4750 C.3   500  HEC500      0.0000
     14  CGA       22.0140   31.0440  -77.9650 C.2   500  HEC500      0.0000
     15  O1A       21.1930   30.3930  -77.2850 O.co2 500  HEC500      0.0000
     16  O2A       22.8710   31.7870  -77.4410 O.co2 500  HEC500      0.0000
     17  NB        24.6980   30.3480  -86.3290 N.2   500  HEC500      0.0000
     18  C1B       23.5870   31.0820  -86.3590 C.2   500  HEC500      0.0000
     19  C2B       23.2510   31.6120  -87.7060 C.2   500  HEC500      0.0000
     20  C3B       24.2780   31.1470  -88.5200 C.2   500  HEC500      0.0000
     21  C4B       25.1310   30.3570  -87.6050 C.2   500  HEC500      0.0000
     22  CMB       22.0510   32.4740  -88.0550 C.3   500  HEC500      0.0000
     23  CAB       24.4800   31.3760  -89.9950 C.3   500  HEC500      0.0000
     24  CBB       25.0030   32.7760  -90.2380 C.3   500  HEC500      0.0000
     25  NC        26.9410   28.5300  -85.8670 N.ar  500  HEC500      0.0000
     26  C1C       27.0770   28.6230  -87.2030 C.ar  500  HEC500      0.0000
     27  C2C       27.9880   27.6110  -87.7740 C.ar  500  HEC500      0.0000
     28  C3C       28.4250   26.8810  -86.6710 C.ar  500  HEC500      0.0000
     29  C4C       27.7350   27.5180  -85.5250 C.ar  500  HEC500      0.0000
     30  CMC       28.3350   27.4670  -89.2340 C.3   500  HEC500      0.0000
     31  CAC       29.3830   25.7000  -86.5860 C.3   500  HEC500      0.0000
     32  CBC       30.7330   25.9780  -87.2120 C.3   500  HEC500      0.0000
     33  ND        26.5190   28.7540  -82.9340 N.2   500  HEC500      0.0000
     34  C1D       27.5530   27.9030  -82.9230 C.2   500  HEC500      0.0000
     35  C2D       28.3120   27.8600  -81.6470 C.2   500  HEC500      0.0000
     36  C3D       27.6450   28.7760  -80.8570 C.2   500  HEC500      0.0000
     37  C4D       26.5450   29.2840  -81.7200 C.2   500  HEC500      0.0000
     38  CMD       29.5280   27.0370  -81.3060 C.3   500  HEC500      0.0000
     39  CAD       27.9500   29.1890  -79.4410 C.3   500  HEC500      0.0000
     40  CBD       29.0320   30.2400  -79.5520 C.3   500  HEC500      0.0000
     41  CGD       29.2850   30.9120  -78.2280 C.2   500  HEC500      0.0000
     42  O1D       30.2430   31.7250  -78.2010 O.co2 500  HEC500      0.0000
     43  O2D       28.5440   30.6430  -77.2370 O.co2 500  HEC500      0.0000
@<TRIPOS>BOND
     1    24    23    1
     2    23    20    1
     3    30    27    1
     4    20    19    2
     5    20    21    1
     6    22    19    1
     7     4    21    2
     8     4    26    1
     9    27    26   ar
    10    27    28   ar
    11    19    18    1
    12    21    17    1
    13    32    31    1
    14    26    25   ar
    15    28    31    1
    16    28    29   ar
    17    18    17    2
    18    18     3    1
    19    17     1    1
    20    25    29   ar
    21    25     1    1
    22    29     5    1
    23     3    10    2
    24     1     6    1
    25     1    33    1
    26     5    34    2
    27    10     6   ar
    28    10     9   ar
    29     6     7   ar
    30    33    34    1
    31    33    37    2
    32    34    35    1
    33    11     9    1
    34     9     8   ar
    35     7     8   ar
    36     7     2    2
    37    37     2    1
    38    37    36    1
    39    35    38    1
    40    35    36    2
    41     8    12    1
    42    36    39    1
    43    12    13    1
    44    40    39    1
    45    40    41    1
    46    13    14    1
    47    41    42   ar
    48    41    43   ar
    49    14    16   ar
    50    14    15   ar
