@<TRIPOS>MOLECULE
3rlp_3RP_A_1.pdb
 18 19 0 0 0
SMALL
GASTEIGER

@<TRIPOS>ATOM
      1  N1        17.5980   -1.9320   49.9900 N.2   901  3RP901     -0.3343
      2  N3        17.5890    0.3940   49.5140 N.pl3 901  3RP901     -0.0232
      3  C4        16.9790   -3.0210   50.5380 C.2   901  3RP901      0.1078
      4  C5        17.6790   -4.3490   50.4430 C.3   901  3RP901      0.0630
      5  C6        13.8330   -1.5150   51.8430 C.ar  901  3RP901      0.0404
      6  C7        12.6620   -1.1740   51.0870 C.ar  901  3RP901      0.0609
      7  C8        11.3990   -1.0650   51.7310 C.ar  901  3RP901      0.0259
      8  C10       12.4300   -1.6080   53.9260 C.ar  901  3RP901      0.1493
      9  C11       13.6940   -1.7220   53.2580 C.ar  901  3RP901      0.0409
     10  C3        15.7460   -2.9430   51.1650 C.3   901  3RP901      0.1153
     11  C9        11.2820   -1.2830   53.1350 C.ar  901  3RP901      0.0924
     12  C2        15.1520   -1.6710   51.2130 C.2   901  3RP901      0.1303
     13  C1        16.9630   -0.7150   50.0710 C.1   901  3RP901      0.2405
     14  C12       13.3180   -2.1170   56.1500 C.3   901  3RP901      0.2525
     15  N2        15.7410   -0.5540   50.6750 N.2   901  3RP901     -0.3298
     16  O1        12.2160   -1.7910   55.2900 O.3   901  3RP901     -0.4706
     17 CL1        12.7250   -0.8880   49.3630 Cl    901  3RP901     -0.0821
     18 CL2         9.7040   -1.1440   53.8430 Cl    901  3RP901     -0.0791
@<TRIPOS>BOND
     1    17     6    1
     2     2    13    1
     3     1    13    2
     4     1     3    2
     5    13    15    2
     6     4     3    1
     7     3    10    1
     8    15    12    2
     9     6     7   ar
    10     6     5   ar
    11    10    12    1
    12    12     5    1
    13     7    11   ar
    14     5     9   ar
    15    11    18    1
    16    11     8   ar
    17     9     8   ar
    18     8    16    1
    19    16    14    1
