@<TRIPOS>MOLECULE
3rlq_3RQ_A_1.pdb
 22 24 0 0 0
SMALL
GASTEIGER

@<TRIPOS>ATOM
      1  N1        17.5740   -2.2510   49.8550 N.2   901  3RQ901     -0.2945
      2  N3        17.5210    0.0570   49.1460 N.2   901  3RQ901     -0.1843
      3  C4        12.5830   -1.2200   51.1210 C.ar  901  3RQ901      0.0609
      4  C5        11.3640   -1.1260   51.8280 C.ar  901  3RQ901      0.0259
      5  C6        11.3350   -1.3100   53.2260 C.ar  901  3RQ901      0.0924
      6  C7        13.5310   -2.0160   56.1540 C.3   901  3RQ901      0.2525
      7  C8        15.1050   -1.6430   51.1220 C.2   901  3RQ901      0.1414
      8  C10       17.4080   -4.5430   50.7030 C.3   901  3RQ901      0.1437
      9  C13       15.6180    0.7690   50.0590 C.2   901  3RQ901      0.0875
     10  C15       14.5520    1.6520   50.4270 C.1   901  3RQ901      0.0992
     11  C2        13.7680   -1.6870   53.2290 C.ar  901  3RQ901      0.0409
     12  C14       16.6970    1.1470   49.2930 C.2   901  3RQ901      0.1176
     13  C12       15.7840   -0.6130   50.3960 C.3   901  3RQ901      0.1842
     14  C3        13.8200   -1.5110   51.8130 C.ar  901  3RQ901      0.0414
     15  C1        12.5330   -1.5880   53.9620 C.ar  901  3RQ901      0.1493
     16  C11       16.9940   -1.0140   49.8040 C.1   901  3RQ901      0.0862
     17  C9        16.8520   -3.1520   50.5750 C.1   901  3RQ901      0.1244
     18  N4        13.6860    2.3450   50.7550 N.1   901  3RQ901     -0.1911
     19  N2        15.6670   -2.9090   51.1960 N.2   901  3RQ901     -0.3458
     20  O1        12.3870   -1.7390   55.3340 O.3   901  3RQ901     -0.4706
     21 CL2        12.5000   -0.9690   49.4020 Cl    901  3RQ901     -0.0821
     22 CL1         9.7980   -1.1840   53.9980 Cl    901  3RQ901     -0.0791
@<TRIPOS>BOND
     1     2    12    1
     2     2    16    2
     3    12     9    2
     4    21     3    1
     5    16     1    2
     6    16    13    1
     7     1    17    2
     8     9    13    1
     9     9    10    1
    10    13     7    1
    11    10    18    3
    12    17     8    1
    13    17    19    2
    14     3    14   ar
    15     3     4   ar
    16     7    19    2
    17     7    14    1
    18    14    11   ar
    19     4     5   ar
    20     5    15   ar
    21     5    22    1
    22    11    15   ar
    23    15    20    1
    24    20     6    1
