@<TRIPOS>MOLECULE
3rlr_3RR_A_1.pdb
 23 25 0 0 0
SMALL
GASTEIGER

@<TRIPOS>ATOM
      1  N1        17.4370   -1.9070   49.6060 N.2   901  3RR901     -0.2792
      2  N3        17.2740    0.3930   48.8600 N.2   901  3RR901     -0.3429
      3  C4        15.5890   -0.3350   50.1480 C.2   901  3RR901      0.1285
      4  C5        15.3590    1.0360   49.7960 C.2   901  3RR901      0.1085
      5  C6        16.4090    1.4600   48.9960 C.2   901  3RR901      0.1322
      6  C7        17.3730   -4.1950   50.4820 C.3   901  3RR901      0.1438
      7  C8        13.6830   -1.2970   51.5960 C.ar  901  3RR901      0.0449
      8  C10       11.2160   -1.0170   51.6170 C.ar  901  3RR901      0.0259
      9  C13       13.6450   -1.4550   53.0100 C.ar  901  3RR901      0.0412
     10  C15       14.2520    1.8660   50.1830 C.1   901  3RR901      0.1035
     11  C12       12.4180   -1.4000   53.7460 C.ar  901  3RR901      0.1493
     12  C9        12.4390   -1.0690   50.9070 C.ar  901  3RR901      0.0612
     13  C11       11.2060   -1.1860   53.0220 C.ar  901  3RR901      0.0924
     14  C2        14.9630   -1.3840   50.8970 C.2   901  3RR901      0.1564
     15  C3        16.8050   -0.6940   49.5440 C.1   901  3RR901      0.1519
     16  C1        16.7640   -2.8290   50.3480 C.1   901  3RR901      0.1263
     17  C16       16.6870    2.7640   48.3490 C.3   901  3RR901      0.0682
     18  C14       13.4710   -1.7550   55.9190 C.3   901  3RR901      0.2525
     19  N4        13.3650    2.5150   50.5400 N.1   901  3RR901     -0.1907
     20  N2        15.5770   -2.6260   50.9800 N.2   901  3RR901     -0.3420
     21  O1        12.3000   -1.5410   55.1170 O.3   901  3RR901     -0.4706
     22 CL2        12.3710   -0.8450   49.1780 Cl    901  3RR901     -0.0821
     23 CL1         9.6740   -1.1240   53.8170 Cl    901  3RR901     -0.0791
@<TRIPOS>BOND
     1    17     5    1
     2     2     5    2
     3     2    15    2
     4     5     4    1
     5    22    12    1
     6    15     1    2
     7    15     3    1
     8     1    16    2
     9     4     3    2
    10     4    10    1
    11     3    14    1
    12    10    19    3
    13    16     6    1
    14    16    20    2
    15    14    20    2
    16    14     7    1
    17    12     7   ar
    18    12     8   ar
    19     7     9   ar
    20     8    13   ar
    21     9    11   ar
    22    13    11   ar
    23    13    23    1
    24    11    21    1
    25    21    18    1
