@<TRIPOS>MOLECULE
3rlu_BMP_A_1.pdb
 22 23 0 0 0
SMALL
GASTEIGER

@<TRIPOS>ATOM
      1  P         25.0630   -2.4640    8.4250 P.3   229  BMP229      0.5327
      2  OP1       24.2990   -3.2320    7.4110 O.2   229  BMP229     -0.2224
      3  OP2       25.8000   -3.4070    9.4730 O.3   229  BMP229     -0.1145
      4  OP3       26.0570   -1.4370    7.7500 O.3   229  BMP229     -0.1145
      5  O5'       24.0700   -1.6470    9.3620 O.3   229  BMP229     -0.2675
      6  C5'       22.9280   -0.9750    8.8450 C.3   229  BMP229      0.1859
      7  C4'       22.2250   -0.2460    9.9510 C.3   229  BMP229      0.1801
      8  O4'       21.1740    0.5790    9.3980 O.3   229  BMP229     -0.3319
      9  C3'       21.5730   -1.1430   10.9850 C.3   229  BMP229      0.2158
     10  O3'       21.5820   -0.4900   12.2510 O.3   229  BMP229     -0.2175
     11  C2'       20.1350   -1.2480   10.4940 C.3   229  BMP229      0.2320
     12  O2'       19.2150   -1.5180   11.5330 O.3   229  BMP229     -0.2157
     13  C1'       19.9120    0.1400    9.8670 C.3   229  BMP229      0.2425
     14  N1        18.9790    0.1600    8.7220 N.am  229  BMP229     -0.1473
     15  C2        19.1100   -0.6330    7.6410 C.1   229  BMP229      0.2863
     16  O2        20.0160   -1.4540    7.5660 O.2   229  BMP229     -0.1918
     17  N3        18.2320   -0.5470    6.6170 N.2   229  BMP229     -0.2489
     18  C4        17.2070    0.3370    6.6230 C.1   229  BMP229      0.2018
     19  O4        16.4320    0.3780    5.6590 O.2   229  BMP229     -0.2129
     20  C5        17.0600    1.1990    7.7240 C.3   229  BMP229      0.2213
     21  C6        17.9710    1.0970    8.7470 C.2   229  BMP229      0.2591
     22  O1        17.8970    1.9040    9.8050 O.2   229  BMP229     -0.2725
@<TRIPOS>BOND
     1    19    18    2
     2    17    18    2
     3    17    15    2
     4    18    20    1
     5     2     1    2
     6    16    15    2
     7    15    14   am
     8    20    21    1
     9     4     1    1
    10     1     5    1
    11     1     3    1
    12    14    21   am
    13    14    13    1
    14    21    22    2
    15     6     5    1
    16     6     7    1
    17     8    13    1
    18     8     7    1
    19    13    11    1
    20     7     9    1
    21    11     9    1
    22    11    12    1
    23     9    10    1
