@<TRIPOS>MOLECULE
3rlv_BMP_A_1.pdb
 22 23 0 0 0
SMALL
GASTEIGER

@<TRIPOS>ATOM
      1  P         25.1660   -2.5570    8.1830 P.3   229  BMP229      0.5327
      2  OP1       24.4200   -3.3260    7.1650 O.2   229  BMP229     -0.2224
      3  OP2       25.9480   -3.5150    9.1720 O.3   229  BMP229     -0.1145
      4  OP3       26.1540   -1.5200    7.4920 O.3   229  BMP229     -0.1145
      5  O5'       24.1740   -1.7700    9.1460 O.3   229  BMP229     -0.2675
      6  C5'       23.0330   -1.0970    8.6350 C.3   229  BMP229      0.1859
      7  C4'       22.3430   -0.3560    9.7390 C.3   229  BMP229      0.1801
      8  O4'       21.3090    0.4760    9.1850 O.3   229  BMP229     -0.3319
      9  C3'       21.6800   -1.2370   10.7840 C.3   229  BMP229      0.2158
     10  O3'       21.7130   -0.5780   12.0480 O.3   229  BMP229     -0.2175
     11  C2'       20.2400   -1.3170   10.3010 C.3   229  BMP229      0.2320
     12  O2'       19.3150   -1.5630   11.3440 O.3   229  BMP229     -0.2157
     13  C1'       20.0410    0.0710    9.6680 C.3   229  BMP229      0.2425
     14  N1        19.0940    0.1110    8.5300 N.am  229  BMP229     -0.1473
     15  C2        19.2240   -0.6730    7.4410 C.1   229  BMP229      0.2863
     16  O2        20.1230   -1.5010    7.3630 O.2   229  BMP229     -0.1918
     17  N3        18.3340   -0.5910    6.4230 N.2   229  BMP229     -0.2489
     18  C4        17.3110    0.2990    6.4320 C.1   229  BMP229      0.2018
     19  O4        16.5360    0.3370    5.4750 O.2   229  BMP229     -0.2129
     20  C5        17.1600    1.1510    7.5410 C.3   229  BMP229      0.2213
     21  C6        18.0770    1.0450    8.5660 C.2   229  BMP229      0.2591
     22  O1        18.0230    1.8370    9.6370 O.2   229  BMP229     -0.2725
@<TRIPOS>BOND
     1    19    18    2
     2    17    18    2
     3    17    15    2
     4    18    20    1
     5     2     1    2
     6    16    15    2
     7    15    14   am
     8     4     1    1
     9    20    21    1
    10     1     5    1
    11     1     3    1
    12    14    21   am
    13    14    13    1
    14    21    22    2
    15     6     5    1
    16     6     7    1
    17     8    13    1
    18     8     7    1
    19    13    11    1
    20     7     9    1
    21    11     9    1
    22    11    12    1
    23     9    10    1
