@<TRIPOS>MOLECULE
3rlw_S28_H_1.pdb
 32 34 0 0 0
SMALL
GASTEIGER

@<TRIPOS>ATOM
      1  C7        18.7110  -16.8010   26.4490 C.3     1  S281        0.1969
      2  S8        17.7800  -17.3460   25.1710 S.O2    1  S281        0.0620
      3  C6        19.8750  -15.9700   25.9400 C.ar    1  S281        0.0030
      4  C1        19.8480  -14.5840   26.0690 C.ar    1  S281       -0.0025
      5  C2        20.9000  -13.8120   25.5930 C.ar    1  S281       -0.0003
      6  C3        21.9930  -14.4230   24.9830 C.ar    1  S281       -0.0000
      7  C4        22.0230  -15.8040   24.8590 C.ar    1  S281       -0.0003
      8  C5        20.9670  -16.5760   25.3290 C.ar    1  S281       -0.0025
      9  O13       18.4830  -18.3050   24.3590 O.2     1  S281       -0.1558
     10  O14       16.5740  -17.9380   25.6790 O.2     1  S281       -0.1558
     11  N9        17.3790  -16.0920   24.2630 N.3     1  S281       -0.0718
     12  C10       18.1400  -15.8530   23.0590 C.3     1  S281        0.1998
     13  C11       17.7420  -14.5380   22.4400 C.2     1  S281        0.2457
     14  O15       16.6830  -14.0100   22.7690 O.2     1  S281       -0.2732
     15  N12       18.5900  -14.0290   21.5540 N.am    1  S281       -0.2717
     16  C16       18.2970  -12.7690   20.8830 C.3     1  S281        0.1535
     17  C17       16.9470  -12.8440   20.2280 C.2     1  S281        0.2598
     18  O18       16.5880  -13.8690   19.6520 O.2     1  S281       -0.2715
     19  C21       19.3720  -12.6150   19.8160 C.3     1  S281        0.0310
     20  C22       20.4610  -13.6090   20.1730 C.3     1  S281        0.0237
     21  C23       19.8610  -14.6200   21.1400 C.3     1  S281        0.0939
     22  N19       16.1700  -11.7610   20.3140 N.am    1  S281       -0.1992
     23  C20       14.8350  -11.6580   19.7330 C.3     1  S281        0.1415
     24  C24       13.8100  -11.6620   20.8400 C.ar    1  S281       -0.0006
     25  C31       13.3190  -12.8560   21.3510 C.ar    1  S281       -0.0023
     26  C29       12.3740  -12.8460   22.3740 C.ar    1  S281        0.0077
     27  C28       11.9100  -11.6340   22.8810 C.ar    1  S281        0.0975
     28  C26       10.8970  -11.6020   23.9890 C.2     1  S281        0.4766
     29  N30       10.6540  -10.5180   24.5890 N.pl3   1  S281        0.2047
     30  N32       10.2840  -12.6530   24.3290 N.pl3   1  S281        0.2047
     31  C27       12.4040  -10.4450   22.3660 C.ar    1  S281        0.0077
     32  C25       13.3500  -10.4560   21.3500 C.ar    1  S281       -0.0023
@<TRIPOS>BOND
     1    18    17    2
     2    23    22    1
     3    23    24    1
     4    19    20    1
     5    19    16    1
     6    20    21    1
     7    17    22   am
     8    17    16    1
     9    24    32   ar
    10    24    25   ar
    11    16    15    1
    12    21    15    1
    13    32    31   ar
    14    25    26   ar
    15    15    13   am
    16    31    27   ar
    17    26    27   ar
    18    13    14    2
    19    13    12    1
    20    27    28    1
    21    12    11    1
    22    28    30    2
    23    28    29    1
    24    11     2    1
    25     9     2    2
    26     7     6   ar
    27     7     8   ar
    28     6     5   ar
    29     2    10    2
    30     2     1    1
    31     8     3   ar
    32     5     4   ar
    33     3     4   ar
    34     3     1    1
