@<TRIPOS>MOLECULE
3rly_S29_H_1.pdb
 33 35 0 0 0
SMALL
GASTEIGER

@<TRIPOS>ATOM
      1  C7        14.8440  -15.9480   21.3330 C.3     1  S291        0.1969
      2  S8        15.5110  -17.2430   22.1730 S.O2    1  S291        0.0620
      3  C6        13.8360  -16.3970   20.2930 C.ar    1  S291        0.0030
      4  C1        14.2760  -16.7320   19.0150 C.ar    1  S291       -0.0025
      5  C2        13.3670  -17.1480   18.0440 C.ar    1  S291       -0.0003
      6  C3        12.0170  -17.2320   18.3540 C.ar    1  S291       -0.0000
      7  C4        11.5750  -16.8930   19.6290 C.ar    1  S291       -0.0003
      8  C5        12.4820  -16.4760   20.5980 C.ar    1  S291       -0.0025
      9  O13       16.3350  -18.0200   21.2800 O.2     1  S291       -0.1558
     10  O14       14.4690  -18.0100   22.7920 O.2     1  S291       -0.1558
     11  N9        16.4240  -16.6870   23.3810 N.3     1  S291       -0.0739
     12  C10       17.7130  -16.0290   23.2180 C.3     1  S291        0.1733
     13  C33       18.3930  -15.8710   24.5810 C.3     1  S291        0.0307
     14  C11       17.5980  -14.6740   22.5860 C.2     1  S291        0.2437
     15  O15       16.6550  -13.9400   22.8650 O.2     1  S291       -0.2733
     16  N12       18.5400  -14.3170   21.7250 N.am    1  S291       -0.2718
     17  C16       18.4710  -13.0180   21.0670 C.3     1  S291        0.1535
     18  C17       17.1700  -12.8970   20.3150 C.2     1  S291        0.2598
     19  O18       16.7150  -13.8320   19.6660 O.2     1  S291       -0.2715
     20  C21       19.6560  -13.0010   20.1060 C.3     1  S291        0.0310
     21  C22       20.5850  -14.1070   20.5770 C.3     1  S291        0.0237
     22  C23       19.7060  -15.1070   21.3110 C.3     1  S291        0.0939
     23  N19       16.5130  -11.7430   20.4120 N.am    1  S291       -0.1992
     24  C20       15.2360  -11.4580   19.7580 C.3     1  S291        0.1415
     25  C24       14.1410  -11.4770   20.8000 C.ar    1  S291       -0.0006
     26  C31       13.4310  -12.6390   21.0600 C.ar    1  S291       -0.0023
     27  C29       12.4350  -12.6830   22.0300 C.ar    1  S291        0.0077
     28  C28       12.1250  -11.5390   22.7610 C.ar    1  S291        0.0975
     29  C26       11.0580  -11.5370   23.8160 C.2     1  S291        0.4766
     30  N30       10.4210  -12.5900   24.1340 N.pl3   1  S291        0.2047
     31  N32       10.8000  -10.4030   24.4600 N.pl3   1  S291        0.2047
     32  C27       12.8370  -10.3800   22.4940 C.ar    1  S291        0.0077
     33  C25       13.8350  -10.3340   21.5240 C.ar    1  S291       -0.0023
@<TRIPOS>BOND
     1     5     6   ar
     2     5     4   ar
     3     6     7   ar
     4     4     3   ar
     5     7     8   ar
     6    19    18    2
     7    24    23    1
     8    24    25    1
     9    20    21    1
    10    20    17    1
    11     3     8   ar
    12     3     1    1
    13    18    23   am
    14    18    17    1
    15    21    22    1
    16    25    26   ar
    17    25    33   ar
    18    26    27   ar
    19    17    16    1
    20     9     2    2
    21    22    16    1
    22     1     2    1
    23    33    32   ar
    24    16    14   am
    25    27    28   ar
    26     2    10    2
    27     2    11    1
    28    32    28   ar
    29    14    15    2
    30    14    12    1
    31    28    29    1
    32    12    11    1
    33    12    13    1
    34    29    30    2
    35    29    31    1
