@<TRIPOS>MOLECULE
3rm0_S54_H_1.pdb
 35 37 0 0 0
SMALL
GASTEIGER

@<TRIPOS>ATOM
      1  C7        23.3030  -16.3540   25.7090 C.3     1  S541        0.1969
      2  S8        22.5040  -17.8230   25.6740 S.O2    1  S541        0.0620
      3  C4        22.3980  -15.1450   25.5500 C.ar    1  S541        0.0030
      4  C5        21.8030  -14.5650   26.6610 C.ar    1  S541       -0.0025
      5  C6        20.9780  -13.4540   26.5110 C.ar    1  S541       -0.0003
      6  C1        20.7580  -12.9120   25.2490 C.ar    1  S541       -0.0000
      7  C2        21.3610  -13.4880   24.1380 C.ar    1  S541       -0.0003
      8  C3        22.1850  -14.5980   24.2890 C.ar    1  S541       -0.0025
      9  O22       21.5650  -17.8930   26.7650 O.2     1  S541       -0.1558
     10  O23       21.8460  -17.9880   24.4080 O.2     1  S541       -0.1558
     11  N9        23.5940  -18.9790   25.8390 N.3     1  S541       -0.0739
     12  C10       23.9180  -19.5040   27.1560 C.3     1  S541        0.1732
     13  C18       25.3110  -20.1320   27.1280 C.3     1  S541        0.0268
     14  C19       26.3320  -19.1280   26.6030 C.3     1  S541        0.0020
     15  C20       25.3420  -21.4210   26.3150 C.3     1  S541        0.0020
     16  C11       22.8970  -20.4640   27.7110 C.2     1  S541        0.2437
     17  O17       22.3350  -21.2780   26.9990 O.2     1  S541       -0.2733
     18  N12       22.6500  -20.3540   29.0130 N.am    1  S541       -0.2718
     19  C13       21.6940  -21.2410   29.6780 C.3     1  S541        0.1535
     20  C24       20.2460  -21.0170   29.3460 C.2     1  S541        0.2598
     21  O33       19.4310  -21.8740   29.6540 O.2     1  S541       -0.2715
     22  C14       21.8450  -20.8970   31.1540 C.3     1  S541        0.0310
     23  C15       22.4910  -19.5240   31.2100 C.3     1  S541        0.0237
     24  C16       23.2930  -19.4090   29.9260 C.3     1  S541        0.0939
     25  N25       19.8840  -19.8840   28.7440 N.am    1  S541       -0.1992
     26  C26       18.5150  -19.5160   28.4050 C.3     1  S541        0.1415
     27  C27       18.1080  -19.9220   27.0110 C.ar    1  S541       -0.0006
     28  C32       19.0210  -20.4940   26.1380 C.ar    1  S541       -0.0023
     29  C31       18.6190  -20.8580   24.8600 C.ar    1  S541        0.0077
     30  C30       17.3040  -20.6530   24.4560 C.ar    1  S541        0.0975
     31  C34       16.8760  -21.0410   23.0740 C.2     1  S541        0.4766
     32  N35       17.6760  -20.9050   22.1090 N.pl3   1  S541        0.2047
     33  N36       15.6590  -21.5400   22.8730 N.pl3   1  S541        0.2047
     34  C29       16.3910  -20.0750   25.3270 C.ar    1  S541        0.0077
     35  C28       16.7910  -19.7160   26.6070 C.ar    1  S541       -0.0023
@<TRIPOS>BOND
     1    32    31    2
     2    33    31    1
     3    31    30    1
     4     7     8   ar
     5     7     6   ar
     6     8     3   ar
     7    10     2    2
     8    30    29   ar
     9    30    34   ar
    10    29    28   ar
    11     6     5   ar
    12    34    35   ar
    13     3     1    1
    14     3     4   ar
    15     2     1    1
    16     2    11    1
    17     2     9    2
    18    11    12    1
    19    28    27   ar
    20    15    13    1
    21     5     4   ar
    22    14    13    1
    23    35    27   ar
    24    17    16    2
    25    27    26    1
    26    13    12    1
    27    12    16    1
    28    16    18   am
    29    26    25    1
    30    25    20   am
    31    18    19    1
    32    18    24    1
    33    20    21    2
    34    20    19    1
    35    19    22    1
    36    24    23    1
    37    22    23    1
