@<TRIPOS>MOLECULE
3rm2_S00_H_1.pdb
 39 42 0 0 0
SMALL
GASTEIGER

@<TRIPOS>ATOM
      1  C7        14.6630  -15.1830   21.1480 C.3     1  S001        0.1969
      2  S8        15.4190  -16.4520   21.9520 S.O2    1  S001        0.0620
      3  C4        13.6560  -15.6750   20.1290 C.ar    1  S001        0.0030
      4  C5        12.3020  -15.6870   20.4450 C.ar    1  S001       -0.0025
      5  C6        11.3750  -16.1440   19.5080 C.ar    1  S001       -0.0003
      6  C1        11.7940  -16.5820   18.2520 C.ar    1  S001       -0.0000
      7  C2        13.1480  -16.5600   17.9350 C.ar    1  S001       -0.0003
      8  C3        14.0730  -16.1060   18.8700 C.ar    1  S001       -0.0025
      9  O12       16.3110  -17.1490   21.0800 O.2     1  S001       -0.1558
     10  O13       14.4080  -17.2980   22.5290 O.2     1  S001       -0.1558
     11  C15       19.5630  -14.4100   24.4290 C.3     1  S001        0.0019
     12  C16       20.6010  -15.4370   23.9910 C.3     1  S001        0.0001
     13  C17       21.9960  -14.8170   24.0120 C.3     1  S001        0.0000
     14  C18       22.3460  -14.2270   25.3760 C.3     1  S001        0.0000
     15  C19       21.2770  -13.2530   25.8570 C.3     1  S001        0.0000
     16  C20       19.9020  -13.9110   25.8350 C.3     1  S001        0.0001
     17  N9        16.2880  -15.8500   23.1620 N.3     1  S001       -0.0739
     18  C10       17.5880  -15.2250   22.9950 C.3     1  S001        0.1736
     19  C14       18.1670  -15.0320   24.4030 C.3     1  S001        0.0287
     20  C11       17.4520  -13.8710   22.3380 C.2     1  S001        0.2474
     21  O31       16.5580  -13.1020   22.6820 O.2     1  S001       -0.2730
     22  N21       18.3250  -13.5250   21.3860 N.am    1  S001       -0.2492
     23  C22       18.2010  -12.2080   20.7480 C.3     1  S001        0.1619
     24  C26       16.8790  -12.0970   20.0460 C.2     1  S001        0.2604
     25  O30       16.4410  -13.0330   19.3920 O.2     1  S001       -0.2715
     26  C23       19.3460  -12.1090   19.7500 C.3     1  S001        0.0570
     27  C24       20.0510  -13.4490   19.7530 C.2     1  S001       -0.0077
     28  C25       19.4310  -14.3140   20.8410 C.2     1  S001        0.0634
     29  N27       16.2000  -10.9660   20.1790 N.am    1  S001       -0.1991
     30  C28       14.9000  -10.7320   19.5780 C.3     1  S001        0.1415
     31  C29       13.8760  -10.7510   20.6910 C.ar    1  S001       -0.0006
     32  C33       13.1050  -11.8820   20.9070 C.ar    1  S001       -0.0023
     33  C34       12.1680  -11.9160   21.9310 C.ar    1  S001        0.0077
     34  C35       11.9940  -10.8120   22.7550 C.ar    1  S001        0.0975
     35  C37       10.9760  -10.8260   23.8540 C.2     1  S001        0.4766
     36  N38       10.3460  -11.8870   24.1570 N.pl3   1  S001        0.2047
     37  N39       10.7260   -9.6960   24.4960 N.pl3   1  S001        0.2047
     38  C36       12.7720   -9.6840   22.5360 C.ar    1  S001        0.0077
     39  C32       13.7060   -9.6440   21.5110 C.ar    1  S001       -0.0023
@<TRIPOS>BOND
     1     7     6   ar
     2     7     8   ar
     3     6     5   ar
     4     8     3   ar
     5    25    24    2
     6     5     4   ar
     7    30    29    1
     8    30    31    1
     9    26    27    1
    10    26    23    1
    11    27    28    2
    12    24    29   am
    13    24    23    1
    14     3     4   ar
    15     3     1    1
    16    31    32   ar
    17    31    39   ar
    18    23    22    1
    19    28    22    1
    20    32    33   ar
    21     9     2    2
    22     1     2    1
    23    22    20   am
    24    39    38   ar
    25    33    34   ar
    26     2    10    2
    27     2    17    1
    28    20    21    2
    29    20    18    1
    30    38    34   ar
    31    34    35    1
    32    18    17    1
    33    18    19    1
    34    35    36    2
    35    35    37    1
    36    12    13    1
    37    12    11    1
    38    13    14    1
    39    19    11    1
    40    11    16    1
    41    14    15    1
    42    16    15    1
