@<TRIPOS>MOLECULE
3rm4_3RM_A_1.pdb
 22 24 0 0 0
SMALL
GASTEIGER

@<TRIPOS>ATOM
      1  C1         3.0470    6.5870  -17.2210 C.ar    1  3RM1        0.0374
      2  N1         2.1510    2.0240  -16.7050 N.3     1  3RM1       -0.2666
      3  O1         2.8960    4.4680  -15.9680 O.3     1  3RM1       -0.4740
      4 BR1         3.2210   10.5090  -15.8700 Br      1  3RM1       -0.0490
      5  C2         3.1180    7.9870  -17.1700 C.ar    1  3RM1        0.0098
      6  N2        -0.1060    0.8090  -17.9640 N.pl3   1  3RM1       -0.2390
      7  C3         3.1120    8.6180  -15.9260 C.ar    1  3RM1        0.0348
      8  N3        -2.2280   -0.2840  -17.7070 N.2     1  3RM1       -0.0559
      9  C4         3.0360    7.8820  -14.7380 C.ar    1  3RM1        0.0098
     10  N4        -3.3120   -0.6040  -18.4250 N.2     1  3RM1       -0.0534
     11  C5         2.9630    6.4860  -14.7930 C.ar    1  3RM1        0.0374
     12  N5        -1.7840    0.5140  -19.6820 N.2     1  3RM1       -0.2631
     13  C6         2.9640    5.8370  -16.0360 C.ar    1  3RM1        0.1387
     14  N6        -3.7620   -0.1230  -20.7620 N.pl3   1  3RM1       -0.0327
     15  C7         3.9200    3.7680  -16.6980 C.3     1  3RM1        0.2226
     16  C8         3.6290    2.2810  -16.5190 C.3     1  3RM1        0.1201
     17  C9         1.6560    2.5630  -18.0370 C.3     1  3RM1        0.0947
     18  C10        0.2000    2.2100  -18.2760 C.3     1  3RM1        0.1196
     19  C11        0.3960    0.2960  -16.6860 C.3     1  3RM1        0.1196
     20  C12        1.8860    0.5380  -16.5560 C.3     1  3RM1        0.0947
     21  C13       -1.2980    0.3770  -18.4600 C.1     1  3RM1        0.1785
     22  C14       -3.0130   -0.0930  -19.6350 C.1     1  3RM1        0.2160
@<TRIPOS>BOND
     1    14    22    1
     2    12    22    2
     3    12    21    2
     4    22    10    2
     5    21     6    1
     6    21     8    2
     7    10     8    1
     8    18    17    1
     9    18     6    1
    10    17     2    1
    11     6    19    1
    12     1     5   ar
    13     1    13   ar
    14     5     7   ar
    15     2    20    1
    16     2    16    1
    17    15    16    1
    18    15     3    1
    19    19    20    1
    20    13     3    1
    21    13    11   ar
    22     7     4    1
    23     7     9   ar
    24    11     9   ar
