@<TRIPOS>MOLECULE
3rm6_18Z_A_1.pdb
 30 32 0 0 0
SMALL
GASTEIGER

@<TRIPOS>ATOM
      1  N01       94.4430   45.9450  -88.5310 N.am  478  18Z478     -0.0837
      2  N02       95.0580   44.5070  -82.3910 N.pl3 478  18Z478     -0.2344
      3  N03       91.8220   46.3600  -85.3840 N.pl3 478  18Z478     -0.2328
      4  N04       90.2650   47.3550  -81.0160 N.2   478  18Z478     -0.2007
      5  N05       90.3650   49.2440  -82.5290 N.2   478  18Z478     -0.1783
      6  N06       90.1790   49.4840  -80.2960 N.pl3 478  18Z478     -0.0461
      7  N07       94.8670   41.4080  -80.4850 N.3   478  18Z478     -0.2687
      8  N08       95.2290   38.6890  -79.6180 N.3   478  18Z478     -0.2151
      9  N09       96.9250   44.5180  -84.4180 N.pl3 478  18Z478      0.0590
     10  C10       95.3490   45.4460  -85.9090 C.ar  478  18Z478      0.0313
     11  C11       94.0240   45.9320  -86.1830 C.ar  478  18Z478      0.0732
     12  C12       93.0360   45.9180  -85.1370 C.ar  478  18Z478      0.0715
     13  C13       93.4190   45.4180  -83.8330 C.ar  478  18Z478      0.0340
     14  C14       94.7410   44.9400  -83.5690 C.ar  478  18Z478      0.0890
     15  C15       95.7200   44.9480  -84.6190 C.ar  478  18Z478      0.1578
     16  C16       93.7360   46.4030  -87.4520 C.2   478  18Z478      0.2855
     17  C17       90.5980   46.0250  -84.5880 C.3   478  18Z478      0.1378
     18  C18       90.4710   46.9730  -83.4210 C.2   478  18Z478      0.0222
     19  C19       90.3680   46.5220  -82.1000 C.3   478  18Z478      0.1630
     20  C20       90.2710   48.6910  -81.2850 C.1   478  18Z478      0.1286
     21  C21       90.4650   48.3620  -83.5720 C.2   478  18Z478      0.1060
     22  C22       94.2840   43.4470  -81.6990 C.3   478  18Z478      0.1295
     23  C23       95.1590   42.8170  -80.6060 C.3   478  18Z478      0.0958
     24  C24       94.0170   40.8140  -79.4470 C.3   478  18Z478      0.0912
     25  C25       94.7760   39.7070  -78.6830 C.3   478  18Z478      0.1060
     26  C26       96.1260   39.2930  -80.5890 C.3   478  18Z478      0.1060
     27  C27       95.3620   40.3610  -81.3850 C.3   478  18Z478      0.0912
     28  O28       92.8590   47.2400  -87.6310 O.2   478  18Z478     -0.2666
     29  O29       97.9270   44.9530  -85.1520 O.2   478  18Z478     -0.1261
     30  O30       97.1790   43.6160  -83.4920 O.2   478  18Z478     -0.1261
@<TRIPOS>BOND
     1     1    16   am
     2    28    16    2
     3    16    11    1
     4    11    10   ar
     5    11    12   ar
     6    10    15   ar
     7     3    12    1
     8     3    17    1
     9    29     9    2
    10    12    13   ar
    11    15     9    1
    12    15    14   ar
    13    17    18    1
    14     9    30    2
    15    13    14   ar
    16    21    18    2
    17    21     5    1
    18    14     2    1
    19    18    19    1
    20     5    20    2
    21     2    22    1
    22    19     4    1
    23    22    23    1
    24    27    26    1
    25    27     7    1
    26    20     4    2
    27    20     6    1
    28    23     7    1
    29    26     8    1
    30     7    24    1
    31     8    25    1
    32    24    25    1
