@<TRIPOS>MOLECULE
3rm7_19Z_A_1.pdb
 21 22 0 0 0
SMALL
GASTEIGER

@<TRIPOS>ATOM
      1  N01      -63.9220  -46.1280  -48.2900 N.pl3 654  19Z654     -0.2327
      2  N02      -66.8050  -45.8720  -51.2240 N.am  654  19Z654     -0.0837
      3  N03      -68.8660  -44.1250  -47.0200 N.pl3 654  19Z654      0.0577
      4  C04      -67.4740  -45.2170  -48.5730 C.ar  654  19Z654      0.0300
      5  C05      -66.1940  -45.7450  -48.9240 C.ar  654  19Z654      0.0731
      6  C06      -65.1030  -45.6480  -47.9800 C.ar  654  19Z654      0.0702
      7  C07      -65.3480  -45.0120  -46.7030 C.ar  654  19Z654      0.0179
      8  C08      -66.6290  -44.4950  -46.3790 C.ar  654  19Z654      0.0254
      9  C09      -67.7050  -44.5920  -47.3100 C.ar  654  19Z654      0.1431
     10  C10      -66.0440  -46.3280  -50.1700 C.2   654  19Z654      0.2855
     11  C11      -62.6850  -45.9290  -47.4700 C.3   654  19Z654      0.1385
     12  C12      -62.5850  -46.9900  -46.4040 C.ar  654  19Z654     -0.0005
     13  C13      -62.5370  -48.3710  -46.7610 C.ar  654  19Z654      0.0007
     14  C14      -62.4540  -49.3640  -45.7480 C.ar  654  19Z654      0.0418
     15  C15      -62.4190  -48.9810  -44.3790 C.ar  654  19Z654      0.1957
     16  C16      -62.4660  -47.6010  -44.0200 C.ar  654  19Z654      0.0418
     17  C17      -62.5480  -46.6080  -45.0310 C.ar  654  19Z654      0.0007
     18  O18      -65.2470  -47.2220  -50.3610 O.2   654  19Z654     -0.2666
     19  O19      -62.3430  -49.9270  -43.4180 O.3   654  19Z654     -0.2866
     20  O20      -69.8730  -44.2150  -47.8860 O.2   654  19Z654     -0.1261
     21  O21      -69.0860  -43.5440  -45.8520 O.2   654  19Z654     -0.1261
@<TRIPOS>BOND
     1     2    10   am
     2    18    10    2
     3    10     5    1
     4     5     4   ar
     5     5     6   ar
     6     4     9   ar
     7     1     6    1
     8     1    11    1
     9     6     7   ar
    10    20     3    2
    11    11    12    1
    12     9     3    1
    13     9     8   ar
    14     3    21    2
    15    13    12   ar
    16    13    14   ar
    17     7     8   ar
    18    12    17   ar
    19    14    15   ar
    20    17    16   ar
    21    15    16   ar
    22    15    19    1
