@<TRIPOS>MOLECULE
3rm8_RM8_A_1.pdb
 23 26 0 0 0
SMALL
GASTEIGER

@<TRIPOS>ATOM
      1  C1        -3.3040   48.6830   65.6950 C.3   417  RM8417      0.0661
      2  N1        -2.4920   51.0310   65.4590 N.2   417  RM8417     -0.4065
      3  C2        -2.9440   50.0120   66.2630 C.2   417  RM8417      0.1068
      4  N2        -2.3150   48.9360   69.5230 N.3   417  RM8417     -0.2659
      5  C3        -2.9630   50.4830   67.5680 C.2   417  RM8417      0.0218
      6  N3         0.1920   47.7880   70.1980 N.pl3 417  RM8417     -0.2904
      7  C4        -2.5040   51.8420   67.5360 C.ar  417  RM8417      0.0291
      8  N4         1.9340   47.4580   71.8350 N.ar  417  RM8417     -0.2292
      9  C5        -2.3130   52.8420   68.5190 C.ar  417  RM8417      0.0023
     10  C6        -1.8400   54.1080   68.1380 C.ar  417  RM8417      0.0002
     11  C7        -1.5640   54.3910   66.7990 C.ar  417  RM8417      0.0026
     12  C8        -1.7470   53.4170   65.8080 C.ar  417  RM8417      0.0320
     13  C9        -2.2220   52.1540   66.2040 C.ar  417  RM8417      0.1307
     14  C10       -3.3840   49.7300   68.7880 C.3   417  RM8417      0.1015
     15  C11       -1.2040   49.8140   70.0760 C.3   417  RM8417      0.0941
     16  C12       -0.2740   48.9730   70.9410 C.3   417  RM8417      0.1095
     17  C13       -0.8460   46.9220   69.6110 C.3   417  RM8417      0.1095
     18  C14       -1.7960   47.7420   68.7430 C.3   417  RM8417      0.0941
     19  C15        1.4340   47.2360   70.5770 C.ar  417  RM8417      0.1318
     20  C16        2.1810   46.4500   69.6790 C.ar  417  RM8417      0.0343
     21  C17        3.4080   45.9100   70.0750 C.ar  417  RM8417      0.0045
     22  C18        3.9020   46.1490   71.3490 C.ar  417  RM8417      0.0208
     23  C19        3.1300   46.9260   72.1900 C.ar  417  RM8417      0.1003
@<TRIPOS>BOND
     1     2    13    2
     2     2     3    2
     3     1     3    1
     4    12    13   ar
     5    12    11   ar
     6    13     7   ar
     7     3     5    1
     8    11    10   ar
     9     7     5    2
    10     7     9   ar
    11     5    14    1
    12    10     9   ar
    13    18     4    1
    14    18    17    1
    15    14     4    1
    16     4    15    1
    17    17     6    1
    18    20    21   ar
    19    20    19   ar
    20    21    22   ar
    21    15    16    1
    22     6    19    1
    23     6    16    1
    24    19     8   ar
    25    22    23   ar
    26     8    23   ar
