@<TRIPOS>MOLECULE
3rm9_613_A_1.pdb
 16 17 0 0 0
SMALL
GASTEIGER

@<TRIPOS>ATOM
      1  C1        33.7470   -7.2880    3.4640 C.ar    1  6131        0.0154
      2  N1        33.9840   -5.5510    5.1930 N.pl3   1  6131       -0.3015
      3 CL1        33.6870  -11.2930    3.5750 Cl      1  6131       -0.0822
      4  C2        33.6740   -8.6330    3.0710 C.ar    1  6131        0.0127
      5  N2        33.8640   -2.7650    5.8930 N.pl3   1  6131       -0.1849
      6  C3        33.7700   -9.6350    4.0350 C.ar    1  6131        0.0578
      7  N3        33.8330   -0.3270    5.5670 N.pl3   1  6131        0.1298
      8  C4        33.9390   -9.2950    5.3740 C.ar    1  6131        0.0127
      9  N4        31.9020   -1.3750    6.4540 N.pl3   1  6131        0.1298
     10  C5        34.0120   -7.9450    5.7550 C.ar    1  6131        0.0154
     11  C6        33.9240   -6.8930    4.8150 C.ar    1  6131        0.0481
     12  C7        33.1150   -5.1070    6.2970 C.3     1  6131        0.1317
     13  C8        33.6110   -3.8120    6.9330 C.3     1  6131        0.1892
     14  C9        34.6960   -3.2100    4.7310 C.3     1  6131        0.1892
     15  C10       34.1820   -4.5290    4.1440 C.3     1  6131        0.1317
     16  C11       33.1780   -1.5180    5.8940 C.cat   1  6131        0.4955
@<TRIPOS>BOND
     1     4     1   ar
     2     4     6   ar
     3     1    11   ar
     4     3     6    1
     5     6     8   ar
     6    15    14    1
     7    15     2    1
     8    14     5    1
     9    11     2    1
    10    11    10   ar
    11     2    12    1
    12     8    10   ar
    13     7    16    2
    14     5    16    1
    15     5    13    1
    16    16     9    1
    17    12    13    1
