@<TRIPOS>MOLECULE
3rmd_DTP_B_1.pdb
 30 32 0 0 0
SMALL
GASTEIGER

@<TRIPOS>ATOM
      1  PG        -0.7070  119.0720   46.2000 P.3   907  DTP907      0.5373
      2  O1G       -0.1620  118.7840   44.8480 O.2   907  DTP907     -0.2221
      3  O2G       -0.6170  118.0300   47.2620 O.3   907  DTP907     -0.1143
      4  O3G       -2.1800  119.4060   46.0270 O.3   907  DTP907     -0.1143
      5  PB         1.4820  120.9350   46.4070 P.3   907  DTP907      0.2277
      6  O1B        2.0720  121.4240   47.6820 O.3   907  DTP907     -0.4368
      7  O2B        2.1990  119.9020   45.6150 O.2   907  DTP907     -0.5168
      8  O3B        0.0190  120.3870   46.7240 O.3   907  DTP907     -0.2258
      9  PA         1.2710  122.2830   43.8820 P.3   907  DTP907      0.2189
     10  O1A       -0.1240  122.1000   43.4170 O.3   907  DTP907     -0.4371
     11  O2A        2.3250  121.3440   43.3950 O.2   907  DTP907     -0.5170
     12  O3A        1.2750  122.1960   45.4660 O.3   907  DTP907     -0.2700
     13  O5'        1.6950  123.7670   43.4760 O.3   907  DTP907     -0.3112
     14  C5'        3.0030  124.0180   42.9690 C.3   907  DTP907      0.1813
     15  C4'        3.2570  125.5010   42.8310 C.3   907  DTP907      0.1795
     16  O4'        2.4420  126.0740   41.7720 O.3   907  DTP907     -0.3155
     17  C3'        2.9010  126.3520   44.0390 C.3   907  DTP907      0.1883
     18  O3'        3.8960  126.2350   45.0620 O.3   907  DTP907     -0.2202
     19  C2'        2.8260  127.7550   43.4320 C.3   907  DTP907      0.1151
     20  C1'        2.3370  127.4730   42.0020 C.3   907  DTP907      0.2873
     21  N9         1.0020  127.9690   41.6130 N.pl3 907  DTP907     -0.1460
     22  C8         0.6630  129.2730   41.2930 C.3   907  DTP907      0.3377
     23  N7        -0.6060  129.4330   40.9850 N.2   907  DTP907     -0.2095
     24  C5        -1.1410  128.1550   41.0930 C.2   907  DTP907      0.2526
     25  C6        -2.4430  127.6440   40.8760 C.2   907  DTP907      0.4393
     26  N6        -3.4820  128.3850   40.4910 N.pl3 907  DTP907      0.2180
     27  N1        -2.6400  126.3240   41.0750 N.2   907  DTP907      0.0021
     28  C2        -1.6030  125.5720   41.4630 C.3   907  DTP907      0.5254
     29  N3        -0.3370  125.9260   41.6930 N.2   907  DTP907     -0.0055
     30  C4        -0.1650  127.2440   41.4880 C.2   907  DTP907      0.3518
@<TRIPOS>BOND
     1    26    25    1
     2    25    27    2
     3    25    24    1
     4    23    24    2
     5    23    22    1
     6    27    28    1
     7    24    30    1
     8    22    21    1
     9    28    29    1
    10    30    21    1
    11    30    29    2
    12    21    20    1
    13    16    20    1
    14    16    15    1
    15    20    19    1
    16    15    14    1
    17    15    17    1
    18    14    13    1
    19    11     9    2
    20    10     9    1
    21    19    17    1
    22    13     9    1
    23     9    12    1
    24    17    18    1
    25     2     1    2
    26    12     5    1
    27     7     5    2
    28     4     1    1
    29     1     8    1
    30     1     3    1
    31     5     8    1
    32     5     6    1
