@<TRIPOS>MOLECULE
3rme_RME_A_1.pdb
 18 19 0 0 0
SMALL
GASTEIGER

@<TRIPOS>ATOM
      1  C1         0.9820   49.5790   65.7470 C.3   418  RME418      0.0253
      2  N1         1.3740   48.0200   67.6120 N.am  418  RME418     -0.2016
      3  O1         1.8610   45.7550   67.5550 O.2   418  RME418     -0.2683
      4  C2         1.0000   48.1340   66.2110 C.3   418  RME418      0.1155
      5  N2         1.7620   47.4580   71.9170 N.ar  418  RME418     -0.2290
      6  C3         1.7740   46.8170   68.1680 C.2   418  RME418      0.2675
      7  N3         0.1110   48.1440   70.3280 N.pl3 418  RME418     -0.2903
      8  C4         2.1270   46.8570   69.6150 C.ar  418  RME418      0.0866
      9  N4        -2.4260   49.3510   69.9240 N.3   418  RME418     -0.2686
     10  C5         3.3280   46.2230   69.9870 C.ar  418  RME418      0.0090
     11  C6         3.7350   46.2090   71.3160 C.ar  418  RME418      0.0209
     12  C7         2.9230   46.8370   72.2360 C.ar  418  RME418      0.1003
     13  C8         1.3320   47.4850   70.6160 C.ar  418  RME418      0.1362
     14  C9        -1.0000   47.3350   69.8090 C.3   418  RME418      0.1095
     15  C10       -1.9370   48.2420   69.0120 C.3   418  RME418      0.0939
     16  C11       -1.2910   50.1550   70.5250 C.3   418  RME418      0.0939
     17  C12       -0.3050   49.2310   71.2350 C.3   418  RME418      0.1095
     18  C13       -3.4040   50.2490   69.2190 C.3   418  RME418      0.0897
@<TRIPOS>BOND
     1     1     4    1
     2     4     2    1
     3     3     6    2
     4     2     6   am
     5     6     8    1
     6    15    14    1
     7    15     9    1
     8    18     9    1
     9     8    10   ar
    10     8    13   ar
    11    14     7    1
    12     9    16    1
    13    10    11   ar
    14     7    13    1
    15     7    17    1
    16    16    17    1
    17    13     5   ar
    18    11    12   ar
    19     5    12   ar
