@<TRIPOS>MOLECULE
3rmf_20Z_A_1.pdb
 29 32 0 0 0
SMALL
GASTEIGER

@<TRIPOS>ATOM
      1  N01       92.3330   81.9310  -51.0810 N.2   496  20Z496     -0.3642
      2  N02       91.1190   82.5390  -49.2630 N.pl3 496  20Z496     -0.1781
      3  N03       93.8170   81.0600  -52.6350 N.pl3 496  20Z496     -0.0965
      4  N04       88.3440   80.8850  -43.3450 N.3   496  20Z496      0.0392
      5  C05       94.0050   80.4030  -50.3860 C.3   496  20Z496      0.1864
      6  C06       93.4110   81.1250  -51.4310 C.2   496  20Z496      0.2162
      7  C07       92.0940   81.8390  -49.7920 C.2   496  20Z496      0.2328
      8  C08       90.3810   82.3010  -48.2160 C.ar  496  20Z496      0.0737
      9  C09       95.1050   79.5260  -50.4940 C.2   496  20Z496      0.1913
     10  C10       95.6260   78.8680  -49.3830 C.ar  496  20Z496      0.0360
     11  C11       97.0330   78.9310  -49.1190 C.ar  496  20Z496      0.0029
     12  C12       97.5860   78.2770  -47.9830 C.ar  496  20Z496      0.0001
     13  C13       96.7540   77.5440  -47.0780 C.ar  496  20Z496      0.0000
     14  C14       95.3230   77.4670  -47.3340 C.ar  496  20Z496      0.0001
     15  C15       94.7820   78.1280  -48.4840 C.ar  496  20Z496      0.0029
     16  C16       89.3060   83.2070  -47.9660 C.ar  496  20Z496      0.0180
     17  C17       88.4520   83.0260  -46.8570 C.ar  496  20Z496      0.0213
     18  C18       88.6540   81.9350  -45.9700 C.ar  496  20Z496      0.1251
     19  C19       89.7210   81.0190  -46.1950 C.ar  496  20Z496      0.0213
     20  C20       90.5810   81.1970  -47.3070 C.ar  496  20Z496      0.0180
     21  C21       97.2920   76.8860  -45.9240 C.ar  496  20Z496      0.0000
     22  C22       96.4420   76.1640  -45.0350 C.ar  496  20Z496      0.0000
     23  C23       95.0460   76.0880  -45.2880 C.ar  496  20Z496      0.0000
     24  C24       94.4900   76.7350  -46.4290 C.ar  496  20Z496      0.0000
     25  O25       95.6420   79.3590  -51.5800 O.2   496  20Z496     -0.2899
     26  O26       86.4360   80.9060  -45.0360 O.2   496  20Z496     -0.1503
     27  O27       87.0760   82.9980  -44.1050 O.2   496  20Z496     -0.1503
     28  S28       93.1570   80.7740  -48.9260 S.3   496  20Z496     -0.0494
     29  S29       87.5530   81.7090  -44.5850 S.O2  496  20Z496      0.0935
@<TRIPOS>BOND
     1     3     6    1
     2    25     9    2
     3     6     1    2
     4     6     5    1
     5     1     7    2
     6     9     5    1
     7     9    10    1
     8     5    28    1
     9     7     2    1
    10     7    28    1
    11    10    11   ar
    12    10    15   ar
    13     2     8    1
    14    11    12   ar
    15    15    14   ar
    16     8    16   ar
    17     8    20   ar
    18    12    13   ar
    19    16    17   ar
    20    14    13   ar
    21    14    24   ar
    22    20    19   ar
    23    13    21   ar
    24    17    18   ar
    25    24    23   ar
    26    19    18   ar
    27    18    29    1
    28    21    22   ar
    29    23    22   ar
    30    26    29    2
    31    29    27    2
    32    29     4    1
