@<TRIPOS>MOLECULE
3rml_M31_H_1.pdb
 32 34 0 0 0
SMALL
GASTEIGER

@<TRIPOS>ATOM
      1  C7        18.4540  -15.4600   26.2810 C.3     1  M311        0.1969
      2  S8        17.4900  -15.9820   25.0140 S.O2    1  M311        0.0620
      3  C6        19.6720  -14.6830   25.8110 C.ar    1  M311        0.0030
      4  C1        19.7270  -13.2970   25.9970 C.ar    1  M311       -0.0025
      5  C2        20.8320  -12.5660   25.5670 C.ar    1  M311       -0.0003
      6  C30       21.8900  -13.2170   24.9420 C.ar    1  M311       -0.0000
      7  C4        21.8410  -14.5980   24.7610 C.ar    1  M311       -0.0003
      8  C5        20.7350  -15.3290   25.1850 C.ar    1  M311       -0.0025
      9  O13       18.1790  -16.8840   24.1400 O.2     1  M311       -0.1558
     10  O14       16.3180  -16.6130   25.5430 O.2     1  M311       -0.1558
     11  N9        17.0310  -14.6910   24.1780 N.3     1  M311       -0.0718
     12  C10       17.7310  -14.3930   22.9520 C.3     1  M311        0.1998
     13  C11       17.1650  -13.1320   22.3330 C.2     1  M311        0.2457
     14  O15       16.1420  -12.6410   22.7820 O.2     1  M311       -0.2732
     15  N12       17.8660  -12.6300   21.3300 N.am    1  M311       -0.2717
     16  C16       17.4290  -11.4220   20.6190 C.3     1  M311        0.1535
     17  C17       15.9520  -11.4020   20.3240 C.2     1  M311        0.2598
     18  O18       15.3560  -12.3700   19.8520 O.2     1  M311       -0.2715
     19  C21       18.2200  -11.4810   19.3130 C.3     1  M311        0.0310
     20  C22       19.4970  -12.2330   19.6730 C.3     1  M311        0.0237
     21  C23       19.0890  -13.2070   20.7650 C.3     1  M311        0.0939
     22  N19       15.3040  -10.2710   20.6150 N.am    1  M311       -0.1992
     23  C20       13.8860  -10.0940   20.3710 C.3     1  M311        0.1413
     24  C24       13.0290  -10.0880   21.6140 C.ar    1  M311       -0.0023
     25  C25       12.2580  -11.1810   21.9800 C.ar    1  M311       -0.0054
     26  C26       12.2680  -12.4590   21.1600 C.3     1  M311        0.1354
     27  N32       13.0750  -13.4620   21.8540 N.3     1  M311       -0.1262
     28  C27       11.4660  -11.1450   23.1200 C.ar    1  M311       -0.0022
     29  C28       11.4190   -9.9940   23.9000 C.ar    1  M311        0.0111
     30  C29       12.1990   -8.9160   23.5210 C.ar    1  M311        0.0574
     31 CL3        12.1880   -7.4370   24.5200 Cl      1  M311       -0.0823
     32  C31       13.0030   -8.9410   22.3970 C.ar    1  M311        0.0086
@<TRIPOS>BOND
     1    19    20    1
     2    19    16    1
     3    20    21    1
     4    18    17    2
     5    17    22   am
     6    17    16    1
     7    23    22    1
     8    23    24    1
     9    16    15    1
    10    21    15    1
    11    26    27    1
    12    26    25    1
    13    15    13   am
    14    24    25   ar
    15    24    32   ar
    16    25    28   ar
    17    13    14    2
    18    13    12    1
    19    32    30   ar
    20    12    11    1
    21    28    29   ar
    22    30    29   ar
    23    30    31    1
    24     9     2    2
    25    11     2    1
    26     7     6   ar
    27     7     8   ar
    28     6     5   ar
    29     2    10    2
    30     2     1    1
    31     8     3   ar
    32     5     4   ar
    33     3     4   ar
    34     3     1    1
