@<TRIPOS>MOLECULE
3rmm_M32_H_1.pdb
 33 35 0 0 0
SMALL
GASTEIGER

@<TRIPOS>ATOM
      1  C7        16.4570  -17.9110   22.5660 C.3     1  M321        0.1969
      2  S8        15.8280  -16.3830   22.2960 S.O2    1  M321        0.0620
      3  C6        16.1130  -18.4060   23.9530 C.ar    1  M321        0.0030
      4  C1        17.0460  -18.2740   24.9740 C.ar    1  M321       -0.0025
      5  C2        16.7520  -18.7190   26.2570 C.ar    1  M321       -0.0003
      6  C30       15.5170  -19.3010   26.5180 C.ar    1  M321       -0.0000
      7  C4        14.5840  -19.4370   25.4970 C.ar    1  M321       -0.0003
      8  C5        14.8780  -18.9890   24.2130 C.ar    1  M321       -0.0025
      9  O13       16.2270  -15.9620   20.9850 O.2     1  M321       -0.1558
     10  O14       14.3950  -16.4250   22.3410 O.2     1  M321       -0.1558
     11  N9        16.4070  -15.3860   23.4130 N.3     1  M321       -0.0739
     12  C10       17.5650  -14.5610   23.1530 C.3     1  M321        0.1733
     13  C33       18.2540  -14.2310   24.4740 C.3     1  M321        0.0307
     14  C11       17.1650  -13.2780   22.4820 C.2     1  M321        0.2437
     15  O15       16.1420  -12.7100   22.8480 O.2     1  M321       -0.2733
     16  N12       17.9600  -12.8210   21.5200 N.am    1  M321       -0.2718
     17  C16       17.6340  -11.5760   20.8200 C.3     1  M321        0.1535
     18  C17       16.1800  -11.4710   20.4460 C.2     1  M321        0.2598
     19  O18       15.5700  -12.4050   19.9360 O.2     1  M321       -0.2715
     20  C21       18.5310  -11.6090   19.5850 C.3     1  M321        0.0310
     21  C22       19.7270  -12.4600   19.9880 C.3     1  M321        0.0237
     22  C23       19.1870  -13.4460   21.0130 C.3     1  M321        0.0939
     23  N19       15.5690  -10.3130   20.7280 N.am    1  M321       -0.1992
     24  C20       14.1680  -10.0880   20.3950 C.3     1  M321        0.1413
     25  C24       13.2600  -10.0860   21.6010 C.ar    1  M321       -0.0023
     26  C25       12.4690  -11.1810   21.8970 C.ar    1  M321       -0.0054
     27  C26       12.5190  -12.4260   21.0380 C.3     1  M321        0.1354
     28  N32       13.2470  -13.4680   21.7610 N.3     1  M321       -0.1262
     29  C27       11.6200  -11.1670   22.9990 C.ar    1  M321       -0.0022
     30  C28       11.5520  -10.0350   23.8080 C.ar    1  M321        0.0111
     31  C29       12.3580   -8.9430   23.5020 C.ar    1  M321        0.0574
     32 CL3        12.3010   -7.4900   24.5400 Cl      1  M321       -0.0823
     33  C31       13.2120   -8.9540   22.4070 C.ar    1  M321        0.0086
@<TRIPOS>BOND
     1    20    21    1
     2    20    17    1
     3    19    18    2
     4    21    22    1
     5    24    23    1
     6    24    25    1
     7    18    23   am
     8    18    17    1
     9    17    16    1
    10     9     2    2
    11    22    16    1
    12    27    28    1
    13    27    26    1
    14    16    14   am
    15    25    26   ar
    16    25    33   ar
    17    26    29   ar
    18     2    10    2
    19     2     1    1
    20     2    11    1
    21    33    31   ar
    22    14    15    2
    23    14    12    1
    24     1     3    1
    25    29    30   ar
    26    12    11    1
    27    12    13    1
    28    31    30   ar
    29    31    32    1
    30     3     8   ar
    31     3     4   ar
    32     8     7   ar
    33     4     5   ar
    34     7     6   ar
    35     5     6   ar
