@<TRIPOS>MOLECULE
3rmn_M41_H_1.pdb
 35 37 0 0 0
SMALL
GASTEIGER

@<TRIPOS>ATOM
      1  C7        15.9430  -18.3740   22.0610 C.3     1  M411        0.1969
      2  S8        15.4800  -16.7750   21.8960 S.O2    1  M411        0.0620
      3  C4        15.2070  -19.0410   23.2070 C.ar    1  M411        0.0030
      4  C5        13.9020  -19.5030   23.0480 C.ar    1  M411       -0.0025
      5  C6        13.2420  -20.1100   24.1150 C.ar    1  M411       -0.0003
      6  C1        13.8890  -20.2570   25.3380 C.ar    1  M411       -0.0000
      7  C2        15.1920  -19.7990   25.4990 C.ar    1  M411       -0.0003
      8  C33       15.8490  -19.1950   24.4340 C.ar    1  M411       -0.0025
      9  O12       15.9600  -16.2990   20.6350 O.2     1  M411       -0.1558
     10  O13       14.0530  -16.7060   22.0120 O.2     1  M411       -0.1558
     11  N9        16.1400  -15.9330   23.1030 N.3     1  M411       -0.0739
     12  C10       17.2710  -15.0500   22.9380 C.3     1  M411        0.1732
     13  C14       17.8090  -14.7230   24.3340 C.3     1  M411        0.0268
     14  C15       17.9440  -15.9620   25.2200 C.3     1  M411        0.0020
     15  C16       19.1250  -13.9580   24.2570 C.3     1  M411        0.0020
     16  C11       16.9030  -13.7430   22.2860 C.2     1  M411        0.2437
     17  O22       15.9620  -13.0980   22.7230 O.2     1  M411       -0.2733
     18  N17       17.6400  -13.3300   21.2570 N.am    1  M411       -0.2718
     19  C18       17.3360  -12.0540   20.5990 C.3     1  M411        0.1535
     20  C23       15.8740  -11.8940   20.3000 C.2     1  M411        0.2598
     21  O32       15.2480  -12.8060   19.7810 O.2     1  M411       -0.2715
     22  C19       18.1530  -12.0870   19.3080 C.3     1  M411        0.0310
     23  C20       19.2530  -13.1120   19.5360 C.3     1  M411        0.0237
     24  C21       18.7860  -14.0190   20.6690 C.3     1  M411        0.0939
     25  N24       15.2800  -10.7410   20.6250 N.am    1  M411       -0.1992
     26  C25       13.8650  -10.4930   20.3600 C.3     1  M411        0.1413
     27  C26       12.9960  -10.4940   21.6100 C.ar    1  M411       -0.0023
     28  C27       12.2070  -11.5940   21.9240 C.ar    1  M411       -0.0054
     29  C34       12.2280  -12.8230   21.0420 C.3     1  M411        0.1354
     30  N35       13.0210  -13.8790   21.6510 N.3     1  M411       -0.1262
     31  C28       11.4030  -11.5850   23.0580 C.ar    1  M411       -0.0022
     32  C29       11.3640  -10.4600   23.8750 C.ar    1  M411        0.0111
     33  C30       12.1490   -9.3560   23.5520 C.ar    1  M411        0.0574
     34 CL3        12.1250   -7.9020   24.6060 Cl      1  M411       -0.0823
     35  C31       12.9630   -9.3740   22.4300 C.ar    1  M411        0.0086
@<TRIPOS>BOND
     1    22    23    1
     2    22    19    1
     3    23    24    1
     4    21    20    2
     5    20    19    1
     6    20    25   am
     7    26    25    1
     8    26    27    1
     9    19    18    1
    10     9     2    2
    11    24    18    1
    12    29    30    1
    13    29    28    1
    14    18    16   am
    15    27    28   ar
    16    27    35   ar
    17     2    10    2
    18     2     1    1
    19     2    11    1
    20    28    31   ar
    21     1     3    1
    22    16    17    2
    23    16    12    1
    24    35    33   ar
    25    12    11    1
    26    12    13    1
    27     4     3   ar
    28     4     5   ar
    29    31    32   ar
    30     3     8   ar
    31    33    32   ar
    32    33    34    1
    33     5     6   ar
    34    15    13    1
    35    13    14    1
    36     8     7   ar
    37     6     7   ar
