@<TRIPOS>MOLECULE
3rmo_S04_H_1.pdb
 39 42 0 0 0
SMALL
GASTEIGER

@<TRIPOS>ATOM
      1  C7        15.9690  -17.9080   22.0250 C.3     1  S041        0.1969
      2  S8        15.4670  -16.3170   21.9150 S.O2    1  S041        0.0620
      3  C6        15.3390  -18.5500   23.2410 C.ar    1  S041        0.0030
      4  C1        14.0790  -19.1350   23.1440 C.ar    1  S041       -0.0025
      5  C2        13.4960  -19.7160   24.2670 C.ar    1  S041       -0.0003
      6  C32       14.1670  -19.7050   25.4860 C.ar    1  S041       -0.0000
      7  C4        15.4240  -19.1200   25.5820 C.ar    1  S041       -0.0003
      8  C5        16.0100  -18.5410   24.4600 C.ar    1  S041       -0.0025
      9  O15       15.9490  -15.7870   20.6720 O.2     1  S041       -0.1558
     10  O16       14.0350  -16.2280   21.9800 O.2     1  S041       -0.1558
     11  C12       19.2540  -13.8220   24.4350 C.3     1  S041        0.0019
     12  C35       19.5720  -13.4300   25.8770 C.3     1  S041        0.0001
     13  C36       20.8930  -12.6760   25.9530 C.3     1  S041        0.0000
     14  C37       22.0250  -13.4870   25.3350 C.3     1  S041        0.0000
     15  C38       21.6880  -13.9430   23.9180 C.3     1  S041        0.0000
     16  C39       20.3700  -14.7060   23.8820 C.3     1  S041        0.0001
     17  N9        16.0980  -15.4890   23.1420 N.3     1  S041       -0.0739
     18  C10       17.3190  -14.7160   23.0120 C.3     1  S041        0.1733
     19  C11       17.9240  -14.5670   24.4060 C.3     1  S041        0.0287
     20  C13       16.9920  -13.3780   22.4060 C.2     1  S041        0.2437
     21  O17       16.0700  -12.7160   22.8610 O.2     1  S041       -0.2733
     22  N14       17.7310  -12.9500   21.3810 N.am    1  S041       -0.2718
     23  C18       17.4250  -11.6620   20.7520 C.3     1  S041        0.1535
     24  C19       15.9650  -11.4950   20.4370 C.2     1  S041        0.2598
     25  O20       15.3180  -12.4040   19.9340 O.2     1  S041       -0.2715
     26  C23       18.2330  -11.6880   19.4560 C.3     1  S041        0.0310
     27  C24       19.3520  -12.6850   19.6950 C.3     1  S041        0.0237
     28  C25       18.8440  -13.6620   20.7450 C.3     1  S041        0.0939
     29  N21       15.4050  -10.3260   20.7320 N.am    1  S041       -0.1992
     30  C22       14.0080  -10.0360   20.4420 C.3     1  S041        0.1413
     31  C26       13.1060  -10.0380   21.6500 C.ar    1  S041       -0.0023
     32  C27       12.2860  -11.1200   21.9460 C.ar    1  S041       -0.0054
     33  C28       12.2740  -12.3540   21.0740 C.3     1  S041        0.1354
     34  N34       13.0470  -13.4170   21.6900 N.3     1  S041       -0.1262
     35  C29       11.4510  -11.0780   23.0540 C.ar    1  S041       -0.0022
     36  C30       11.4260   -9.9550   23.8730 C.ar    1  S041        0.0111
     37  C31       12.2590   -8.8930   23.5690 C.ar    1  S041        0.0574
     38 CL3        12.2440   -7.4520   24.6080 Cl      1  S041       -0.0823
     39  C33       13.0930   -8.9210   22.4650 C.ar    1  S041        0.0086
@<TRIPOS>BOND
     1    26    27    1
     2    26    23    1
     3    27    28    1
     4    25    24    2
     5    24    29   am
     6    24    23    1
     7    30    29    1
     8    30    31    1
     9     9     2    2
    10    28    22    1
    11    23    22    1
    12    33    34    1
    13    33    32    1
    14    22    20   am
    15    31    32   ar
    16    31    39   ar
    17     2    10    2
    18     2     1    1
    19     2    17    1
    20    32    35   ar
    21     1     3    1
    22    20    21    2
    23    20    18    1
    24    39    37   ar
    25    18    17    1
    26    18    19    1
    27    35    36   ar
    28     4     3   ar
    29     4     5   ar
    30     3     8   ar
    31    37    36   ar
    32    37    38    1
    33    16    15    1
    34    16    11    1
    35    15    14    1
    36     5     6   ar
    37    19    11    1
    38    11    12    1
    39     8     7   ar
    40    14    13    1
    41     6     7   ar
    42    12    13    1
