@<TRIPOS>MOLECULE
3rmv_UDP_A_1.pdb
 25 26 0 0 0
SMALL
GASTEIGER

@<TRIPOS>ATOM
      1  N1        18.8350   19.5340    3.9040 N.am  264  UDP264     -0.1766
      2  C2        18.0680   20.6070    3.4860 C.1   264  UDP264      0.2845
      3  N3        18.3740   21.2110    2.2990 N.2   264  UDP264     -0.2452
      4  C4        19.4340   20.7610    1.5290 C.1   264  UDP264      0.2182
      5  C5        20.2200   19.6920    1.9360 C.2   264  UDP264      0.1242
      6  C6        19.8680   19.0660    3.1310 C.2   264  UDP264      0.0929
      7  O2        17.0910   21.0090    4.1580 O.2   264  UDP264     -0.1918
      8  O4        19.6860   21.3310    0.4930 O.2   264  UDP264     -0.2085
      9  C1'       18.5120   18.9380    5.2170 C.3   264  UDP264      0.2401
     10  C2'       17.4020   17.9130    5.2210 C.3   264  UDP264      0.2319
     11  O2'       16.7270   17.8650    6.4650 O.3   264  UDP264     -0.2157
     12  C3'       18.2060   16.6410    5.0350 C.3   264  UDP264      0.2158
     13  C4'       19.4170   16.9230    5.9500 C.3   264  UDP264      0.1799
     14  O4'       19.6710   18.3120    5.7370 O.3   264  UDP264     -0.3320
     15  O3'       17.4420   15.4700    5.3050 O.3   264  UDP264     -0.2175
     16  C5'       20.7190   16.1810    5.6220 C.3   264  UDP264      0.1813
     17  O5'       20.8900   16.1540    4.2300 O.3   264  UDP264     -0.3111
     18  PA        20.6650   14.7390    3.4560 P.3   264  UDP264      0.2231
     19  O1A       19.6170   13.8280    4.2140 O.3   264  UDP264     -0.4370
     20  O2A       20.5030   15.0270    2.0190 O.2   264  UDP264     -0.5169
     21  O3A       22.1180   14.0280    3.7030 O.3   264  UDP264     -0.2261
     22  PB        22.3140   12.4100    3.6120 P.3   264  UDP264      0.5373
     23  O1B       23.7920   12.2570    3.8190 O.3   264  UDP264     -0.1143
     24  O2B       21.9940   11.9480    2.2380 O.2   264  UDP264     -0.2221
     25  O3B       21.3780   11.8510    4.6830 O.3   264  UDP264     -0.1143
@<TRIPOS>BOND
     1     8     4    2
     2     4     5    1
     3     4     3    2
     4     5     6    2
     5    20    18    2
     6    24    22    2
     7     3     2    2
     8     6     1    1
     9    18    21    1
    10    18    19    1
    11    18    17    1
    12     2     1   am
    13     2     7    2
    14    22    21    1
    15    22    23    1
    16    22    25    1
    17     1     9    1
    18    17    16    1
    19    12    10    1
    20    12    15    1
    21    12    13    1
    22     9    10    1
    23     9    14    1
    24    10    11    1
    25    16    13    1
    26    14    13    1
