@<TRIPOS>MOLECULE
3rmw_UPG_A_1.pdb
 36 38 0 0 0
SMALL
GASTEIGER

@<TRIPOS>ATOM
      1  N1        18.7700   19.4750    4.0090 N.am  263  UPG263     -0.1766
      2  C2        18.0010   20.5290    3.5700 C.1   263  UPG263      0.2845
      3  N3        18.3020   21.1360    2.3660 N.2   263  UPG263     -0.2452
      4  C4        19.3740   20.6730    1.6030 C.1   263  UPG263      0.2182
      5  C5        20.1580   19.5970    2.0430 C.2   263  UPG263      0.1242
      6  C6        19.8520   19.0020    3.2590 C.2   263  UPG263      0.0929
      7  O2        17.0460   20.9120    4.2500 O.2   263  UPG263     -0.1918
      8  O4        19.6040   21.2190    0.5330 O.2   263  UPG263     -0.2085
      9  C1C       18.4450   18.9040    5.3090 C.3   263  UPG263      0.2401
     10  C2C       17.3860   17.8450    5.2090 C.3   263  UPG263      0.2319
     11  O2C       16.7020   17.7960    6.4530 O.3   263  UPG263     -0.2157
     12  C3C       18.2530   16.6040    5.0470 C.3   263  UPG263      0.2158
     13  C4C       19.3560   16.8940    6.0620 C.3   263  UPG263      0.1799
     14  O4C       19.6570   18.2960    5.8350 O.3   263  UPG263     -0.3320
     15  O3C       17.5040   15.4280    5.3820 O.3   263  UPG263     -0.2175
     16  C5C       20.6270   16.1430    5.6920 C.3   263  UPG263      0.1813
     17  O5C       20.7910   16.0770    4.2690 O.3   263  UPG263     -0.3112
     18  PA        20.6410   14.6790    3.5440 P.3   263  UPG263      0.2189
     19  O1A       19.6100   13.7700    4.2220 O.3   263  UPG263     -0.4371
     20  O2A       20.5230   15.0220    2.1160 O.2   263  UPG263     -0.5170
     21  O3A       22.1080   14.0160    3.7970 O.3   263  UPG263     -0.2703
     22  PB        22.3160   12.3730    3.7960 P.3   263  UPG263      0.2208
     23  O1B       21.3670   11.8410    4.8600 O.3   263  UPG263     -0.4371
     24  O2B       22.1410   11.9200    2.4160 O.2   263  UPG263     -0.5170
     25  O3B       23.8910   12.3320    4.1450 O.3   263  UPG263     -0.2857
     26  C1'       24.5330   11.9500    5.4820 C.3   263  UPG263      0.2742
     27  C2'       23.7350   12.0310    6.7950 C.3   263  UPG263      0.2409
     28  C3'       23.0760   13.4020    6.9530 C.3   263  UPG263      0.2198
     29  C4'       24.1870   14.4490    7.1120 C.3   263  UPG263      0.2144
     30  C5'       25.5020   14.0610    6.4050 C.3   263  UPG263      0.1835
     31  C6'       26.4120   14.3710    7.5990 C.3   263  UPG263      0.2142
     32  O2'       22.8090   10.9530    6.8730 O.3   263  UPG263     -0.2149
     33  O3'       22.2470   13.3880    8.1240 O.3   263  UPG263     -0.2174
     34  O4'       23.7850   15.7570    6.6600 O.3   263  UPG263     -0.2176
     35  O5'       25.7420   12.6990    5.8530 O.3   263  UPG263     -0.3254
     36  O6'       27.6320   14.9670    7.1750 O.3   263  UPG263     -0.2176
@<TRIPOS>BOND
     1     8     4    2
     2     4     5    1
     3     4     3    2
     4     5     6    2
     5    20    18    2
     6     3     2    2
     7    24    22    2
     8     6     1    1
     9    18    21    1
    10    18    19    1
    11    18    17    1
    12     2     1   am
    13     2     7    2
    14    22    21    1
    15    22    25    1
    16    22    23    1
    17     1     9    1
    18    25    26    1
    19    17    16    1
    20    12    10    1
    21    12    15    1
    22    12    13    1
    23    10     9    1
    24    10    11    1
    25     9    14    1
    26    26    35    1
    27    26    27    1
    28    16    13    1
    29    14    13    1
    30    35    30    1
    31    30    29    1
    32    30    31    1
    33    34    29    1
    34    27    32    1
    35    27    28    1
    36    28    29    1
    37    28    33    1
    38    36    31    1
