@<TRIPOS>MOLECULE
3rmz_HEC_A_1.pdb
 43 50 0 0 0
SMALL
GASTEIGER

@<TRIPOS>ATOM
      1 FE         25.6190   29.2880  -84.4560 Fe    500  HEC500      0.0000
      2  CHA       25.5240   30.0390  -81.1150 C.2   500  HEC500      0.0000
      3  CHB       22.8550   31.3030  -85.0340 C.2   500  HEC500      0.0000
      4  CHC       26.3470   29.3570  -87.8280 C.2   500  HEC500      0.0000
      5  CHD       28.1000   26.9940  -83.8980 C.2   500  HEC500      0.0000
      6  NA        24.3350   30.3660  -83.2690 N.ar  500  HEC500      0.0000
      7  C1A       24.4870   30.6210  -81.9690 C.ar  500  HEC500      0.0000
      8  C2A       23.4140   31.3740  -81.4010 C.ar  500  HEC500      0.0000
      9  C3A       22.6690   31.7770  -82.4890 C.ar  500  HEC500      0.0000
     10  C4A       23.3400   31.1480  -83.6560 C.ar  500  HEC500      0.0000
     11  CMA       21.4050   32.6380  -82.5620 C.3   500  HEC500      0.0000
     12  CAA       23.2060   31.7550  -79.9230 C.3   500  HEC500      0.0000
     13  CBA       22.0880   30.9330  -79.3280 C.3   500  HEC500      0.0000
     14  CGA       22.1470   30.9740  -77.7850 C.2   500  HEC500      0.0000
     15  O1A       21.2580   30.3980  -77.1110 O.co2 500  HEC500      0.0000
     16  O2A       23.0360   31.6430  -77.2310 O.co2 500  HEC500      0.0000
     17  NB        24.7380   30.0870  -86.0720 N.2   500  HEC500      0.0000
     18  C1B       23.7010   30.9260  -86.1590 C.2   500  HEC500      0.0000
     19  C2B       23.4480   31.3810  -87.5350 C.2   500  HEC500      0.0000
     20  C3B       24.4530   30.8650  -88.3350 C.2   500  HEC500      0.0000
     21  C4B       25.2370   30.1110  -87.3490 C.2   500  HEC500      0.0000
     22  CMB       22.2880   32.3210  -87.8680 C.3   500  HEC500      0.0000
     23  CAB       24.7650   31.0450  -89.8580 C.3   500  HEC500      0.0000
     24  CBB       25.0480   32.5560  -90.1080 C.3   500  HEC500      0.0000
     25  NC        26.9490   28.3040  -85.6360 N.ar  500  HEC500      0.0000
     26  C1C       27.0770   28.4170  -86.9790 C.ar  500  HEC500      0.0000
     27  C2C       27.9690   27.4080  -87.5190 C.ar  500  HEC500      0.0000
     28  C3C       28.4750   26.7330  -86.4110 C.ar  500  HEC500      0.0000
     29  C4C       27.8800   27.4090  -85.2920 C.ar  500  HEC500      0.0000
     30  CMC       28.2130   27.2220  -88.9810 C.3   500  HEC500      0.0000
     31  CAC       29.4540   25.5510  -86.2410 C.3   500  HEC500      0.0000
     32  CBC       30.7770   25.7770  -86.9920 C.3   500  HEC500      0.0000
     33  ND        26.5670   28.5580  -82.8130 N.2   500  HEC500      0.0000
     34  C1D       27.6550   27.8200  -82.7520 C.2   500  HEC500      0.0000
     35  C2D       28.2990   27.7690  -81.4610 C.2   500  HEC500      0.0000
     36  C3D       27.5560   28.5980  -80.6440 C.2   500  HEC500      0.0000
     37  C4D       26.5310   29.1300  -81.5810 C.2   500  HEC500      0.0000
     38  CMD       29.4760   26.8810  -81.0170 C.3   500  HEC500      0.0000
     39  CAD       27.7980   29.0370  -79.2000 C.3   500  HEC500      0.0000
     40  CBD       29.1250   29.8000  -79.1760 C.3   500  HEC500      0.0000
     41  CGD       29.3210   30.6990  -77.9660 C.2   500  HEC500      0.0000
     42  O1D       30.3740   31.3380  -77.9130 O.co2 500  HEC500      0.0000
     43  O2D       28.4440   30.7610  -77.1060 O.co2 500  HEC500      0.0000
@<TRIPOS>BOND
     1    24    23    1
     2    23    20    1
     3    30    27    1
     4    20    19    2
     5    20    21    1
     6    22    19    1
     7     4    21    2
     8     4    26    1
     9    19    18    1
    10    27    26   ar
    11    27    28   ar
    12    21    17    1
    13    32    31    1
    14    26    25   ar
    15    28    31    1
    16    28    29   ar
    17    18    17    2
    18    18     3    1
    19    17     1    1
    20    25    29   ar
    21    25     1    1
    22    29     5    1
    23     3    10    2
    24     1     6    1
    25     1    33    1
    26     5    34    2
    27    10     6   ar
    28    10     9   ar
    29     6     7   ar
    30    33    34    1
    31    33    37    2
    32    34    35    1
    33    11     9    1
    34     9     8   ar
    35     7     8   ar
    36     7     2    2
    37    37     2    1
    38    37    36    1
    39    35    38    1
    40    35    36    2
    41     8    12    1
    42    36    39    1
    43    12    13    1
    44    13    14    1
    45    39    40    1
    46    40    41    1
    47    41    42   ar
    48    41    43   ar
    49    14    16   ar
    50    14    15   ar
