@<TRIPOS>MOLECULE
3rn0_HEC_A_1.pdb
 43 50 0 0 0
SMALL
GASTEIGER

@<TRIPOS>ATOM
      1 FE         25.5950   29.3700  -84.5830 Fe    500  HEC500      0.0000
      2  CHA       25.4520   30.0590  -81.1540 C.2   500  HEC500      0.0000
      3  CHB       22.8790   31.4160  -85.1820 C.2   500  HEC500      0.0000
      4  CHC       26.2900   29.2960  -87.9890 C.2   500  HEC500      0.0000
      5  CHD       27.9420   26.9580  -84.0070 C.2   500  HEC500      0.0000
      6  NA        24.3280   30.5270  -83.3410 N.ar  500  HEC500      0.0000
      7  C1A       24.3730   30.6880  -82.0050 C.ar  500  HEC500      0.0000
      8  C2A       23.2710   31.5620  -81.5000 C.ar  500  HEC500      0.0000
      9  C3A       22.5600   31.9310  -82.6450 C.ar  500  HEC500      0.0000
     10  C4A       23.2980   31.3010  -83.7600 C.ar  500  HEC500      0.0000
     11  CMA       21.3350   32.8040  -82.8210 C.3   500  HEC500      0.0000
     12  CAA       22.9560   31.9260  -80.0500 C.3   500  HEC500      0.0000
     13  CBA       21.9660   30.9020  -79.4880 C.3   500  HEC500      0.0000
     14  CGA       21.9160   30.9570  -77.9430 C.2   500  HEC500      0.0000
     15  O1A       20.9820   30.3790  -77.3070 O.co2 500  HEC500      0.0000
     16  O2A       22.8090   31.5840  -77.3100 O.co2 500  HEC500      0.0000
     17  NB        24.7290   30.1970  -86.2910 N.2   500  HEC500      0.0000
     18  C1B       23.6850   31.0600  -86.3500 C.2   500  HEC500      0.0000
     19  C2B       23.4070   31.6090  -87.6990 C.2   500  HEC500      0.0000
     20  C3B       24.3840   30.9940  -88.4970 C.2   500  HEC500      0.0000
     21  C4B       25.1560   30.1370  -87.5550 C.2   500  HEC500      0.0000
     22  CMB       22.3080   32.5940  -88.0210 C.3   500  HEC500      0.0000
     23  CAB       24.6950   31.1460  -89.9730 C.3   500  HEC500      0.0000
     24  CBB       25.2540   32.5710  -90.0540 C.3   500  HEC500      0.0000
     25  NC        26.8740   28.3010  -85.7980 N.ar  500  HEC500      0.0000
     26  C1C       27.0400   28.3960  -87.1320 C.ar  500  HEC500      0.0000
     27  C2C       27.9320   27.3570  -87.6840 C.ar  500  HEC500      0.0000
     28  C3C       28.4420   26.6760  -86.5820 C.ar  500  HEC500      0.0000
     29  C4C       27.7830   27.3640  -85.4220 C.ar  500  HEC500      0.0000
     30  CMC       28.1830   27.1700  -89.1580 C.3   500  HEC500      0.0000
     31  CAC       29.4140   25.5120  -86.5000 C.3   500  HEC500      0.0000
     32  CBC       30.7280   25.8230  -87.2170 C.3   500  HEC500      0.0000
     33  ND        26.4590   28.5680  -82.8630 N.2   500  HEC500      0.0000
     34  C1D       27.5380   27.7750  -82.8330 C.2   500  HEC500      0.0000
     35  C2D       28.2700   27.7070  -81.5610 C.2   500  HEC500      0.0000
     36  C3D       27.5540   28.5810  -80.7430 C.2   500  HEC500      0.0000
     37  C4D       26.4660   29.0960  -81.6180 C.2   500  HEC500      0.0000
     38  CMD       29.5080   26.8650  -81.3060 C.3   500  HEC500      0.0000
     39  CAD       27.8410   29.0250  -79.3270 C.3   500  HEC500      0.0000
     40  CBD       29.1010   29.9110  -79.3760 C.3   500  HEC500      0.0000
     41  CGD       29.2580   30.7690  -78.1410 C.2   500  HEC500      0.0000
     42  O1D       30.1780   31.6110  -78.1430 O.co2 500  HEC500      0.0000
     43  O2D       28.4160   30.7020  -77.2350 O.co2 500  HEC500      0.0000
@<TRIPOS>BOND
     1    24    23    1
     2    23    20    1
     3    30    27    1
     4    20    19    2
     5    20    21    1
     6    22    19    1
     7     4    21    2
     8     4    26    1
     9    19    18    1
    10    27    26   ar
    11    27    28   ar
    12    21    17    1
    13    32    31    1
    14    26    25   ar
    15    28    31    1
    16    28    29   ar
    17    18    17    2
    18    18     3    1
    19    17     1    1
    20    25    29   ar
    21    25     1    1
    22    29     5    1
    23     3    10    2
    24     1     6    1
    25     1    33    1
    26     5    34    2
    27    10     6   ar
    28    10     9   ar
    29     6     7   ar
    30    33    34    1
    31    33    37    2
    32    34    35    1
    33    11     9    1
    34     9     8   ar
    35     7     8   ar
    36     7     2    2
    37    37     2    1
    38    37    36    1
    39    35    38    1
    40    35    36    2
    41     8    12    1
    42    36    39    1
    43    12    13    1
    44    13    14    1
    45    40    39    1
    46    40    41    1
    47    42    41   ar
    48    41    43   ar
    49    14    16   ar
    50    14    15   ar
