@<TRIPOS>MOLECULE
3rn1_HEC_A_1.pdb
 43 50 0 0 0
SMALL
GASTEIGER

@<TRIPOS>ATOM
      1 FE         25.6840   29.3170  -84.4350 Fe    500  HEC500      0.0000
      2  CHA       25.5610   30.1250  -81.1270 C.2   500  HEC500      0.0000
      3  CHB       22.9750   31.3020  -85.0640 C.2   500  HEC500      0.0000
      4  CHC       26.3490   29.2680  -87.7980 C.2   500  HEC500      0.0000
      5  CHD       28.1470   26.9750  -83.8250 C.2   500  HEC500      0.0000
      6  NA        24.3830   30.4530  -83.2650 N.ar  500  HEC500      0.0000
      7  C1A       24.5010   30.7110  -81.9580 C.ar  500  HEC500      0.0000
      8  C2A       23.3330   31.4460  -81.3920 C.ar  500  HEC500      0.0000
      9  C3A       22.6180   31.8690  -82.5110 C.ar  500  HEC500      0.0000
     10  C4A       23.3650   31.2250  -83.6490 C.ar  500  HEC500      0.0000
     11  CMA       21.3080   32.6770  -82.5320 C.3   500  HEC500      0.0000
     12  CAA       23.1250   31.7930  -79.9410 C.3   500  HEC500      0.0000
     13  CBA       22.1150   30.8840  -79.3190 C.3   500  HEC500      0.0000
     14  CGA       22.0980   31.0030  -77.7780 C.2   500  HEC500      0.0000
     15  O1A       21.2090   30.4070  -77.1490 O.co2 500  HEC500      0.0000
     16  O2A       22.9500   31.6440  -77.1460 O.co2 500  HEC500      0.0000
     17  NB        24.7800   30.0960  -86.1360 N.2   500  HEC500      0.0000
     18  C1B       23.7810   30.9660  -86.2150 C.2   500  HEC500      0.0000
     19  C2B       23.4900   31.4700  -87.5880 C.2   500  HEC500      0.0000
     20  C3B       24.4590   30.8740  -88.4020 C.2   500  HEC500      0.0000
     21  C4B       25.2530   30.1060  -87.3970 C.2   500  HEC500      0.0000
     22  CMB       22.3300   32.4030  -87.9300 C.3   500  HEC500      0.0000
     23  CAB       24.7560   31.0250  -89.9030 C.3   500  HEC500      0.0000
     24  CBB       25.2420   32.4430  -90.1320 C.3   500  HEC500      0.0000
     25  NC        27.0180   28.2640  -85.5970 N.ar  500  HEC500      0.0000
     26  C1C       27.1490   28.3920  -86.9190 C.ar  500  HEC500      0.0000
     27  C2C       28.0800   27.4010  -87.4890 C.ar  500  HEC500      0.0000
     28  C3C       28.5940   26.7270  -86.3770 C.ar  500  HEC500      0.0000
     29  C4C       27.9430   27.3710  -85.2300 C.ar  500  HEC500      0.0000
     30  CMC       28.3480   27.2120  -88.9670 C.3   500  HEC500      0.0000
     31  CAC       29.5660   25.5780  -86.2350 C.3   500  HEC500      0.0000
     32  CBC       30.9400   25.7750  -86.9060 C.3   500  HEC500      0.0000
     33  ND        26.6290   28.5970  -82.7380 N.2   500  HEC500      0.0000
     34  C1D       27.7100   27.8190  -82.6650 C.2   500  HEC500      0.0000
     35  C2D       28.3870   27.8370  -81.3260 C.2   500  HEC500      0.0000
     36  C3D       27.6830   28.7640  -80.5830 C.2   500  HEC500      0.0000
     37  C4D       26.6030   29.2010  -81.5180 C.2   500  HEC500      0.0000
     38  CMD       29.6050   27.0480  -80.9160 C.3   500  HEC500      0.0000
     39  CAD       27.9500   29.1920  -79.1510 C.3   500  HEC500      0.0000
     40  CBD       29.2850   29.9340  -79.2010 C.3   500  HEC500      0.0000
     41  CGD       29.4910   30.8000  -77.9740 C.2   500  HEC500      0.0000
     42  O1D       30.5330   31.4930  -77.9050 O.co2 500  HEC500      0.0000
     43  O2D       28.6000   30.9110  -77.0910 O.co2 500  HEC500      0.0000
@<TRIPOS>BOND
     1    24    23    1
     2    23    20    1
     3    30    27    1
     4    20    19    2
     5    20    21    1
     6    22    19    1
     7     4    21    2
     8     4    26    1
     9    19    18    1
    10    27    26   ar
    11    27    28   ar
    12    21    17    1
    13    26    25   ar
    14    32    31    1
    15    28    31    1
    16    28    29   ar
    17    18    17    2
    18    18     3    1
    19    17     1    1
    20    25    29   ar
    21    25     1    1
    22    29     5    1
    23     3    10    2
    24     1     6    1
    25     1    33    1
    26     5    34    2
    27    10     6   ar
    28    10     9   ar
    29     6     7   ar
    30    33    34    1
    31    33    37    2
    32    34    35    1
    33    11     9    1
    34     9     8   ar
    35     7     8   ar
    36     7     2    2
    37    37     2    1
    38    37    36    1
    39     8    12    1
    40    35    38    1
    41    35    36    2
    42    36    39    1
    43    12    13    1
    44    13    14    1
    45    40    39    1
    46    40    41    1
    47    41    42   ar
    48    41    43   ar
    49    14    15   ar
    50    14    16   ar
