@<TRIPOS>MOLECULE
3rn6_PXN_A_1.pdb
 25 24 0 0 0
SMALL
GASTEIGER

@<TRIPOS>ATOM
      1  CAA      -62.8620   -4.6210   -6.8520 C.3   427  PXN427      0.0382
      2  CAB      -56.0880   -3.6290   -5.3110 C.3   427  PXN427      0.0382
      3  CAC      -60.5890   -3.1160   -9.6680 C.3   427  PXN427      0.1494
      4  OAD      -61.8590   -3.6980   -9.7020 O.3   427  PXN427     -0.3508
      5  CAE      -62.8640   -3.1380   -8.9130 C.3   427  PXN427      0.1748
      6  CAF      -63.6350   -4.0960   -8.0550 C.3   427  PXN427      0.1815
      7  OAG      -64.9310   -3.6440   -7.8520 O.3   427  PXN427     -0.2205
      8  OAH      -57.9100   -5.1990   -4.9400 O.3   427  PXN427     -0.2205
      9  CAI      -57.5210   -4.0290   -5.5650 C.3   427  PXN427      0.1815
     10  CAJ      -57.9000   -3.9700   -7.0250 C.3   427  PXN427      0.1748
     11  OAK      -59.1930   -4.4050   -7.3790 O.3   427  PXN427     -0.3508
     12  CAL      -59.3600   -5.0060   -8.6460 C.3   427  PXN427      0.1494
     13  CAM      -59.4370   -4.0880   -9.8560 C.3   427  PXN427      0.1092
     14  CAN      -58.1450   -3.3410  -10.0640 C.3   427  PXN427      0.1494
     15  OAO      -57.2780   -4.0680  -10.8630 O.3   427  PXN427     -0.3508
     16  CAP      -55.9490   -3.6400  -10.9210 C.3   427  PXN427      0.1748
     17  CAQ      -54.9050   -4.5990  -10.4260 C.3   427  PXN427      0.1815
     18  OAR      -53.8940   -3.8980   -9.8110 O.3   427  PXN427     -0.2205
     19  OAS      -60.0730   -3.4130  -15.7100 O.3   427  PXN427     -0.2205
     20  CAT      -60.7610   -3.5480  -14.5060 C.3   427  PXN427      0.1815
     21  CAU      -59.8830   -3.7750  -13.2820 C.3   427  PXN427      0.1748
     22  OAV      -60.4660   -4.3160  -12.1130 O.3   427  PXN427     -0.3508
     23  CAW      -59.6430   -4.8860  -11.1260 C.3   427  PXN427      0.1494
     24  CAX      -54.4810   -5.6460  -11.4500 C.3   427  PXN427      0.0382
     25  CAY      -61.8580   -2.5370  -14.3020 C.3   427  PXN427      0.0382
@<TRIPOS>BOND
     1    19    20    1
     2    20    25    1
     3    20    21    1
     4    21    22    1
     5    22    23    1
     6    24    17    1
     7    23    13    1
     8    16    15    1
     9    16    17    1
    10    15    14    1
    11    17    18    1
    12    14    13    1
    13    13     3    1
    14    13    12    1
    15     4     3    1
    16     4     5    1
    17     5     6    1
    18    12    11    1
    19     6     7    1
    20     6     1    1
    21    11    10    1
    22    10     9    1
    23     9     2    1
    24     9     8    1
