@<TRIPOS>MOLECULE
3rn6_IGA_A_1.pdb
 11 12 0 0 0
SMALL
GASTEIGER

@<TRIPOS>ATOM
      1  N1       -69.1150   20.2230  -16.5650 N.2   430  IGA430     -0.2871
      2  C2       -69.7360   19.9620  -15.3660 C.1   430  IGA430      0.3655
      3  O2       -70.3510   20.8780  -14.7540 O.2   430  IGA430     -0.1745
      4  N3       -69.7270   18.7360  -14.7880 N.2   430  IGA430     -0.2520
      5  C4       -69.0990   17.6960  -15.3700 C.1   430  IGA430      0.1219
      6  C5       -68.4060   17.9010  -16.6660 C.2   430  IGA430      0.2005
      7  C6       -68.4530   19.2630  -17.2600 C.2   430  IGA430      0.2620
      8  N6       -67.8770   19.4780  -18.3600 N.pl3 430  IGA430     -0.0896
      9  N7       -67.8680   16.7220  -17.0160 N.2   430  IGA430     -0.2288
     10  C8       -68.1790   15.8240  -16.0410 C.3   430  IGA430      0.2627
     11  N9       -68.9180   16.4050  -15.0550 N.2   430  IGA430     -0.1807
@<TRIPOS>BOND
     1     8     7    1
     2     7     6    1
     3     7     1    2
     4     9     6    2
     5     9    10    1
     6     6     5    1
     7     1     2    2
     8    10    11    1
     9     5    11    2
    10     5     4    2
    11     2     4    2
    12     2     3    2
