@<TRIPOS>MOLECULE
3rn8_RN8_A_1.pdb
 30 32 0 0 0
SMALL
GASTEIGER

@<TRIPOS>ATOM
      1  C4        61.9130   27.3210   42.6940 C.ar  281  RN8281      0.0000
      2  C5        60.2440   25.1060   42.6570 C.ar  281  RN8281      0.0000
      3  C6        62.4800   26.0110   42.7040 C.ar  281  RN8281      0.0000
      4  C7        58.4590   31.3490   45.3800 C.3   281  RN8281      0.0337
      5  C8        63.8040   21.0670   45.2830 C.3   281  RN8281      0.0337
      6  C10       63.2720   23.9930   45.0110 C.1   281  RN8281      0.1006
      7  C13       59.1810   30.6340   44.2490 C.ar  281  RN8281      0.0171
      8  C15       59.4250   29.2880   44.0830 C.ar  281  RN8281      0.0711
      9  C17       60.0980   28.9240   42.8240 C.ar  281  RN8281      0.0222
     10  C20       61.7790   22.3530   42.0920 C.ar  281  RN8281      0.1096
     11  C21       61.1160   30.2180   40.8210 C.2   281  RN8281      0.3937
     12  C22       61.0620   22.2490   40.7480 C.2   281  RN8281      0.3937
     13  O28       61.1690   23.2570   40.0130 O.co2 281  RN8281     -0.2400
     14  O26       60.5360   21.1260   40.5010 O.co2 281  RN8281     -0.2400
     15  S30       62.3860   20.9570   42.8810 S.2   281  RN8281     -0.0841
     16  C14       63.0610   21.7630   44.1760 C.ar  281  RN8281      0.0171
     17  C2        62.9980   19.9830   45.9720 C.3   281  RN8281      0.0056
     18  C18       62.0930   23.4950   42.7700 C.ar  281  RN8281      0.0222
     19  C16       62.7850   23.1200   44.0100 C.ar  281  RN8281      0.0711
     20  N24       63.7120   24.6940   45.8290 N.1   281  RN8281     -0.1908
     21  C12       61.6400   24.8860   42.6300 C.ar  281  RN8281      0.0013
     22  C11       60.5280   27.5310   42.6430 C.ar  281  RN8281      0.0013
     23  C3        59.6920   26.4010   42.6860 C.ar  281  RN8281      0.0000
     24  C9        58.9540   28.3840   45.0820 C.1   281  RN8281      0.1006
     25  N23       58.5430   27.6420   45.8780 N.1   281  RN8281     -0.1908
     26  C19       60.3970   30.0660   42.1600 C.ar  281  RN8281      0.1096
     27  O27       61.0150   29.2310   40.0560 O.co2 281  RN8281     -0.2400
     28  O25       61.6770   31.3410   40.6540 O.co2 281  RN8281     -0.2400
     29  S29       59.8370   31.4780   42.9400 S.2   281  RN8281     -0.0841
     30  C1        59.3200   32.3970   46.0460 C.3   281  RN8281      0.0056
@<TRIPOS>BOND
     1    13    12   ar
     2    27    11   ar
     3    14    12   ar
     4    28    11   ar
     5    12    10    1
     6    11    26    1
     7    10    18   ar
     8    10    15   ar
     9    26     9   ar
    10    26    29   ar
    11    21     2   ar
    12    21     3   ar
    13    21    18    1
    14    22    23   ar
    15    22     1   ar
    16    22     9    1
    17     2    23   ar
    18     1     3   ar
    19    18    19   ar
    20     9     8   ar
    21    15    16   ar
    22    29     7   ar
    23    19    16   ar
    24    19     6    1
    25     8     7   ar
    26     8    24    1
    27    16     5    1
    28     7     4    1
    29     6    20    3
    30    24    25    3
    31     5    17    1
    32     4    30    1
