@<TRIPOS>MOLECULE
3rn8_GLU_A_1.pdb
 10 9 0 0 0
SMALL
GASTEIGER

@<TRIPOS>ATOM
      1  N         75.0320   27.0080   43.0890 N.3   280  GLU280     -0.1208
      2  CA        76.0290   25.9180   43.3530 C.3   280  GLU280      0.1949
      3  C         76.1790   25.6480   44.8400 C.2   280  GLU280      0.3819
      4  O         77.0160   24.8090   45.2070 O.co2 280  GLU280     -0.2441
      5  CB        77.3930   26.2940   42.7670 C.3   280  GLU280      0.0424
      6  CG        77.4740   26.1890   41.2510 C.3   280  GLU280      0.1161
      7  CD        77.5560   24.7390   40.7250 C.2   280  GLU280      0.3649
      8  OE1       77.3780   24.6000   39.4900 O.co2 280  GLU280     -0.2457
      9  OE2       77.8360   23.7630   41.5070 O.co2 280  GLU280     -0.2457
     10  OXT       75.4980   26.2810   45.6830 O.co2 280  GLU280     -0.2441
@<TRIPOS>BOND
     1     8     7   ar
     2     7     6    1
     3     7     9   ar
     4     6     5    1
     5     5     2    1
     6     1     2    1
     7     2     3    1
     8     3     4   ar
     9     3    10   ar
