@<TRIPOS>MOLECULE
3rnd_FMN_A_1.pdb
 31 33 0 0 0
SMALL
GASTEIGER

@<TRIPOS>ATOM
      1  N1         3.3160  -35.5730  -10.4060 N.2   401  FMN401     -0.2887
      2  C2         2.5530  -34.8610   -9.5140 C.1   401  FMN401      0.3669
      3  O2         3.0040  -33.8280   -9.0290 O.2   401  FMN401     -0.1744
      4  N3         1.2940  -35.3030   -9.1620 N.2   401  FMN401     -0.2300
      5  C4         0.7710  -36.4600   -9.6950 C.1   401  FMN401      0.2513
      6  O4        -0.3510  -36.8140   -9.3270 O.2   401  FMN401     -0.2057
      7  C4A        1.5320  -37.1850  -10.6090 C.2   401  FMN401      0.2706
      8  N5         1.0450  -38.3450  -11.1820 N.2   401  FMN401     -0.3841
      9  C5A        1.8360  -39.0730  -12.0530 C.2   401  FMN401      0.1452
     10  C6         1.3580  -40.2500  -12.6200 C.2   401  FMN401      0.0252
     11  C7         2.1350  -40.9840  -13.5110 C.2   401  FMN401     -0.0375
     12  C7M        1.6000  -42.2640  -14.0840 C.3   401  FMN401      0.0268
     13  C8         3.4090  -40.5260  -13.8420 C.3   401  FMN401      0.0417
     14  C8M        4.2650  -41.3030  -14.8030 C.3   401  FMN401      0.0091
     15  C9         3.8910  -39.3470  -13.2740 C.2   401  FMN401     -0.0049
     16  C9A        3.1080  -38.6120  -12.3890 C.2   401  FMN401      0.0795
     17  N10        3.5880  -37.4420  -11.8250 N.pl3 401  FMN401     -0.2545
     18  C10        2.8100  -36.7350  -10.9400 C.2   401  FMN401      0.2449
     19  C1'        4.9780  -36.9630  -12.1220 C.3   401  FMN401      0.1336
     20  C2'        5.9120  -37.7690  -11.1780 C.3   401  FMN401      0.2048
     21  O2'        5.7310  -37.4800   -9.7930 O.3   401  FMN401     -0.2185
     22  C3'        7.4090  -37.6330  -11.4740 C.3   401  FMN401      0.2165
     23  O3'        7.8020  -36.2850  -11.3240 O.3   401  FMN401     -0.2175
     24  C4'        7.7760  -38.1000  -12.8810 C.3   401  FMN401      0.2147
     25  O4'        7.1800  -39.3500  -13.1750 O.3   401  FMN401     -0.2176
     26  C5'        9.2880  -38.1680  -13.1120 C.3   401  FMN401      0.1892
     27  O5'        9.9300  -39.0530  -12.2110 O.3   401  FMN401     -0.2674
     28  P         10.3510  -40.5410  -12.6950 P.3   401  FMN401      0.5327
     29  O1P       11.2480  -40.4210  -13.9090 O.2   401  FMN401     -0.2224
     30  O2P        9.0740  -41.2920  -13.0440 O.3   401  FMN401     -0.1145
     31  O3P       11.0690  -41.1540  -11.5070 O.3   401  FMN401     -0.1145
@<TRIPOS>BOND
     1    14    13    1
     2    12    11    1
     3    29    28    2
     4    13    11    1
     5    13    15    1
     6    11    10    2
     7    15    16    2
     8    25    24    1
     9    26    24    1
    10    26    27    1
    11    30    28    1
    12    24    22    1
    13    28    27    1
    14    28    31    1
    15    10     9    1
    16    16     9    1
    17    16    17    1
    18    19    17    1
    19    19    20    1
    20     9     8    2
    21    17    18    1
    22    22    23    1
    23    22    20    1
    24     8     7    2
    25    20    21    1
    26    18     7    1
    27    18     1    2
    28     7     5    1
    29     1     2    2
    30     5     6    2
    31     5     4    2
    32     2     4    2
    33     2     3    2
