@<TRIPOS>MOLECULE
3rni_21Z_A_1.pdb
 25 27 0 0 0
SMALL
GASTEIGER

@<TRIPOS>ATOM
      1  N01      -38.4130  118.2670   86.0070 N.2   424  21Z424     -0.3642
      2  N02      -37.1470  118.7870   84.1970 N.pl3 424  21Z424     -0.1781
      3  N03      -39.9700  117.4340   87.5180 N.pl3 424  21Z424     -0.0965
      4  N04      -34.6300  122.4010   81.6300 N.3   424  21Z424      0.0392
      5  C05      -40.1260  116.8060   85.2660 C.3   424  21Z424      0.1864
      6  C06      -39.5310  117.5010   86.3280 C.2   424  21Z424      0.2162
      7  C07      -38.1560  118.1610   84.7150 C.2   424  21Z424      0.2328
      8  C08      -41.2450  115.9660   85.3540 C.2   424  21Z424      0.1913
      9  C09      -36.6380  118.6570   83.0000 C.ar  424  21Z424      0.0749
     10  C10      -41.5970  115.1100   84.3160 C.ar  424  21Z424      0.0360
     11  C11      -35.9690  119.7800   82.4490 C.ar  424  21Z424      0.0366
     12  C12      -35.3880  119.7170   81.1620 C.ar  424  21Z424      0.1263
     13  C13      -35.4650  118.5260   80.3910 C.ar  424  21Z424      0.0201
     14  C14      -36.1270  117.3810   80.9200 C.ar  424  21Z424      0.0027
     15  C15      -36.7100  117.4430   82.2210 C.ar  424  21Z424      0.0167
     16  C16      -40.6500  114.1880   83.7570 C.ar  424  21Z424      0.0029
     17  C17      -41.0310  113.3230   82.6930 C.ar  424  21Z424      0.0001
     18  C18      -42.3510  113.3660   82.1800 C.ar  424  21Z424      0.0000
     19  C19      -43.3000  114.2710   82.7270 C.ar  424  21Z424      0.0001
     20  C20      -42.9250  115.1410   83.7910 C.ar  424  21Z424      0.0029
     21  O21      -41.9250  115.9710   86.3700 O.2   424  21Z424     -0.2899
     22  O22      -33.1580  120.7970   80.2760 O.2   424  21Z424     -0.1503
     23  O23      -35.1860  121.5330   79.2490 O.2   424  21Z424     -0.1503
     24  S24      -39.2490  117.1460   83.8280 S.3   424  21Z424     -0.0494
     25  S25      -34.5530  121.1460   80.5080 S.O2  424  21Z424      0.0935
@<TRIPOS>BOND
     1    23    25    2
     2    22    25    2
     3    13    14   ar
     4    13    12   ar
     5    25    12    1
     6    25     4    1
     7    14    15   ar
     8    12    11   ar
     9    18    17   ar
    10    18    19   ar
    11    15     9   ar
    12    11     9   ar
    13    17    16   ar
    14    19    20   ar
    15     9     2    1
    16    16    10   ar
    17    20    10   ar
    18    24     7    1
    19    24     5    1
    20     2     7    1
    21    10     8    1
    22     7     1    2
    23     5     8    1
    24     5     6    1
    25     8    21    2
    26     1     6    2
    27     6     3    1
