@<TRIPOS>MOLECULE
3rnj_EDT_A_1.pdb
 20 19 0 0 0
SMALL
GASTEIGER

@<TRIPOS>ATOM
      1  O20       11.1030  -18.3920    5.1010 O.co2   1  EDT1       -0.2441
      2  C5        12.2300  -18.7160    5.5520 C.2     1  EDT1        0.3809
      3  O19       12.4500  -19.9150    5.9620 O.co2   1  EDT1       -0.2441
      4  C4        13.3150  -17.6800    5.6020 C.3     1  EDT1        0.1882
      5  N3        12.9510  -16.3550    5.1550 N.3     1  EDT1       -0.2524
      6  C2        12.0670  -15.6760    6.1180 C.3     1  EDT1        0.1882
      7  C1        11.0720  -14.7200    5.5440 C.2     1  EDT1        0.3809
      8  O18       10.8440  -14.7580    4.3120 O.co2   1  EDT1       -0.2441
      9  O17       10.4970  -13.9050    6.2840 O.co2   1  EDT1       -0.2441
     10  C6        14.0750  -15.5500    4.8040 C.3     1  EDT1        0.0905
     11  C7        14.6210  -15.7970    3.4410 C.3     1  EDT1        0.0905
     12  N8        13.6070  -15.8730    2.4000 N.3     1  EDT1       -0.2524
     13  C9        14.0540  -16.7260    1.3280 C.3     1  EDT1        0.1882
     14  C10       13.7410  -18.1950    1.4970 C.2     1  EDT1        0.3809
     15  O16       13.3560  -18.6300    2.6270 O.co2   1  EDT1       -0.2441
     16  O15       13.8870  -18.9880    0.5270 O.co2   1  EDT1       -0.2441
     17  C11       13.3290  -14.5530    1.9320 C.3     1  EDT1        0.1882
     18  C12       12.2170  -14.3660    0.8850 C.2     1  EDT1        0.3809
     19  O13       12.3790  -13.5300   -0.0590 O.co2   1  EDT1       -0.2441
     20  O14       11.1490  -15.0600    0.9590 O.co2   1  EDT1       -0.2441
@<TRIPOS>BOND
     1    19    18   ar
     2    16    14   ar
     3    18    20   ar
     4    18    17    1
     5    13    14    1
     6    13    12    1
     7    14    15   ar
     8    17    12    1
     9    12    11    1
    10    11    10    1
    11     8     7   ar
    12    10     5    1
    13     1     2   ar
    14     5     4    1
    15     5     6    1
    16     7     6    1
    17     7     9   ar
    18     2     4    1
    19     2     3   ar
