@<TRIPOS>MOLECULE
3rnn_RNN_A_1.pdb
 24 24 0 0 0
SMALL
GASTEIGER

@<TRIPOS>ATOM
      1  C1        62.7480   27.1450   42.3600 C.ar  280  RNN280     -0.0045
      2  C2        62.7820   25.7470   42.3480 C.ar  280  RNN280     -0.0045
      3  C3        60.3340   27.1050   42.3390 C.ar  280  RNN280     -0.0045
      4  C4        60.3650   25.7060   42.3380 C.ar  280  RNN280     -0.0045
      5  C5        61.5320   27.8260   42.3660 C.ar  280  RNN280     -0.0207
      6  C6        61.5840   25.0240   42.3310 C.ar  280  RNN280     -0.0207
      7  C7        59.2760   31.9030   46.3690 C.3   280  RNN280      0.0270
      8  C8        56.9770   30.8930   46.2390 C.3   280  RNN280      0.0270
      9  C9        63.7920   20.8120   46.3120 C.3   280  RNN280      0.0270
     10  C10       66.0850   21.8330   46.2080 C.3   280  RNN280      0.0270
     11  C11       61.5420   29.3380   42.3720 C.3   280  RNN280      0.0471
     12  C12       61.5900   23.5310   42.3090 C.3   280  RNN280      0.0471
     13  C13       60.3240   29.9550   43.0570 C.3   280  RNN280      0.1197
     14  C14       62.7410   22.8880   43.0650 C.3   280  RNN280      0.1197
     15  C15       58.3400   31.0110   45.5650 C.3   280  RNN280      0.1473
     16  C16       64.7240   21.7310   45.5200 C.3   280  RNN280      0.1473
     17  N17       60.4160   29.6800   44.5020 N.3   280  RNN280     -0.0818
     18  N18       62.6370   23.1590   44.4690 N.3   280  RNN280     -0.0818
     19  O19       59.4100   28.9450   46.7270 O.2   280  RNN280     -0.1562
     20  O20       58.1490   28.6060   44.5310 O.2   280  RNN280     -0.1562
     21  O21       63.7660   23.7840   46.7370 O.2   280  RNN280     -0.1562
     22  O22       64.9790   24.1340   44.5400 O.2   280  RNN280     -0.1562
     23  S23       59.0130   29.3810   45.4110 S.O2  280  RNN280      0.0556
     24  S24       64.0520   23.3790   45.3740 S.O2  280  RNN280      0.0556
@<TRIPOS>BOND
     1    12     6    1
     2    12    14    1
     3     6     4   ar
     4     6     2   ar
     5     4     3   ar
     6     3     5   ar
     7     2     1   ar
     8     1     5   ar
     9     5    11    1
    10    11    13    1
    11    13    17    1
    12    14    18    1
    13    18    24    1
    14    17    23    1
    15    20    23    2
    16    22    24    2
    17    24    16    1
    18    24    21    2
    19    23    15    1
    20    23    19    2
    21    16    10    1
    22    16     9    1
    23    15     8    1
    24    15     7    1
