@<TRIPOS>MOLECULE
3rnn_GLU_A_1.pdb
 10 9 0 0 0
SMALL
GASTEIGER

@<TRIPOS>ATOM
      1  N         75.7080   27.1300   43.1200 N.3   281  GLU281     -0.1208
      2  CA        76.7340   26.0630   43.3670 C.3   281  GLU281      0.1949
      3  C         76.8490   25.7810   44.8440 C.2   281  GLU281      0.3819
      4  O         77.6860   24.9650   45.2490 O.co2 281  GLU281     -0.2441
      5  CB        78.0960   26.4560   42.7800 C.3   281  GLU281      0.0424
      6  CG        78.1570   26.3540   41.2520 C.3   281  GLU281      0.1161
      7  CD        78.2050   24.9020   40.7350 C.2   281  GLU281      0.3649
      8  OE1       77.9800   24.7080   39.5150 O.co2 281  GLU281     -0.2457
      9  OE2       78.4720   23.9710   41.5350 O.co2 281  GLU281     -0.2457
     10  OXT       76.1160   26.4090   45.6350 O.co2 281  GLU281     -0.2441
@<TRIPOS>BOND
     1     8     7   ar
     2     7     6    1
     3     7     9   ar
     4     6     5    1
     5     5     2    1
     6     1     2    1
     7     2     3    1
     8     3     4   ar
     9     3    10   ar
