@<TRIPOS>MOLECULE
3rno_NAP_A_1.pdb
 40 43 0 0 0
SMALL
GASTEIGER

@<TRIPOS>ATOM
      1  PA        16.2730   18.8310   30.8850 P.3   265  NAP265      0.2189
      2  O1A       15.0730   18.2350   30.2590 O.2   265  NAP265     -0.5170
      3  O2A       16.0260   19.5510   32.1470 O.3   265  NAP265     -0.4371
      4  O5B       17.3700   17.6620   31.0970 O.3   265  NAP265     -0.3112
      5  C5B       18.6160   17.5780   30.4160 C.3   265  NAP265      0.1813
      6  C4B       19.7200   17.1510   31.3830 C.3   265  NAP265      0.1820
      7  O4B       19.1770   16.0900   32.1400 O.3   265  NAP265     -0.3136
      8  C3B       21.0200   16.5900   30.7810 C.3   265  NAP265      0.2157
      9  O3B       22.0370   17.5410   30.5500 O.3   265  NAP265     -0.2175
     10  C2B       21.4240   15.5450   31.8150 C.3   265  NAP265      0.2314
     11  O2B       22.0370   16.1100   32.9840 O.3   265  NAP265     -0.2630
     12  C1B       20.0640   14.9740   32.2080 C.3   265  NAP265      0.3158
     13  N9A       19.5670   13.8080   31.3950 N.pl3 265  NAP265     -0.1439
     14  C8A       19.0890   13.8010   30.0910 C.3   265  NAP265      0.3377
     15  N7A       18.7140   12.5300   29.7870 N.2   265  NAP265     -0.2095
     16  C5A       18.9350   11.7130   30.8610 C.2   265  NAP265      0.2526
     17  C6A       18.7420   10.3360   31.0980 C.2   265  NAP265      0.4393
     18  N6A       18.2420    9.5500   30.1440 N.pl3 265  NAP265      0.2180
     19  N1A       19.0740    9.7810   32.3340 N.2   265  NAP265      0.0021
     20  C2A       19.5900   10.5780   33.3470 C.3   265  NAP265      0.5254
     21  N3A       19.7820   11.9340   33.1110 N.2   265  NAP265     -0.0055
     22  C4A       19.4660   12.5030   31.8900 C.2   265  NAP265      0.3518
     23  O3        16.8580   19.8450   29.7750 O.3   265  NAP265     -0.2703
     24  PN        17.5790   21.3050   29.7870 P.3   265  NAP265      0.2189
     25  O1N       18.0770   21.5510   31.1670 O.3   265  NAP265     -0.4371
     26  O2N       18.5560   21.3490   28.6800 O.2   265  NAP265     -0.5170
     27  O5D       16.3860   22.3290   29.3710 O.3   265  NAP265     -0.3112
     28  C5D       15.1800   21.9790   28.7060 C.3   265  NAP265      0.1813
     29  C4D       13.9410   22.3600   29.5500 C.3   265  NAP265      0.1797
     30  O4D       14.0060   23.6680   30.1360 O.3   265  NAP265     -0.3336
     31  C3D       12.6530   22.3540   28.7240 C.3   265  NAP265      0.2156
     32  O3D       11.7670   21.3540   29.1650 O.3   265  NAP265     -0.2176
     33  C2D       12.0790   23.7580   28.8910 C.3   265  NAP265      0.2298
     34  O2D       10.6760   23.7750   28.9890 O.3   265  NAP265     -0.2160
     35  C1D       12.7170   24.2500   30.1750 C.3   265  NAP265      0.2397
     36  N1N       12.7290   25.7250   30.2570 N.3   265  NAP265     -0.0972
     37  P2B       22.9590   15.3170   34.0930 P.3   265  NAP265      0.5328
     38  O1X       22.1980   14.1510   34.7130 O.3   265  NAP265     -0.1145
     39  O2X       23.3920   16.1970   35.2620 O.3   265  NAP265     -0.1145
     40  O3X       24.1730   14.8060   33.3310 O.2   265  NAP265     -0.2224
@<TRIPOS>BOND
     1    26    24    2
     2    28    27    1
     3    28    29    1
     4    31    33    1
     5    31    32    1
     6    31    29    1
     7    33    34    1
     8    33    35    1
     9    27    24    1
    10    29    30    1
    11    23    24    1
    12    23     1    1
    13    24    25    1
    14    15    14    1
    15    15    16    2
    16    14    13    1
    17    30    35    1
    18    18    17    1
    19    35    36    1
    20     2     1    2
    21     5     4    1
    22     5     6    1
    23     9     8    1
    24     8     6    1
    25     8    10    1
    26    16    17    1
    27    16    22    1
    28     1     4    1
    29     1     3    1
    30    17    19    2
    31     6     7    1
    32    13    22    1
    33    13    12    1
    34    10    12    1
    35    10    11    1
    36    22    21    2
    37     7    12    1
    38    19    20    1
    39    11    37    1
    40    21    20    1
    41    40    37    2
    42    37    38    1
    43    37    39    1
