@<TRIPOS>MOLECULE
3ro0_TPT_A_1.pdb
 19 23 0 0 0
SMALL
GASTEIGER

@<TRIPOS>ATOM
      1 PT1        25.1930   -4.6850   23.7280 Pt    480  TPT480      0.0000
      2  N1        25.7830   -5.8210   25.3020 N.pl3 480  TPT480      0.0000
      3  N2        27.0530   -5.1900   23.1760 N.pl3 480  TPT480      0.0000
      4  N3        25.3670   -3.7160   21.8940 N.pl3 480  TPT480      0.0000
      5  C1        24.9930   -6.0700   26.3810 C.3   480  TPT480      0.0000
      6  C2        25.4320   -6.8040   27.4450 C.2   480  TPT480      0.0000
      7  C3        26.7370   -7.3000   27.3810 C.2   480  TPT480      0.0000
      8  C4        27.5120   -7.0540   26.2820 C.2   480  TPT480      0.0000
      9  C5        27.0660   -6.3040   25.2030 C.2   480  TPT480      0.0000
     10  C6        27.8220   -5.9550   23.9480 C.3   480  TPT480      0.0000
     11  C7        29.1130   -6.3160   23.5760 C.2   480  TPT480      0.0000
     12  C8        29.6260   -5.8620   22.3440 C.2   480  TPT480      0.0000
     13  C9        28.8710   -5.0570   21.5110 C.2   480  TPT480      0.0000
     14  C10       27.5650   -4.7200   21.9430 C.2   480  TPT480      0.0000
     15  C11       26.5890   -3.8760   21.2370 C.3   480  TPT480      0.0000
     16  C12       26.8190   -3.2450   19.9860 C.2   480  TPT480      0.0000
     17  C13       25.8140   -2.4560   19.4150 C.2   480  TPT480      0.0000
     18  C14       24.5400   -2.2760   20.0800 C.2   480  TPT480      0.0000
     19  C15       24.3950   -2.9530   21.3330 C.2   480  TPT480      0.0000
@<TRIPOS>BOND
     1    17    16    2
     2    17    18    1
     3    16    15    1
     4    18    19    2
     5    15     4    1
     6    15    14    1
     7    19     4    1
     8    13    14    2
     9    13    12    1
    10     4     1    1
    11    14     3    1
    12    12    11    2
    13     3     1    1
    14     3    10    1
    15    11    10    1
    16     1     2    1
    17    10     9    1
    18     9     2    1
    19     9     8    2
    20     2     5    1
    21     8     7    1
    22     5     6    1
    23     7     6    2
