@<TRIPOS>MOLECULE
3ro4_LJ9_B_1.pdb
 25 29 0 0 0
SMALL
GASTEIGER

@<TRIPOS>ATOM
      1  C01       -3.0550   -1.1770   14.9330 C.3   301  LJ9301      0.0068
      2  C02       -2.5950   -0.2820   16.0660 C.3   301  LJ9301      0.0477
      3  C03       -3.2710   -0.6370   17.3350 C.ar  301  LJ9301      0.0803
      4  N04       -3.2020   -1.8140   17.9670 N.ar  301  LJ9301     -0.1695
      5  N05       -4.0530   -1.7250   19.0450 N.ar  301  LJ9301     -0.2299
      6  C06       -4.7530   -0.5080   19.0580 C.ar  301  LJ9301      0.0852
      7  C07       -5.7230    0.0290   19.9160 C.ar  301  LJ9301      0.0337
      8  C08       -6.1670    1.3200   19.6600 C.ar  301  LJ9301      0.0494
      9  C09       -5.6530    2.0670   18.5530 C.ar  301  LJ9301      0.0147
     10  C10       -4.6990    1.5270   17.7220 C.ar  301  LJ9301      0.0040
     11  C11       -4.2370    0.2460   17.9650 C.ar  301  LJ9301      0.0330
     12  N12       -7.2030    1.8440   20.5260 N.pl3 301  LJ9301     -0.3074
     13  C13       -8.0690    3.0280   20.2160 C.3   301  LJ9301      0.0923
     14  C14       -9.2820    2.8920   21.1650 C.3   301  LJ9301      0.0402
     15  C15       -9.1870    3.7230   22.4590 C.3   301  LJ9301      0.0905
     16  N16       -9.0090    2.7510   23.5660 N.3   301  LJ9301     -0.2179
     17  C17       -9.6220    1.4770   23.1320 C.3   301  LJ9301      0.0905
     18  C18       -9.3480    1.4180   21.6220 C.3   301  LJ9301      0.0402
     19  C19       -7.9730    0.8120   21.2950 C.3   301  LJ9301      0.0923
     20  C20       -4.3130   -2.8350   19.9380 C.ar  301  LJ9301      0.0828
     21  C21       -4.5320   -4.0940   19.3900 C.ar  301  LJ9301      0.0191
     22  C22       -4.8650   -5.1560   20.2310 C.ar  301  LJ9301      0.0015
     23  C23       -4.9810   -4.9660   21.6000 C.ar  301  LJ9301      0.0001
     24  C24       -4.7710   -3.7030   22.1340 C.ar  301  LJ9301      0.0015
     25  C25       -4.4420   -2.6290   21.3100 C.ar  301  LJ9301      0.0191
@<TRIPOS>BOND
     1     1     2    1
     2     2     3    1
     3     3    11   ar
     4     3     4   ar
     5    10    11   ar
     6    10     9   ar
     7    11     6   ar
     8     4     5   ar
     9     9     8   ar
    10     5     6   ar
    11     5    20    1
    12     6     7   ar
    13    21    20   ar
    14    21    22   ar
    15     8     7   ar
    16     8    12    1
    17    20    25   ar
    18    13    12    1
    19    13    14    1
    20    22    23   ar
    21    12    19    1
    22    14    18    1
    23    14    15    1
    24    19    18    1
    25    25    24   ar
    26    23    24   ar
    27    18    17    1
    28    15    16    1
    29    17    16    1
