@<TRIPOS>MOLECULE
3ro5_LGH_B_1.pdb
 32 35 0 0 0
SMALL
GASTEIGER

@<TRIPOS>ATOM
      1  C1        25.9340  -33.6450   21.1860 C.ar    1  LGH1        0.0003
      2  C2        26.9690  -34.3690   20.5960 C.ar    1  LGH1        0.0031
      3  C3        24.7970  -34.3020   21.6490 C.ar    1  LGH1        0.0046
      4  C4        26.3780  -35.5040   15.6230 C.ar    1  LGH1        0.0171
      5  C5        27.2060  -34.8390   14.7190 C.ar    1  LGH1        0.0254
      6  C6        26.8670  -35.7530   20.4670 C.ar    1  LGH1        0.0370
      7  C7        25.4810  -33.1850   14.3770 C.ar    1  LGH1        0.0367
      8  C8        24.6900  -35.6870   21.5260 C.ar    1  LGH1        0.0550
      9  C9        22.7370  -37.3330   21.3710 C.ar    1  LGH1        0.1073
     10  C10       25.0990  -35.0160   15.9070 C.ar    1  LGH1        0.0587
     11  C11       26.7490  -33.6760   14.1010 C.ar    1  LGH1        0.1438
     12  C12       25.7280  -36.4170   20.9330 C.ar    1  LGH1        0.1402
     13  C13       24.6570  -33.8480   15.2770 C.ar    1  LGH1        0.0726
     14  C14       23.4970  -36.3360   22.0110 C.ar    1  LGH1        0.1299
     15  C15       21.7250  -37.5930   22.2550 C.ar    1  LGH1        0.1591
     16  C16       22.9220  -38.0040   20.0800 C.2     1  LGH1        0.2534
     17  C17       24.0650  -35.0880   18.1310 C.3     1  LGH1        0.1124
     18  C18       24.4260  -37.1920   16.8630 C.3     1  LGH1        0.1124
     19  C19       22.9810  -35.7900   18.9540 C.3     1  LGH1        0.1151
     20  C20       23.2290  -37.8170   17.5750 C.3     1  LGH1        0.1151
     21  C21       20.5790  -38.5110   22.2470 C.3     1  LGH1        0.0755
     22  C22       26.9030  -38.4690   20.6190 C.3     1  LGH1        0.2525
     23  N23       22.9810  -35.9960   23.1960 N.ar    1  LGH1       -0.0771
     24  N24       24.3200  -35.7290   16.8300 N.pl3   1  LGH1       -0.3034
     25  N25       23.0500  -37.2510   18.9130 N.am    1  LGH1       -0.2725
     26  N26       27.5490  -32.9680   13.1770 N.pl3   1  LGH1        0.0577
     27  O27       28.7010  -33.3910   12.9070 O.2     1  LGH1       -0.1261
     28  O28       22.9530  -39.2290   20.1270 O.2     1  LGH1       -0.2698
     29  O29       27.0640  -31.9330   12.6550 O.2     1  LGH1       -0.1261
     30  O30       21.8530  -36.7990   23.3490 O.2     1  LGH1       -0.3576
     31  O31       25.6660  -37.7790   20.7920 O.3     1  LGH1       -0.4714
     32 CL32       23.1040  -33.1460   15.5310 Cl      1  LGH1       -0.0809
@<TRIPOS>BOND
     1    29    26    2
     2    27    26    2
     3    26    11    1
     4    11     7   ar
     5    11     5   ar
     6     7    13   ar
     7     5     4   ar
     8    13    32    1
     9    13    10   ar
    10     4    10   ar
    11    10    24    1
    12    24    18    1
    13    24    17    1
    14    18    20    1
    15    20    25    1
    16    17    19    1
    17    25    19    1
    18    25    16   am
    19    16    28    2
    20    16     9    1
    21     6     2   ar
    22     6    12   ar
    23     2     1   ar
    24    22    31    1
    25    31    12    1
    26    12     8   ar
    27     1     3   ar
    28     9    14   ar
    29     9    15   ar
    30     8     3   ar
    31     8    14    1
    32    14    23   ar
    33    21    15    1
    34    15    30   ar
    35    23    30   ar
