@<TRIPOS>MOLECULE
3ro9_06U_A_1.pdb
 28 30 0 0 0
SMALL
GASTEIGER

@<TRIPOS>ATOM
      1  N1        16.2130  -10.1590   -2.3070 N.2     1  06U1       -0.3105
      2  C2        16.3750  -10.7610   -3.5550 C.1     1  06U1        0.2419
      3  N3        15.8280  -10.1590   -4.6940 N.2     1  06U1       -0.3332
      4  C4        15.1150   -8.9490   -4.5960 C.2     1  06U1        0.1203
      5  C5        14.9640   -8.3620   -3.3400 C.3     1  06U1        0.1831
      6  C6        15.5070   -8.9540   -2.2020 C.2     1  06U1        0.2282
      7  CAA        9.0030   -5.5100   -7.8050 C.ar    1  06U1        0.0207
      8  NAH       17.0390  -11.9040   -3.6600 N.pl3   1  06U1       -0.0232
      9  CAI       14.5570   -8.3350   -5.8880 C.3     1  06U1        0.0569
     10  NAJ       15.3550   -8.3800   -1.0100 N.pl3   1  06U1       -0.0955
     11  CAK       14.2410   -7.1330   -3.2290 C.1     1  06U1       -0.0761
     12  CAL       13.6200   -6.0840   -3.1360 C.1     1  06U1       -0.0868
     13  CAM       12.8940   -4.8160   -3.0160 C.3     1  06U1        0.0864
     14  CAN       11.8720   -4.9060   -1.8830 C.3     1  06U1        0.0187
     15  CAO       12.2130   -4.4720   -4.3470 C.ar    1  06U1       -0.0074
     16  CAP       12.7210   -3.4250   -5.1140 C.ar    1  06U1        0.0336
     17  CAQ       12.1320   -3.0880   -6.3360 C.ar    1  06U1        0.1384
     18  CAR       11.0210   -3.8060   -6.7820 C.ar    1  06U1        0.0369
     19  CAS       10.5070   -4.8570   -6.0190 C.ar    1  06U1        0.0028
     20  CAT       11.1120   -5.1970   -4.8060 C.ar    1  06U1       -0.0031
     21  CAU        9.3930   -5.5680   -6.4680 C.ar    1  06U1        0.0032
     22  CAV        8.6470   -6.3460   -5.5850 C.ar    1  06U1        0.0207
     23  CAW        7.5450   -7.0480   -6.0690 C.ar    1  06U1        0.0989
     24  NAX        7.2020   -6.9770   -7.3530 N.ar    1  06U1       -0.2423
     25  CAY        7.8910   -6.2400   -8.2200 C.ar    1  06U1        0.0989
     26  CAZ       13.6530   -9.3110   -6.6310 C.3     1  06U1        0.0076
     27  OBA       12.6250   -2.0540   -7.0920 O.3     1  06U1       -0.4714
     28  CBB       13.7840   -1.4330   -6.4880 C.3     1  06U1        0.2525
@<TRIPOS>BOND
     1    25     7   ar
     2    25    24   ar
     3     7    21   ar
     4    24    23   ar
     5    27    28    1
     6    27    17    1
     7    18    17   ar
     8    18    19   ar
     9    26     9    1
    10    21    19    1
    11    21    22   ar
    12    17    16   ar
    13    23    22   ar
    14    19    20   ar
    15     9     4    1
    16    16    15   ar
    17    20    15   ar
    18     3     4    2
    19     3     2    2
    20     4     5    1
    21    15    13    1
    22     8     2    1
    23     2     1    2
    24     5    11    1
    25     5     6    1
    26    11    12    3
    27    12    13    1
    28    13    14    1
    29     1     6    2
    30     6    10    1
