@<TRIPOS>MOLECULE
3roa_06V_A_1.pdb
 28 30 0 0 0
SMALL
GASTEIGER

@<TRIPOS>ATOM
      1  N1        16.3450  -10.1080   -2.1500 N.2     1  06V1       -0.3105
      2  C2        16.5210  -10.7580   -3.3720 C.1     1  06V1        0.2419
      3  N3        15.9680  -10.2030   -4.5370 N.2     1  06V1       -0.3332
      4  C4        15.2340   -9.0080   -4.4910 C.2     1  06V1        0.1203
      5  C5        15.0700   -8.3720   -3.2590 C.3     1  06V1        0.1831
      6  C6        15.6220   -8.9140   -2.0850 C.2     1  06V1        0.2282
      7  CAA        8.2740   -6.7680   -5.4820 C.3     1  06V1        0.1231
      8  NAH       17.2150  -11.8940   -3.4440 N.pl3   1  06V1       -0.0232
      9  CAI       14.6640   -8.4510   -5.8090 C.3     1  06V1        0.0569
     10  NAJ       15.4760   -8.3200   -0.9010 N.pl3   1  06V1       -0.0955
     11  CAK       14.3110   -7.1690   -3.2570 C.1     1  06V1       -0.0761
     12  CAL       13.6570   -6.1440   -3.2990 C.1     1  06V1       -0.0868
     13  CAM       12.8860   -4.8900   -3.3330 C.3     1  06V1        0.0864
     14  CAN       12.0310   -4.7540   -2.0720 C.3     1  06V1        0.0187
     15  CAO       12.0520   -4.7220   -4.6290 C.ar    1  06V1       -0.0062
     16  CAP       12.5300   -3.7990   -5.5640 C.ar    1  06V1        0.0337
     17  CAQ       11.8440   -3.5610   -6.7550 C.ar    1  06V1        0.1397
     18  CAR       10.6670   -4.2640   -7.0120 C.ar    1  06V1        0.0514
     19  CAS       10.1610   -5.1860   -6.0950 C.ar    1  06V1        0.0507
     20  CAT       10.8630   -5.4220   -4.8970 C.ar    1  06V1        0.0114
     21  NAU        8.9490   -5.8620   -6.4350 N.pl3   1  06V1       -0.3027
     22  CAV        8.3490   -5.6410   -7.7950 C.3     1  06V1        0.1231
     23  CAW        7.5970   -6.8720   -8.3450 C.3     1  06V1        0.1636
     24  OAX        6.8300   -7.6470   -7.3600 O.3     1  06V1       -0.3501
     25  CAY        6.8690   -7.1300   -5.9840 C.3     1  06V1        0.1636
     26  CAZ       13.9870   -9.5530   -6.6070 C.3     1  06V1        0.0076
     27  OBA       12.3160   -2.6790   -7.6890 O.3     1  06V1       -0.4714
     28  CBB       12.4890   -1.3430   -7.1980 C.3     1  06V1        0.2525
@<TRIPOS>BOND
     1    23    22    1
     2    23    24    1
     3    22    21    1
     4    27    28    1
     5    27    17    1
     6    24    25    1
     7    18    17   ar
     8    18    19   ar
     9    17    16   ar
    10    26     9    1
    11    21    19    1
    12    21     7    1
    13    19    20   ar
    14    25     7    1
    15     9     4    1
    16    16    15   ar
    17    20    15   ar
    18    15    13    1
    19     3     4    2
    20     3     2    2
    21     4     5    1
    22     8     2    1
    23     2     1    2
    24    13    12    1
    25    13    14    1
    26    12    11    3
    27     5    11    1
    28     5     6    1
    29     1     6    2
    30     6    10    1
