@<TRIPOS>MOLECULE
3roc_29A_A_1.pdb
 31 33 0 0 0
SMALL
GASTEIGER

@<TRIPOS>ATOM
      1  C1        36.8870   36.7870   18.1310 C.ar  401  29A401      0.0488
      2  C2        38.2200   37.1920   17.9860 C.ar  401  29A401      0.1418
      3  C3        38.7510   37.4070   16.7260 C.ar  401  29A401      0.0590
      4  C4        37.9560   37.2110   15.6040 C.ar  401  29A401      0.1424
      5  C5        36.6310   36.7870   15.7400 C.ar  401  29A401      0.0296
      6  C6        36.1010   36.5780   17.0020 C.ar  401  29A401      0.0039
      7  C7        36.2810   36.6050   19.5050 C.3   401  29A401      0.2356
      8  O8        35.7810   37.9510   19.9070 O.2   401  29A401     -0.4572
      9  C9        35.4370   38.2350   21.1970 C.2   401  29A401      0.2220
     10  C10       35.1970   39.5500   21.5660 C.3   401  29A401      0.2310
     11  C11       34.8120   39.8480   23.0070 C.2   401  29A401      0.2547
     12  N12       34.7280   38.7530   23.8450 N.am  401  29A401     -0.2360
     13  C13       35.0240   37.3930   23.2710 C.3   401  29A401      0.2290
     14  N14       35.3470   37.2420   22.0290 N.2   401  29A401     -0.2171
     15  C15       34.3650   38.8340   25.2370 C.ar  401  29A401      0.0518
     16  C16       33.1060   38.3730   25.7090 C.ar  401  29A401     -0.0081
     17  C17       32.8080   38.4620   27.0650 C.ar  401  29A401     -0.0029
     18  C18       33.7310   39.0160   27.9400 C.ar  401  29A401      0.0043
     19  C19       34.9860   39.4880   27.4900 C.ar  401  29A401      0.0563
     20  C20       35.2770   39.3840   26.1350 C.ar  401  29A401      0.0192
     21  F21       38.9780   37.3920   19.0810 F     401  29A401     -0.2043
     22  F22       38.4470   37.4370   14.3820 F     401  29A401     -0.2041
     23 CL23       35.3180   40.8440   20.4400 Cl    401  29A401     -0.0951
     24  O24       34.5910   41.0350   23.3560 O.2   401  29A401     -0.2726
     25  C25       31.9470   37.9380   24.7980 C.3   401  29A401      0.0323
     26  C26       35.9450   40.0840   28.4960 C.2   401  29A401      0.2649
     27  O27       36.8810   40.7910   28.1070 O.2   401  29A401     -0.2684
     28  N28       35.7400   39.8540   29.8120 N.am  401  29A401     -0.1989
     29  C29       36.6350   39.0280   30.6490 C.3   401  29A401      0.1509
     30  C30       36.0680   37.6100   30.8450 C.3   401  29A401      0.2054
     31  O31       34.6420   37.6370   30.8830 O.3   401  29A401     -0.2184
@<TRIPOS>BOND
     1    22     4    1
     2     4     5   ar
     3     4     3   ar
     4     5     6   ar
     5     3     2   ar
     6     6     1   ar
     7     2     1   ar
     8     2    21    1
     9     1     7    1
    10     7     8    1
    11     8     9    1
    12    23    10    1
    13     9    10    1
    14     9    14    2
    15    10    11    1
    16    14    13    1
    17    11    24    2
    18    11    12   am
    19    13    12    1
    20    12    15    1
    21    25    16    1
    22    15    16   ar
    23    15    20   ar
    24    16    17   ar
    25    20    19   ar
    26    17    18   ar
    27    19    18   ar
    28    19    26    1
    29    27    26    2
    30    26    28   am
    31    28    29    1
    32    29    30    1
    33    30    31    1
