@<TRIPOS>MOLECULE
3roc_29B_A_1.pdb
 18 20 0 0 0
SMALL
GASTEIGER

@<TRIPOS>ATOM
      1  C1         7.5740   21.8430   15.3390 C.ar  402  29B402      0.0293
      2  C2         6.6270   20.8430   15.0750 C.ar  402  29B402      0.1401
      3  C3         6.0790   20.7150   13.8100 C.ar  402  29B402      0.0293
      4  C4         6.4570   21.5780   12.7850 C.ar  402  29B402     -0.0012
      5  C5         7.4150   22.6070   13.0200 C.ar  402  29B402     -0.0110
      6  C6         7.9590   22.7090   14.3220 C.ar  402  29B402     -0.0012
      7  C7         7.7830   23.5030   11.9920 C.3   402  29B402      0.1073
      8  C8         8.0970   23.3070   10.6010 C.2   402  29B402      0.0900
      9  N9         8.2710   24.5900   10.0510 N.2   402  29B402     -0.1519
     10  N10        8.1040   25.5270   11.0150 N.2   402  29B402     -0.1507
     11  C11        7.8180   24.9050   12.1870 C.2   402  29B402      0.1057
     12  C12        8.2830   22.1240    9.7980 C.ar  402  29B402      0.0191
     13  C13        8.0080   22.1690    8.4060 C.ar  402  29B402      0.0219
     14  C14        8.1940   21.0180    7.6050 C.ar  402  29B402      0.0989
     15  N15        8.6330   19.8770    8.1400 N.ar  402  29B402     -0.2423
     16  C16        8.9090   19.7770    9.4390 C.ar  402  29B402      0.0989
     17  C17        8.7500   20.8810   10.3240 C.ar  402  29B402      0.0219
     18  F18        6.2470   20.0030   16.0640 F     402  29B402     -0.2042
@<TRIPOS>BOND
     1    14    15   ar
     2    14    13   ar
     3    15    16   ar
     4    13    12   ar
     5    16    17   ar
     6    12    17   ar
     7    12     8    1
     8     9     8    2
     9     9    10    1
    10     8     7    1
    11    10    11    2
    12     7    11    1
    13     7     5    1
    14     4     5   ar
    15     4     3   ar
    16     5     6   ar
    17     3     2   ar
    18     6     1   ar
    19     2     1   ar
    20     2    18    1
