@<TRIPOS>MOLECULE
3rod_SAH_A_1.pdb
 26 28 0 0 0
SMALL
GASTEIGER

@<TRIPOS>ATOM
      1  N        -25.1740  -26.4760    0.0950 N.3   301  SAH301     -0.1208
      2  CA       -26.3970  -25.8450   -0.4910 C.3   301  SAH301      0.1952
      3  CB       -27.6390  -26.1020    0.3740 C.3   301  SAH301      0.0422
      4  CG       -27.5010  -25.3190    1.6830 C.3   301  SAH301      0.0597
      5  SD       -28.9780  -25.4500    2.7670 S.3   301  SAH301     -0.1375
      6  C        -26.2080  -24.3190   -0.7230 C.2   301  SAH301      0.3819
      7  O        -25.1000  -23.7740   -0.8090 O.co2 301  SAH301     -0.2441
      8  OXT      -27.1730  -23.5810   -0.8640 O.co2 301  SAH301     -0.2441
      9  C5'      -28.5210  -26.6980    4.0400 C.3   301  SAH301      0.0899
     10  C4'      -28.4920  -28.1550    3.5170 C.3   301  SAH301      0.1630
     11  O4'      -28.2930  -28.9160    4.7310 O.3   301  SAH301     -0.3153
     12  C3'      -29.7620  -28.8160    2.9610 C.3   301  SAH301      0.2168
     13  O3'      -29.5020  -29.4200    1.6980 O.3   301  SAH301     -0.2175
     14  C2'      -30.0870  -29.9600    3.9520 C.3   301  SAH301      0.2569
     15  O2'      -30.5530  -31.0920    3.1780 O.3   301  SAH301     -0.2130
     16  C1'      -28.6970  -30.2580    4.3820 C.3   301  SAH301      0.3185
     17  N9       -28.5250  -31.0090    5.6150 N.pl3 301  SAH301     -0.1439
     18  C8       -29.1760  -30.7820    6.7890 C.3   301  SAH301      0.3377
     19  N7       -28.6960  -31.6530    7.6990 N.2   301  SAH301     -0.2095
     20  C5       -27.7480  -32.4280    7.1010 C.2   301  SAH301      0.2526
     21  C6       -26.9120  -33.4650    7.5070 C.2   301  SAH301      0.4393
     22  N6       -26.9420  -33.9220    8.7640 N.pl3 301  SAH301      0.2180
     23  N1       -26.0540  -33.9980    6.6390 N.2   301  SAH301      0.0021
     24  C2       -25.9930  -33.5740    5.4080 C.3   301  SAH301      0.5254
     25  N3       -26.7570  -32.5790    5.0150 N.2   301  SAH301     -0.0055
     26  C4       -27.6330  -31.9910    5.7980 C.2   301  SAH301      0.3518
@<TRIPOS>BOND
     1     8     6   ar
     2     7     6   ar
     3     6     2    1
     4     2     1    1
     5     2     3    1
     6     3     4    1
     7     4     5    1
     8    13    12    1
     9     5     9    1
    10    12    10    1
    11    12    14    1
    12    15    14    1
    13    10     9    1
    14    10    11    1
    15    14    16    1
    16    16    11    1
    17    16    17    1
    18    25    24    1
    19    25    26    2
    20    24    23    1
    21    17    26    1
    22    17    18    1
    23    26    20    1
    24    23    21    2
    25    18    19    1
    26    20    21    1
    27    20    19    2
    28    21    22    1
