@<TRIPOS>MOLECULE
3roe_THM_A_1.pdb
 17 18 0 0 0
SMALL
GASTEIGER

@<TRIPOS>ATOM
      1  O5'       -1.0370    6.1320   95.8870 O.3   265  THM265     -0.2176
      2  C5'        0.3710    6.2100   96.0750 C.3   265  THM265      0.2141
      3  C4'        0.7970    7.6700   96.3530 C.3   265  THM265      0.1802
      4  O4'        1.6320    7.8250   97.4990 O.3   265  THM265     -0.3338
      5  C3'        1.6480    8.2440   95.2480 C.3   265  THM265      0.1858
      6  O3'        1.3420    9.6270   95.1640 O.3   265  THM265     -0.2203
      7  C2'        3.0910    8.0190   95.6580 C.3   265  THM265      0.0874
      8  C1'        3.0320    7.9050   97.1610 C.3   265  THM265      0.2090
      9  N1         3.7820    6.7560   97.7420 N.am  265  THM265     -0.1794
     10  C2         3.5650    5.3970   97.3500 C.1   265  THM265      0.2844
     11  O2         2.7530    5.0790   96.4730 O.2   265  THM265     -0.1918
     12  N3         4.2390    4.3820   97.9000 N.2   265  THM265     -0.2455
     13  C4         5.1380    4.5900   98.8710 C.1   265  THM265      0.2134
     14  O4         5.7430    3.6110   99.3630 O.2   265  THM265     -0.2088
     15  C5         5.3890    5.9850   99.3280 C.2   265  THM265      0.0891
     16  C5M        6.4040    6.2660  100.4110 C.3   265  THM265      0.0462
     17  C6         4.6770    7.0160   98.7200 C.2   265  THM265      0.0877
@<TRIPOS>BOND
     1     6     5    1
     2     5     7    1
     3     5     3    1
     4     7     8    1
     5     1     2    1
     6     2     3    1
     7     3     4    1
     8    11    10    2
     9     8     4    1
    10     8     9    1
    11    10     9   am
    12    10    12    2
    13     9    17    1
    14    12    13    2
    15    17    15    2
    16    13    15    1
    17    13    14    2
    18    15    16    1
