@<TRIPOS>MOLECULE
3rog_T3P_A_1.pdb
 21 22 0 0 0
SMALL
GASTEIGER

@<TRIPOS>ATOM
      1  P         16.2220   25.4020   23.3540 P.3   265  T3P265      0.5326
      2  OP1       15.5170   24.0550   23.3270 O.3   265  T3P265     -0.1145
      3  OP2       16.7420   25.8390   21.9940 O.2   265  T3P265     -0.2224
      4  OP3       15.5070   26.5390   24.0630 O.3   265  T3P265     -0.1145
      5  O5'       17.8450   25.7790   28.6460 O.3   265  T3P265     -0.2176
      6  C5'       18.9700   25.5840   27.7660 C.3   265  T3P265      0.2140
      7  C4'       18.6720   24.8840   26.4280 C.3   265  T3P265      0.1775
      8  O4'       18.4970   23.4790   26.5980 O.3   265  T3P265     -0.3339
      9  C3'       17.4010   25.3610   25.7540 C.3   265  T3P265      0.1601
     10  O3'       17.4840   25.0970   24.3360 O.3   265  T3P265     -0.2700
     11  C2'       16.3450   24.4870   26.3720 C.3   265  T3P265      0.0847
     12  C1'       17.0990   23.1880   26.5270 C.3   265  T3P265      0.2089
     13  N1        16.6500   22.4590   27.7210 N.am  265  T3P265     -0.1794
     14  C2        15.8500   21.3270   27.4880 C.1   265  T3P265      0.2844
     15  O2        15.5610   21.0510   26.3160 O.2   265  T3P265     -0.1918
     16  N3        15.3940   20.5770   28.5070 N.2   265  T3P265     -0.2455
     17  C4        15.6700   20.8730   29.7990 C.1   265  T3P265      0.2134
     18  O4        15.2160   20.1200   30.7110 O.2   265  T3P265     -0.2088
     19  C5        16.5310   22.0690   30.1010 C.2   265  T3P265      0.0891
     20  C5M       16.8950   22.4800   31.5270 C.3   265  T3P265      0.0462
     21  C6        16.9820   22.8170   28.9880 C.2   265  T3P265      0.0877
@<TRIPOS>BOND
     1     3     1    2
     2     2     1    1
     3     1     4    1
     4     1    10    1
     5    10     9    1
     6     9    11    1
     7     9     7    1
     8    15    14    2
     9    11    12    1
    10     7     8    1
    11     7     6    1
    12    12     8    1
    13    12    13    1
    14    14    13   am
    15    14    16    2
    16    13    21    1
    17     6     5    1
    18    16    17    2
    19    21    19    2
    20    17    19    1
    21    17    18    2
    22    19    20    1
