@<TRIPOS>MOLECULE
3roj_AMP_A_1.pdb
 23 25 0 0 0
SMALL
GASTEIGER

@<TRIPOS>ATOM
      1  P         61.0920  -16.2050    8.7290 P.3   348  AMP348      0.5327
      2  O1P       60.2180  -15.0100    8.4390 O.2   348  AMP348     -0.2224
      3  O2P       62.1300  -16.0800    9.8140 O.3   348  AMP348     -0.1145
      4  O3P       60.1870  -17.3830    9.0190 O.3   348  AMP348     -0.1145
      5  O5'       61.7990  -16.6830    7.3830 O.3   348  AMP348     -0.2675
      6  C5'       61.0610  -17.3120    6.3460 C.3   348  AMP348      0.1860
      7  C4'       61.9440  -17.6450    5.1670 C.3   348  AMP348      0.1823
      8  O4'       62.6500  -16.4510    4.7270 O.3   348  AMP348     -0.3135
      9  C3'       63.0570  -18.6470    5.4300 C.3   348  AMP348      0.2184
     10  O3'       62.6090  -19.9910    5.4180 O.3   348  AMP348     -0.2174
     11  C2'       64.0560  -18.3170    4.3290 C.3   348  AMP348      0.2570
     12  O2'       63.6160  -18.8240    3.0770 O.3   348  AMP348     -0.2130
     13  C1'       63.9530  -16.7930    4.2960 C.3   348  AMP348      0.3186
     14  N9        64.9210  -16.1720    5.2150 N.pl3 348  AMP348     -0.1439
     15  C8        64.6530  -15.7560    6.4660 C.3   348  AMP348      0.3377
     16  N7        65.7660  -15.2540    7.0580 N.2   348  AMP348     -0.2095
     17  C5        66.7750  -15.3550    6.1760 C.2   348  AMP348      0.2526
     18  C6        68.2150  -15.0140    6.1580 C.2   348  AMP348      0.4393
     19  N6        68.8090  -14.4490    7.2330 N.pl3 348  AMP348      0.2180
     20  N1        68.9150  -15.2860    5.0360 N.2   348  AMP348      0.0021
     21  C2        68.3310  -15.8470    3.9620 C.3   348  AMP348      0.5254
     22  N3        67.0310  -16.1820    3.9070 N.2   348  AMP348     -0.0055
     23  C4        66.2130  -15.9650    4.9630 C.2   348  AMP348      0.3518
@<TRIPOS>BOND
     1    12    11    1
     2    22    21    1
     3    22    23    2
     4    21    20    1
     5    13    11    1
     6    13     8    1
     7    13    14    1
     8    11     9    1
     9     8     7    1
    10    23    14    1
    11    23    17    1
    12    20    18    2
    13     7     9    1
    14     7     6    1
    15    14    15    1
    16    10     9    1
    17    18    17    1
    18    18    19    1
    19    17    16    2
    20     6     5    1
    21    15    16    1
    22     5     1    1
    23     2     1    2
    24     1     4    1
    25     1     3    1
