@<TRIPOS>MOLECULE
3rok_27C_A_1.pdb
 17 17 0 0 0
SMALL
GASTEIGER

@<TRIPOS>ATOM
      1  O3        -3.8820   10.2090   55.8700 O.3   301  27C301     -0.3141
      2  PN        -5.2410   10.8740   56.2490 P.3   301  27C301      0.2141
      3  C1C       -3.5210    8.9720   56.4970 C.3   301  27C301      0.1491
      4  C1D       -8.2560    9.2880   51.6090 C.3   301  27C301      0.1801
      5  O1N       -6.1940   10.2380   57.1790 O.3   301  27C301     -0.4373
      6  C2C       -1.9970    8.8760   56.5370 C.3   301  27C301      0.0325
      7  C2D       -9.4720    8.8330   52.4280 C.3   301  27C301      0.2229
      8  F2D       -9.3160    7.5950   53.0120 F     301  27C301     -0.2317
      9  O2N       -5.5150   12.1880   55.4680 O.2   301  27C301     -0.5172
     10  C3C       -1.3790    9.9560   57.4060 C.3   301  27C301      0.0026
     11  C3D       -9.5260    9.8400   53.5470 C.3   301  27C301      0.2162
     12  O3D      -10.3390   10.9180   53.1000 O.3   301  27C301     -0.2174
     13  C4C        0.1560    9.9120   57.3370 C.3   301  27C301      0.0001
     14  C4D       -8.0460   10.2730   53.7270 C.3   301  27C301      0.1782
     15  O4D       -7.2810    9.7540   52.5800 O.3   301  27C301     -0.3480
     16  C5D       -7.3740    9.6680   54.9770 C.3   301  27C301      0.1812
     17  O5D       -5.9500    9.9680   55.1010 O.3   301  27C301     -0.3114
@<TRIPOS>BOND
     1     4     7    1
     2     4    15    1
     3     7     8    1
     4     7    11    1
     5    15    14    1
     6    12    11    1
     7    11    14    1
     8    14    16    1
     9    16    17    1
    10    17     2    1
    11     9     2    2
    12     1     2    1
    13     1     3    1
    14     2     5    1
    15     3     6    1
    16     6    10    1
    17    13    10    1
