@<TRIPOS>MOLECULE
3rom_48Z_A_1.pdb
 13 13 0 0 0
SMALL
GASTEIGER

@<TRIPOS>ATOM
      1  O3         5.3560   -5.4110   -2.6320 O.3   301  48Z301     -0.1307
      2  PN         5.5250   -3.8290   -2.8780 P.3   301  48Z301      0.4295
      3  C1D        3.1320   -2.3670    1.7540 C.3   301  48Z301      0.1801
      4  O1N        4.8420   -3.4510   -4.3310 O.2   301  48Z301     -0.2426
      5  C2D        2.7060   -1.0860    1.0500 C.3   301  48Z301      0.2229
      6  F2D        3.8160   -0.4050    0.5760 F     301  48Z301     -0.2317
      7  S2N        7.3650   -3.3330   -2.8660 S.3   301  48Z301      0.0413
      8  C3D        1.9020   -1.6430   -0.1190 C.3   301  48Z301      0.2162
      9  O3D        0.5300   -1.8810    0.2690 O.3   301  48Z301     -0.2174
     10  C4D        2.5960   -2.9720   -0.4040 C.3   301  48Z301      0.1783
     11  O4D        3.5740   -3.1790    0.6480 O.3   301  48Z301     -0.3480
     12  C5D        3.3060   -2.8560   -1.7830 C.3   301  48Z301      0.1843
     13  O5D        4.7290   -2.9910   -1.7060 O.3   301  48Z301     -0.2822
@<TRIPOS>BOND
     1     4     2    2
     2     2     7    1
     3     2     1    1
     4     2    13    1
     5    12    13    1
     6    12    10    1
     7    10     8    1
     8    10    11    1
     9     8     9    1
    10     8     5    1
    11     6     5    1
    12    11     3    1
    13     5     3    1
