@<TRIPOS>MOLECULE
3rop_50A_A_1.pdb
 13 13 0 0 0
SMALL
GASTEIGER

@<TRIPOS>ATOM
      1  O3        -4.1880   10.2040   55.8590 O.3   301  50A301     -0.1145
      2  PN        -5.6360   10.5580   55.9820 P.3   301  50A301      0.5327
      3  C1D       -8.2760    9.0200   51.5440 C.3   301  50A301      0.1801
      4  O1N       -6.2040   10.4300   57.4010 O.3   301  50A301     -0.1145
      5  C2D       -9.6690    8.8640   52.1170 C.3   301  50A301      0.2229
      6  F2D      -10.5760    9.1310   51.1330 F     301  50A301     -0.2317
      7  O2N       -5.8830   11.9850   55.5030 O.2   301  50A301     -0.2224
      8  C3D       -9.7800    9.8530   53.2800 C.3   301  50A301      0.2162
      9  O3D      -10.4950   11.0320   52.8760 O.3   301  50A301     -0.2174
     10  C4D       -8.3310   10.1940   53.6160 C.3   301  50A301      0.1784
     11  O4D       -7.5050    9.6880   52.5590 O.3   301  50A301     -0.3480
     12  C5D       -7.8980    9.5320   54.9230 C.3   301  50A301      0.1858
     13  O5D       -6.4650    9.5540   55.0200 O.3   301  50A301     -0.2675
@<TRIPOS>BOND
     1     6     5    1
     2     3     5    1
     3     3    11    1
     4     5     8    1
     5    11    10    1
     6     9     8    1
     7     8    10    1
     8    10    12    1
     9    12    13    1
    10    13     2    1
    11     7     2    2
    12     1     2    1
    13     2     4    1
