@<TRIPOS>MOLECULE
3roq_46Z_A_1.pdb
 20 21 0 0 0
SMALL
GASTEIGER

@<TRIPOS>ATOM
      1  OAA     -398.9830 -934.3790    1.2390 O.2   301  46Z301     -0.5172
      2  OAB     -397.7430 -931.1510   -2.2120 O.3   301  46Z301     -0.2146
      3  OAC     -396.5710 -934.1880    2.0700 O.3   301  46Z301     -0.4373
      4  FAD     -397.3430 -928.3220   -0.5100 F     301  46Z301     -0.2316
      5  CAE     -400.1960 -936.5440    7.5750 C.ar  301  46Z301     -0.0000
      6  CAF     -399.2440 -937.2190    6.8080 C.ar  301  46Z301     -0.0003
      7  CAG     -400.1960 -935.1470    7.6300 C.ar  301  46Z301     -0.0003
      8  CAH     -398.2870 -936.4940    6.0910 C.ar  301  46Z301     -0.0042
      9  CAI     -399.2380 -934.4220    6.9130 C.ar  301  46Z301     -0.0042
     10  CAJ     -397.7270 -933.0880    4.5980 C.3   301  46Z301      0.1538
     11  CAK     -397.2080 -934.3170    5.3450 C.3   301  46Z301      0.0588
     12  CAL     -399.5780 -929.3410   -0.2800 C.3   301  46Z301      0.1828
     13  OAM     -399.4070 -930.3750    0.7130 O.3   301  46Z301     -0.3253
     14  OAN     -398.5730 -933.4900    3.5360 O.3   301  46Z301     -0.3137
     15  OAO     -397.8210 -931.9720    1.3980 O.3   301  46Z301     -0.2859
     16  CAP     -398.2810 -935.0900    6.1380 C.ar  301  46Z301     -0.0197
     17  CAQ     -397.6410 -930.6290   -0.8780 C.3   301  46Z301      0.2429
     18  CAR     -398.2340 -929.2460   -1.0210 C.3   301  46Z301      0.2256
     19  CAS     -398.5060 -931.3840    0.1820 C.3   301  46Z301      0.2744
     20  PAT     -398.0370 -933.5440    1.9940 P.3   301  46Z301      0.2160
@<TRIPOS>BOND
     1     2    17    1
     2    18    17    1
     3    18     4    1
     4    18    12    1
     5    17    19    1
     6    12    13    1
     7    19    13    1
     8    19    15    1
     9     1    20    2
    10    15    20    1
    11    20     3    1
    12    20    14    1
    13    14    10    1
    14    10    11    1
    15    11    16    1
    16     8    16   ar
    17     8     6   ar
    18    16     9   ar
    19     6     5   ar
    20     9     7   ar
    21     5     7   ar
