@<TRIPOS>MOLECULE
3rou_CMP_A_1.pdb
 22 25 0 0 0
SMALL
GASTEIGER

@<TRIPOS>ATOM
      1  P         39.2100   41.4660   51.4940 P.3   301  CMP301      0.2141
      2  O1P       38.9030   40.4880   50.3760 O.2   301  CMP301     -0.5172
      3  O2P       39.4890   40.9860   52.8620 O.3   301  CMP301     -0.4373
      4  O5'       40.5840   42.0830   50.8670 O.3   301  CMP301     -0.3114
      5  C5'       40.6930   43.2960   50.0560 C.3   301  CMP301      0.1812
      6  C4'       39.4360   44.1510   49.9110 C.3   301  CMP301      0.1793
      7  O4'       39.1740   44.7140   48.6550 O.3   301  CMP301     -0.3136
      8  C3'       38.1570   43.4160   50.2590 C.3   301  CMP301      0.1884
      9  O3'       38.1460   42.6970   51.5110 O.3   301  CMP301     -0.3111
     10  C2'       37.2080   44.4990   50.0370 C.3   301  CMP301      0.2541
     11  O2'       37.3100   45.4300   51.1110 O.3   301  CMP301     -0.2131
     12  C1'       37.8790   45.2600   48.8270 C.3   301  CMP301      0.3185
     13  N9        37.1710   44.8590   47.6270 N.pl3 301  CMP301     -0.1439
     14  C8        37.3640   43.6920   46.8480 C.3   301  CMP301      0.3377
     15  N7        36.5350   43.6020   45.8200 N.2   301  CMP301     -0.2095
     16  C5        35.7580   44.7760   45.9150 C.2   301  CMP301      0.2526
     17  C6        34.7240   45.2930   45.1360 C.2   301  CMP301      0.4393
     18  N6        34.3010   44.6690   44.0470 N.pl3 301  CMP301      0.2180
     19  N1        34.1380   46.5020   45.5150 N.2   301  CMP301      0.0021
     20  C2        34.5940   47.1350   46.6080 C.3   301  CMP301      0.5254
     21  N3        35.5770   46.7690   47.4370 N.2   301  CMP301     -0.0055
     22  C4        36.1310   45.5470   47.0150 C.2   301  CMP301      0.3518
@<TRIPOS>BOND
     1    18    17    1
     2    17    19    2
     3    17    16    1
     4    19    20    1
     5    15    16    2
     6    15    14    1
     7    16    22    1
     8    20    21    1
     9    14    13    1
    10    22    21    2
    11    22    13    1
    12    13    12    1
    13     7    12    1
    14     7     6    1
    15    12    10    1
    16     6     5    1
    17     6     8    1
    18    10     8    1
    19    10    11    1
    20     5     4    1
    21     8     9    1
    22     2     1    2
    23     4     1    1
    24     1     9    1
    25     1     3    1
