@<TRIPOS>MOLECULE
3rox_TEP_A_1.pdb
 13 14 0 0 0
SMALL
GASTEIGER

@<TRIPOS>ATOM
      1  C1        11.5740   25.6190   26.1170 C.3   266  TEP266      0.1383
      2  N1        11.8120   25.6750   27.5620 N.ar  266  TEP266     -0.2454
      3  C2        12.5820   26.7530   28.0660 C.ar  266  TEP266      0.3350
      4  O2        13.0010   27.5680   27.2300 O.2   266  TEP266     -0.2461
      5  N3        12.8780   26.9350   29.4510 N.ar  266  TEP266     -0.2630
      6  C3        13.6840   28.0660   29.9460 C.3   266  TEP266      0.1366
      7  C4        12.4040   26.0290   30.3060 C.ar  266  TEP266      0.1668
      8  C5        11.5930   24.8680   29.8890 C.ar  266  TEP266      0.1681
      9  C6        11.2880   24.6860   28.4350 C.ar  266  TEP266      0.2846
     10  O6        10.6000   23.7180   28.0000 O.2   266  TEP266     -0.2651
     11  N7        11.3230   24.2200   31.0280 N.2   266  TEP266     -0.2364
     12  C8        11.8980   24.8920   32.0730 C.3   266  TEP266      0.2523
     13  N9        12.5610   25.9980   31.6420 N.2   266  TEP266     -0.2256
@<TRIPOS>BOND
     1     1     2    1
     2     4     3    2
     3     2     3   ar
     4     2     9   ar
     5    10     9    2
     6     3     5   ar
     7     9     8   ar
     8     5     6    1
     9     5     7   ar
    10     8     7   ar
    11     8    11    2
    12     7    13    2
    13    11    12    1
    14    13    12    1
