@<TRIPOS>MOLECULE
3roy_22Z_A_1.pdb
 27 28 0 0 0
SMALL
GASTEIGER

@<TRIPOS>ATOM
      1  N01      -64.2620  -10.1780   24.0660 N.pl3 781  22Z781     -0.2326
      2  N02      -66.9390   -9.8370   20.9520 N.am  781  22Z781     -0.0837
      3  N03      -62.6950  -13.2900   26.5530 N.ar  781  22Z781     -0.2426
      4  N04      -67.3630   -8.0710   26.9780 N.pl3 781  22Z781     -0.2359
      5  N05      -69.2770   -8.1720   25.0040 N.pl3 781  22Z781      0.0590
      6  C06      -67.7710   -9.2180   23.5530 C.ar  781  22Z781      0.0313
      7  C07      -66.4730   -9.7470   23.2860 C.ar  781  22Z781      0.0732
      8  C08      -65.4540   -9.6950   24.3100 C.ar  781  22Z781      0.0715
      9  C09      -65.7870   -9.1080   25.5880 C.ar  781  22Z781      0.0340
     10  C10      -67.0950   -8.5860   25.8370 C.ar  781  22Z781      0.0890
     11  C11      -68.0970   -8.6390   24.8110 C.ar  781  22Z781      0.1578
     12  C12      -66.2350  -10.2930   22.0390 C.2   781  22Z781      0.2855
     13  C13      -63.0400   -9.8740   24.8610 C.3   781  22Z781      0.1401
     14  C14      -62.8330  -10.9240   25.9200 C.ar  781  22Z781      0.0185
     15  C15      -62.8740  -12.3010   25.6100 C.ar  781  22Z781      0.0963
     16  C16      -62.4650  -12.8990   27.8580 C.ar  781  22Z781      0.0989
     17  C17      -62.4070  -11.5510   28.2620 C.ar  781  22Z781      0.0204
     18  C18      -62.5960  -10.5540   27.2720 C.ar  781  22Z781      0.0006
     19  C19      -67.8400   -8.9120   28.0910 C.3   781  22Z781      0.1123
     20  C20      -67.1390   -8.4930   29.3880 C.3   781  22Z781      0.0233
     21  C21      -65.6870   -8.9780   29.3740 C.3   781  22Z781      0.0018
     22  C22      -64.9420   -8.4010   30.5680 C.3   781  22Z781      0.0001
     23  C23      -63.8110   -9.3420   30.9710 C.3   781  22Z781      0.0000
     24  C24      -63.6380   -9.3040   32.4860 C.3   781  22Z781      0.0000
     25  O25      -65.4190  -11.1760   21.8870 O.2   781  22Z781     -0.2666
     26  O26      -69.4570   -7.0970   25.7480 O.2   781  22Z781     -0.1261
     27  O27      -70.3300   -8.7340   24.4410 O.2   781  22Z781     -0.1261
@<TRIPOS>BOND
     1     2    12   am
     2    25    12    2
     3    12     7    1
     4     7     6   ar
     5     7     8   ar
     6     6    11   ar
     7     1     8    1
     8     1    13    1
     9     8     9   ar
    10    27     5    2
    11    11     5    1
    12    11    10   ar
    13    13    14    1
    14     5    26    2
    15     9    10   ar
    16    15    14   ar
    17    15     3   ar
    18    10     4    1
    19    14    18   ar
    20     3    16   ar
    21     4    19    1
    22    18    17   ar
    23    16    17   ar
    24    19    20    1
    25    21    20    1
    26    21    22    1
    27    22    23    1
    28    23    24    1
