@<TRIPOS>MOLECULE
3rp7_URC_A_1.pdb
 12 13 0 0 0
SMALL
GASTEIGER

@<TRIPOS>ATOM
      1  N1        -0.3020   37.3970   -6.5930 N.2   7579  URC7579    -0.2289
      2  C2         0.2270   37.5130   -7.8410 C.1   7579  URC7579     0.3754
      3  C6         0.4590   37.2690   -5.4830 C.1   7579  URC7579     0.2604
      4  N3         1.5660   37.4920   -8.0770 N.2   7579  URC7579    -0.2368
      5  O11       -0.5590   37.6330   -8.8060 O.2   7579  URC7579    -0.1738
      6  C4         2.4210   37.3550   -7.0330 C.1   7579  URC7579     0.2099
      7  C5         1.9280   37.2400   -5.6490 C.2   7579  URC7579     0.3262
      8  N9         3.7730   37.3110   -7.0380 N.2   7579  URC7579    -0.2373
      9  O13       -0.0650   37.1730   -4.3550 O.2   7579  URC7579    -0.2051
     10  N7         3.0110   37.1240   -4.8500 N.2   7579  URC7579    -0.2823
     11  C8         4.0600   37.1800   -5.7190 C.1   7579  URC7579     0.3665
     12  O24        5.2810   37.0990   -5.3100 O.2   7579  URC7579    -0.1745
@<TRIPOS>BOND
     1     5     2    2
     2     4     2    2
     3     4     6    2
     4     2     1    2
     5     8     6    2
     6     8    11    2
     7     6     7    1
     8     1     3    2
     9    11    12    2
    10    11    10    2
    11     7     3    1
    12     7    10    2
    13     3     9    2
