@<TRIPOS>MOLECULE
3rph_AMP_A_1.pdb
 23 25 0 0 0
SMALL
GASTEIGER

@<TRIPOS>ATOM
      1  P        -23.7690  -36.3320  -23.4300 P.3   278  AMP278      0.5327
      2  O1P      -25.2790  -36.4910  -23.5550 O.2   278  AMP278     -0.2224
      3  O2P      -23.3700  -34.8870  -23.2320 O.3   278  AMP278     -0.1145
      4  O3P      -23.1690  -37.3520  -22.4840 O.3   278  AMP278     -0.1145
      5  O5'      -23.3030  -36.8680  -24.8230 O.3   278  AMP278     -0.2675
      6  C5'      -23.6570  -36.1610  -26.0110 C.3   278  AMP278      0.1860
      7  C4'      -23.6540  -37.0920  -27.1990 C.3   278  AMP278      0.1823
      8  O4'      -24.1670  -36.3900  -28.3360 O.3   278  AMP278     -0.3135
      9  C3'      -22.2600  -37.5520  -27.5940 C.3   278  AMP278      0.2184
     10  O3'      -22.3000  -38.8090  -28.2850 O.3   278  AMP278     -0.2174
     11  C2'      -21.7970  -36.4290  -28.5260 C.3   278  AMP278      0.2570
     12  O2'      -20.6910  -36.7350  -29.3850 O.3   278  AMP278     -0.2130
     13  C1'      -23.1000  -36.1920  -29.2960 C.3   278  AMP278      0.3186
     14  N9       -23.2180  -34.8630  -29.8630 N.pl3 278  AMP278     -0.1439
     15  C8       -23.6530  -33.7420  -29.2550 C.3   278  AMP278      0.3377
     16  N7       -23.6750  -32.6740  -30.1120 N.2   278  AMP278     -0.2095
     17  C5       -23.2510  -33.1540  -31.2900 C.2   278  AMP278      0.2526
     18  C6       -23.0090  -32.5720  -32.6110 C.2   278  AMP278      0.4393
     19  N6       -23.2780  -31.2590  -32.7060 N.pl3 278  AMP278      0.2180
     20  N1       -22.5510  -33.3600  -33.6020 N.2   278  AMP278      0.0021
     21  C2       -22.3380  -34.6630  -33.3920 C.3   278  AMP278      0.5254
     22  N3       -22.5250  -35.2640  -32.1820 N.2   278  AMP278     -0.0055
     23  C4       -22.9500  -34.5820  -31.1380 C.2   278  AMP278      0.3518
@<TRIPOS>BOND
     1    20    21    1
     2    20    18    2
     3    21    22    1
     4    19    18    1
     5    18    17    1
     6    22    23    2
     7    17    23    1
     8    17    16    2
     9    23    14    1
    10    16    15    1
    11    14    13    1
    12    14    15    1
    13    12    11    1
    14    13    11    1
    15    13     8    1
    16    11     9    1
    17     8     7    1
    18    10     9    1
    19     9     7    1
    20     7     6    1
    21     6     5    1
    22     5     1    1
    23     2     1    2
    24     1     3    1
    25     1     4    1
