@<TRIPOS>MOLECULE
3rpl_FBP_A_1.pdb
 20 20 0 0 0
SMALL
GASTEIGER

@<TRIPOS>ATOM
      1  P1        31.4020  -32.0390   11.8020 P.3   350  FBP350      0.5328
      2  O1P       32.1720  -33.3310   11.7730 O.3   350  FBP350     -0.1145
      3  O2P       30.5430  -31.9010   10.5710 O.2   350  FBP350     -0.2224
      4  O3P       30.5070  -32.0420   13.0000 O.3   350  FBP350     -0.1145
      5  O1        32.4500  -30.8070   11.8900 O.3   350  FBP350     -0.2648
      6  C1        33.5420  -30.9010   12.7800 C.3   350  FBP350      0.2152
      7  C2        34.1440  -29.5320   13.0920 C.3   350  FBP350      0.2780
      8  O2        34.6160  -28.9200   11.8610 O.3   350  FBP350     -0.1897
      9  C3        35.2700  -29.6070   14.1180 C.3   350  FBP350      0.2408
     10  O3        36.4980  -29.8340   13.4880 O.3   350  FBP350     -0.2149
     11  C4        35.2380  -28.2350   14.7570 C.3   350  FBP350      0.2167
     12  O4        35.7560  -28.2550   16.0660 O.3   350  FBP350     -0.2175
     13  C5        33.7540  -27.8980   14.7130 C.3   350  FBP350      0.1808
     14  O5        33.1870  -28.6750   13.6760 O.3   350  FBP350     -0.3255
     15  C6        33.4500  -26.4280   14.4590 C.3   350  FBP350      0.1859
     16  O6        32.0490  -26.2590   14.5560 O.3   350  FBP350     -0.2675
     17  P2        31.2620  -25.0980   13.7550 P.3   350  FBP350      0.5327
     18  O4P       31.9990  -23.7900   13.8340 O.3   350  FBP350     -0.1145
     19  O5P       29.8820  -24.9210   14.3290 O.3   350  FBP350     -0.1145
     20  O6P       31.2000  -25.4920   12.3040 O.2   350  FBP350     -0.2224
@<TRIPOS>BOND
     1     3     1    2
     2     2     1    1
     3     1     5    1
     4     1     4    1
     5     8     7    1
     6     5     6    1
     7    20    17    2
     8     6     7    1
     9     7    14    1
    10     7     9    1
    11    10     9    1
    12    14    13    1
    13    17    18    1
    14    17    19    1
    15    17    16    1
    16     9    11    1
    17    15    16    1
    18    15    13    1
    19    13    11    1
    20    11    12    1
