@<TRIPOS>MOLECULE
3rpl_AMP_A_1.pdb
 23 25 0 0 0
SMALL
GASTEIGER

@<TRIPOS>ATOM
      1  P         45.0010  -44.8070   -8.0150 P.3   349  AMP349      0.5327
      2  O1P       45.0960  -45.9220   -9.0140 O.2   349  AMP349     -0.2224
      3  O2P       45.4660  -43.4270   -8.4280 O.3   349  AMP349     -0.1145
      4  O3P       43.5550  -44.6740   -7.6100 O.3   349  AMP349     -0.1145
      5  O5'       45.7640  -45.2400   -6.6780 O.3   349  AMP349     -0.2675
      6  C5'       45.7850  -44.3890   -5.5400 C.3   349  AMP349      0.1860
      7  C4'       46.5590  -44.9990   -4.3990 C.3   349  AMP349      0.1823
      8  O4'       45.8870  -46.1950   -3.9260 O.3   349  AMP349     -0.3135
      9  C3'       47.9690  -45.4660   -4.7170 C.3   349  AMP349      0.2184
     10  O3'       48.9080  -44.4150   -4.7230 O.3   349  AMP349     -0.2174
     11  C2'       48.2180  -46.5090   -3.6320 C.3   349  AMP349      0.2570
     12  O2'       48.5070  -45.8910   -2.3850 O.3   349  AMP349     -0.2130
     13  C1'       46.8390  -47.1660   -3.5450 C.3   349  AMP349      0.3186
     14  N9        46.7480  -48.2960   -4.4760 N.pl3 349  AMP349     -0.1439
     15  C8        46.2730  -48.2790   -5.7320 C.3   349  AMP349      0.3377
     16  N7        46.4100  -49.4950   -6.3110 N.2   349  AMP349     -0.2095
     17  C5        47.0010  -50.3000   -5.4190 C.2   349  AMP349      0.2526
     18  C6        47.4350  -51.7080   -5.3700 C.2   349  AMP349      0.4393
     19  N6        47.2720  -52.5270   -6.4280 N.pl3 349  AMP349      0.2180
     20  N1        48.0170  -52.1490   -4.2390 N.2   349  AMP349      0.0021
     21  C2        48.1890  -51.3530   -3.1700 C.3   349  AMP349      0.5254
     22  N3        47.8210  -50.0670   -3.1400 N.2   349  AMP349     -0.0055
     23  C4        47.2310  -49.5020   -4.2150 C.2   349  AMP349      0.3518
@<TRIPOS>BOND
     1     2     1    2
     2     3     1    1
     3     1     4    1
     4     1     5    1
     5     5     6    1
     6    19    18    1
     7    16    15    1
     8    16    17    2
     9    15    14    1
    10     6     7    1
    11    17    18    1
    12    17    23    1
    13    18    20    2
    14    10     9    1
    15     9     7    1
    16     9    11    1
    17    14    23    1
    18    14    13    1
    19     7     8    1
    20    20    21    1
    21    23    22    2
    22     8    13    1
    23    11    13    1
    24    11    12    1
    25    21    22    1
