@<TRIPOS>MOLECULE
3rpm_NAG_A_1.pdb
 15 15 0 0 0
SMALL
GASTEIGER

@<TRIPOS>ATOM
      1  C1        94.2460  -20.4230    1.6800 C.3     2  NAG2        0.2917
      2  C2        94.2500  -18.9320    1.9960 C.3     2  NAG2        0.1871
      3  C3        93.1410  -18.5360    1.0180 C.3     2  NAG2        0.2095
      4  C4        93.6080  -18.9060   -0.4060 C.3     2  NAG2        0.2136
      5  C5        94.1690  -20.3550   -0.4990 C.3     2  NAG2        0.1835
      6  C6        94.7660  -20.7590   -1.8440 C.3     2  NAG2        0.2142
      7  C7        94.8410  -17.7010    4.0300 C.2     2  NAG2        0.2421
      8  C8        94.5830  -17.4210    5.4700 C.3     2  NAG2        0.0964
      9  N2        94.0460  -18.5930    3.4050 N.am    2  NAG2       -0.1991
     10  O1        94.4270  -21.2530    2.7690 O.3     2  NAG2       -0.1879
     11  O3        92.7900  -17.1870    1.1390 O.3     2  NAG2       -0.2183
     12  O4        92.5070  -18.7640   -1.2740 O.3     2  NAG2       -0.2176
     13  O5        95.0900  -20.6140    0.5540 O.3     2  NAG2       -0.3242
     14  O6        95.7420  -19.8530   -2.2800 O.3     2  NAG2       -0.2176
     15  O7        95.7780  -17.0930    3.5040 O.2     2  NAG2       -0.2733
@<TRIPOS>BOND
     1    14     6    1
     2     6     5    1
     3    12     4    1
     4     5     4    1
     5     5    13    1
     6     4     3    1
     7    13     1    1
     8     3    11    1
     9     3     2    1
    10     1     2    1
    11     1    10    1
    12     2     9    1
    13     9     7   am
    14    15     7    2
    15     7     8    1
