@<TRIPOS>MOLECULE
3rpn_GTX_A_1.pdb
 26 25 0 0 0
SMALL
GASTEIGER

@<TRIPOS>ATOM
      1  N1        12.4170   -1.7190    9.7760 N.3   302  GTX302     -0.1208
      2  CA1       11.6000   -1.3770    8.6280 C.3   302  GTX302      0.1948
      3  C1        10.3080   -0.8080    9.1260 C.2   302  GTX302      0.3819
      4  O11        9.4640   -0.3540    8.3310 O.co2 302  GTX302     -0.2441
      5  O12       10.0650   -0.7790   10.3490 O.co2 302  GTX302     -0.2441
      6  CB1       11.3020   -2.6320    7.8170 C.3   302  GTX302      0.0402
      7  CG1       10.6170   -2.2820    6.4910 C.3   302  GTX302      0.0889
      8  CD1       10.7500   -3.4490    5.5340 C.2   302  GTX302      0.2418
      9  OE1       11.5530   -4.5550    5.8580 O.2   302  GTX302     -0.2733
     10  N2        10.0850   -3.4010    4.3890 N.am  302  GTX302     -0.1969
     11  CA2       10.1630   -4.5410    3.4900 C.3   302  GTX302      0.1834
     12  C2        11.2480   -4.3680    2.4570 C.2   302  GTX302      0.2626
     13  O2        11.0040   -3.7380    1.2320 O.2   302  GTX302     -0.2714
     14  CB2        8.7950   -4.8400    2.8750 C.3   302  GTX302      0.0886
     15  SG2        7.4810   -4.9530    4.1280 S.3   302  GTX302     -0.1379
     16  C1S        8.0890   -6.5980    4.5940 C.3   302  GTX302      0.0576
     17  C2S        7.8860   -7.6250    3.4730 C.3   302  GTX302      0.0116
     18  C3S        6.6030   -8.4380    3.6490 C.3   302  GTX302      0.0009
     19  C4S        6.1570   -9.0860    2.3440 C.3   302  GTX302      0.0000
     20  C5S        4.8490   -9.8490    2.5520 C.3   302  GTX302      0.0000
     21  C6S        4.0340   -9.9980    1.2680 C.3   302  GTX302      0.0000
     22  N3        12.4570   -4.8220    2.7610 N.am  302  GTX302     -0.1917
     23  CA3       13.6000   -4.4300    1.9580 C.3   302  GTX302      0.2285
     24  C3        14.8900   -4.9090    2.5720 C.2   302  GTX302      0.3865
     25  O31       15.8820   -5.1390    1.8530 O.co2 302  GTX302     -0.2437
     26  O32       14.9780   -5.0920    3.8070 O.co2 302  GTX302     -0.2437
@<TRIPOS>BOND
     1    13    12    2
     2    21    20    1
     3    25    24   ar
     4    23    24    1
     5    23    22    1
     6    19    20    1
     7    19    18    1
     8    12    22   am
     9    12    11    1
    10    24    26   ar
    11    14    11    1
    12    14    15    1
    13    17    18    1
    14    17    16    1
    15    11    10    1
    16    15    16    1
    17    10     8   am
    18     8     9    2
    19     8     7    1
    20     7     6    1
    21     6     2    1
    22     4     3   ar
    23     2     3    1
    24     2     1    1
    25     3     5   ar
