@<TRIPOS>MOLECULE
3rpo_24Z_A_1.pdb
 27 28 0 0 0
SMALL
GASTEIGER

@<TRIPOS>ATOM
      1  N01       63.7870   82.0240   24.2740 N.pl3 778  24Z778     -0.2326
      2  N02       66.9320   81.8670   21.5820 N.am  778  24Z778     -0.0837
      3  N03       62.3150   85.0030   26.9990 N.ar  778  24Z778     -0.2426
      4  N04       66.4120   79.8450   27.5730 N.pl3 778  24Z778     -0.2359
      5  N05       68.6390   80.0350   25.8850 N.pl3 778  24Z778      0.0590
      6  C06       67.3440   81.1150   24.2540 C.ar  778  24Z778      0.0313
      7  C07       66.0900   81.6430   23.8040 C.ar  778  24Z778      0.0732
      8  C08       64.9360   81.5500   24.6660 C.ar  778  24Z778      0.0715
      9  C09       65.0840   80.9240   25.9570 C.ar  778  24Z778      0.0340
     10  C10       66.3300   80.3990   26.4010 C.ar  778  24Z778      0.0890
     11  C11       67.4860   80.4940   25.5350 C.ar  778  24Z778      0.1578
     12  C12       66.0310   82.2260   22.5320 C.2   778  24Z778      0.2855
     13  C13       62.4760   81.7640   24.9420 C.3   778  24Z778      0.1401
     14  C14       62.2660   82.7230   26.1020 C.ar  778  24Z778      0.0185
     15  C15       62.4870   84.1080   25.9630 C.ar  778  24Z778      0.0963
     16  C16       61.9090   84.5040   28.2120 C.ar  778  24Z778      0.0989
     17  C17       61.6640   83.1390   28.4480 C.ar  778  24Z778      0.0204
     18  C18       61.8490   82.2460   27.3730 C.ar  778  24Z778      0.0006
     19  C19       65.4390   78.8230   28.0150 C.3   778  24Z778      0.1128
     20  C20       65.1040   79.0200   29.4890 C.3   778  24Z778      0.0351
     21  C21       65.6520   77.8400   30.2870 C.3   778  24Z778      0.1159
     22  C22       65.2230   77.9420   31.7370 C.2   778  24Z778      0.3649
     23  O23       65.1890   83.0420   22.2380 O.2   778  24Z778     -0.2666
     24  O24       65.9470   78.6650   32.6030 O.co2 778  24Z778     -0.2457
     25  O25       64.2280   77.3650   32.1140 O.co2 778  24Z778     -0.2457
     26  O26       69.7050   80.2530   25.1300 O.2   778  24Z778     -0.1261
     27  O27       68.7880   79.3440   26.9820 O.2   778  24Z778     -0.1261
@<TRIPOS>BOND
     1     2    12   am
     2    23    12    2
     3    12     7    1
     4     7     6   ar
     5     7     8   ar
     6     6    11   ar
     7     1     8    1
     8     1    13    1
     9     8     9   ar
    10    13    14    1
    11    26     5    2
    12    11     5    1
    13    11    10   ar
    14     5    27    2
    15     9    10   ar
    16    15    14   ar
    17    15     3   ar
    18    14    18   ar
    19    10     4    1
    20     3    16   ar
    21    18    17   ar
    22     4    19    1
    23    19    20    1
    24    16    17   ar
    25    20    21    1
    26    21    22    1
    27    22    25   ar
    28    22    24   ar
