@<TRIPOS>MOLECULE
3rpq_CMP_A_1.pdb
 22 25 0 0 0
SMALL
GASTEIGER

@<TRIPOS>ATOM
      1  P        -14.1770    1.6580   16.5350 P.3   301  CMP301      0.2141
      2  O1P      -13.3640    0.5940   17.1470 O.3   301  CMP301     -0.4373
      3  O2P      -15.3970    1.2720   15.8200 O.2   301  CMP301     -0.5172
      4  O5'      -14.7210    2.5780   17.8140 O.3   301  CMP301     -0.3114
      5  C5'      -14.3140    3.9530   18.1570 C.3   301  CMP301      0.1812
      6  C4'      -13.2830    4.6250   17.2130 C.3   301  CMP301      0.1793
      7  O4'      -12.2260    5.2840   17.8570 O.3   301  CMP301     -0.3136
      8  C3'      -12.5360    3.6030   16.4230 C.3   301  CMP301      0.1884
      9  O3'      -13.3370    2.6900   15.6610 O.3   301  CMP301     -0.3111
     10  C2'      -11.5170    4.4250   15.7640 C.3   301  CMP301      0.2541
     11  O2'      -12.0160    5.0840   14.6110 O.3   301  CMP301     -0.2131
     12  C1'      -11.2550    5.4980   16.8160 C.3   301  CMP301      0.3185
     13  N9        -9.9210    5.2650   17.4220 N.pl3 301  CMP301     -0.1439
     14  C8        -9.5910    4.3660   18.4360 C.3   301  CMP301      0.3377
     15  N7        -8.3360    4.3500   18.7810 N.2   301  CMP301     -0.2095
     16  C5        -7.7710    5.3060   17.9440 C.2   301  CMP301      0.2526
     17  C6        -6.4300    5.7930   17.7900 C.2   301  CMP301      0.4393
     18  N6        -5.4280    5.3260   18.5330 N.pl3 301  CMP301      0.2180
     19  N1        -6.1920    6.7660   16.8480 N.2   301  CMP301      0.0021
     20  C2        -7.2320    7.2170   16.1050 C.3   301  CMP301      0.5254
     21  N3        -8.5270    6.8500   16.1440 N.2   301  CMP301     -0.0055
     22  C4        -8.7370    5.8730   17.1030 C.2   301  CMP301      0.3518
@<TRIPOS>BOND
     1    11    10    1
     2     9     8    1
     3     9     1    1
     4    10     8    1
     5    10    12    1
     6     3     1    2
     7    20    21    1
     8    20    19    1
     9    21    22    2
    10     8     6    1
    11     1     2    1
    12     1     4    1
    13    12    13    1
    14    12     7    1
    15    19    17    2
    16    22    13    1
    17    22    16    1
    18     6     7    1
    19     6     5    1
    20    13    14    1
    21    17    16    1
    22    17    18    1
    23     4     5    1
    24    16    15    2
    25    14    15    1
