@<TRIPOS>MOLECULE
3rpr_25Z_A_1.pdb
 25 27 0 0 0
SMALL
GASTEIGER

@<TRIPOS>ATOM
      1  C1        94.6830   76.9970  -46.1040 C.ar  529  25Z529      0.0039
      2  F1        94.3210   80.5000  -44.9690 F     529  25Z529     -0.1659
      3  N1        91.7310   81.8290  -51.1100 N.2   529  25Z529     -0.3601
      4  O1        94.6530   78.6890  -50.9240 O.2   529  25Z529     -0.2859
      5  S1        91.9550   80.7390  -48.7840 S.3   529  25Z529     -0.0310
      6  C2        94.5210   78.4510  -46.0640 C.ar  529  25Z529      0.0715
      7  F2        95.8610   79.0400  -44.2760 F     529  25Z529     -0.1659
      8  N2        90.2250   82.6940  -49.5230 N.pl3 529  25Z529     -0.1779
      9  C3        94.2870   79.1340  -47.3360 C.ar  529  25Z529      0.0070
     10  F3        93.6900   78.6190  -43.9010 F     529  25Z529     -0.1659
     11  N3        93.3680   80.6960  -52.4050 N.pl3 529  25Z529     -0.0924
     12  C4        94.2100   78.4180  -48.6160 C.ar  529  25Z529      0.0395
     13  C5        94.3830   76.9580  -48.5820 C.ar  529  25Z529      0.0032
     14  C6        94.6150   76.2680  -47.3420 C.ar  529  25Z529      0.0000
     15  C7        94.5970   79.1460  -44.8120 C.3   529  25Z529      0.4186
     16  C8        93.9820   79.0870  -49.8260 C.2   529  25Z529      0.2055
     17  C9        92.9660   80.2040  -50.0400 C.2   529  25Z529      0.1188
     18  C10       91.2210   81.8540  -49.8470 C.2   529  25Z529      0.2367
     19  C11       92.7160   80.9050  -51.2260 C.2   529  25Z529      0.2306
     20  C12       89.4160   82.7100  -48.3620 C.ar  529  25Z529      0.0736
     21  C13       89.0970   81.5380  -47.5090 C.ar  529  25Z529      0.0166
     22  C14       88.2600   81.6700  -46.3380 C.ar  529  25Z529      0.0013
     23  C15       87.7230   82.9580  -45.9880 C.ar  529  25Z529      0.0001
     24  C16       88.0120   84.1100  -46.7970 C.ar  529  25Z529      0.0013
     25  C17       88.8480   83.9870  -47.9670 C.ar  529  25Z529      0.0166
@<TRIPOS>BOND
     1    11    19    1
     2    19     3    2
     3    19    17    1
     4     3    18    2
     5     4    16    1
     6    17    16    2
     7    17     5    1
     8    18     8    1
     9    18     5    1
    10    16    12    1
    11     8    20    1
    12    12    13   ar
    13    12     9   ar
    14    13    14   ar
    15    20    25   ar
    16    20    21   ar
    17    25    24   ar
    18    21    22   ar
    19    14     1   ar
    20     9     6   ar
    21    24    23   ar
    22    22    23   ar
    23     1     6   ar
    24     6    15    1
    25     2    15    1
    26    15     7    1
    27    15    10    1
