@<TRIPOS>MOLECULE
3rps_4B0_A_1.pdb
 17 18 0 0 0
SMALL
GASTEIGER

@<TRIPOS>ATOM
      1  OAA       21.7340  -36.0890  -11.9710 O.3   336  4B0336     -0.2204
      2 BRAB       17.2000  -41.1080   -3.6020 Br    336  4B0336     -0.0519
      3 BRAC       16.2820  -42.0310   -6.6360 Br    336  4B0336     -0.0709
      4 BRAD       19.2050  -38.6080   -3.1900 Br    336  4B0336     -0.0471
      5 BRAE       17.4540  -40.3320   -9.3000 Br    336  4B0336     -0.0511
      6  CAF       20.7940  -37.1140  -11.6130 C.3   336  4B0336      0.1839
      7  CAG       20.8390  -37.3910  -10.1020 C.3   336  4B0336      0.0590
      8  CAH       19.4550  -37.7860   -9.5490 C.3   336  4B0336      0.1183
      9  NAI       19.9990  -37.3700   -6.1620 N.2   336  4B0336     -0.1417
     10  NAJ       20.1300  -37.1060   -7.3630 N.pl3 336  4B0336     -0.0444
     11  CAK       17.8390  -40.1810   -5.1290 C.2   336  4B0336      0.0351
     12  CAL       17.4610  -40.5550   -6.4240 C.3   336  4B0336      0.1156
     13  CAM       18.7010  -39.1110   -4.9400 C.2   336  4B0336      0.0584
     14  CAN       17.9550  -39.8430   -7.5320 C.2   336  4B0336      0.0437
     15  CAO       19.1850  -38.4100   -6.0350 C.2   336  4B0336      0.1233
     16  CAP       18.8220  -38.7630   -7.3210 C.2   336  4B0336      0.0914
     17  NAQ       19.4780  -37.8780   -8.0750 N.pl3 336  4B0336     -0.2013
@<TRIPOS>BOND
     1     1     6    1
     2     6     7    1
     3     7     8    1
     4     8    17    1
     5     5    14    1
     6    17    10    1
     7    17    16    1
     8    14    16    2
     9    14    12    1
    10    10     9    1
    11    16    15    1
    12     3    12    1
    13    12    11    1
    14     9    15    2
    15    15    13    1
    16    11    13    2
    17    11     2    1
    18    13     4    1
