@<TRIPOS>MOLECULE
3rpv_26Z_A_1.pdb
 26 28 0 0 0
SMALL
GASTEIGER

@<TRIPOS>ATOM
      1  N01       65.3520  117.6420  -86.8150 N.2   495  26Z495     -0.3642
      2  N02       64.1000  118.2300  -85.0070 N.pl3 495  26Z495     -0.1781
      3  N03       66.8850  116.7830  -88.3510 N.pl3 495  26Z495     -0.0965
      4  N04       67.3660  112.3040  -82.4470 N.pl3 495  26Z495     -0.1281
      5  N05       61.4110  116.4060  -79.1560 N.3   495  26Z495      0.0392
      6  C06       67.0380  116.1290  -86.1100 C.3   495  26Z495      0.1864
      7  C07       66.4540  116.8430  -87.1550 C.2   495  26Z495      0.2162
      8  C08       65.0930  117.5450  -85.5330 C.2   495  26Z495      0.2328
      9  C09       63.3670  117.9620  -83.9610 C.ar  495  26Z495      0.0737
     10  C10       68.1490  115.2670  -86.2190 C.2   495  26Z495      0.1914
     11  C11       68.5960  114.4770  -85.1430 C.ar  495  26Z495      0.0374
     12  C12       69.9920  114.3980  -84.8660 C.ar  495  26Z495      0.0030
     13  C13       70.4700  113.6150  -83.7810 C.ar  495  26Z495      0.0015
     14  C14       69.5670  112.8970  -82.9510 C.ar  495  26Z495      0.0181
     15  C15       68.1760  112.9550  -83.2050 C.ar  495  26Z495      0.0892
     16  C16       67.6830  113.7430  -84.3010 C.ar  495  26Z495      0.0209
     17  C17       63.5090  116.7830  -83.1570 C.ar  495  26Z495      0.0180
     18  C18       62.6600  116.5720  -82.0470 C.ar  495  26Z495      0.0213
     19  C19       61.6660  117.5320  -81.7310 C.ar  495  26Z495      0.1251
     20  C20       61.5180  118.7020  -82.5140 C.ar  495  26Z495      0.0213
     21  C21       62.3550  118.9140  -83.6130 C.ar  495  26Z495      0.0180
     22  O22       68.7600  115.2090  -87.2890 O.2   495  26Z495     -0.2899
     23  O23       59.4980  116.4510  -80.8600 O.2   495  26Z495     -0.1503
     24  O24       60.0780  118.5260  -79.8530 O.2   495  26Z495     -0.1503
     25  S25       66.1500  116.4970  -84.6640 S.3   495  26Z495     -0.0494
     26  S26       60.5900  117.2570  -80.3620 S.O2  495  26Z495      0.0935
@<TRIPOS>BOND
     1     3     7    1
     2    22    10    2
     3     7     1    2
     4     7     6    1
     5     1     8    2
     6    10     6    1
     7    10    11    1
     8     6    25    1
     9     8     2    1
    10     8    25    1
    11    11    12   ar
    12    11    16   ar
    13     2     9    1
    14    12    13   ar
    15    16    15   ar
    16     9    21   ar
    17     9    17   ar
    18    13    14   ar
    19    21    20   ar
    20    15    14   ar
    21    15     4    1
    22    17    18   ar
    23    20    19   ar
    24    18    19   ar
    25    19    26    1
    26    23    26    2
    27    26    24    2
    28    26     5    1
