@<TRIPOS>MOLECULE
3rpy_27Z_A_1.pdb
 20 21 0 0 0
SMALL
GASTEIGER

@<TRIPOS>ATOM
      1  C1        94.8100   79.4090  -50.3500 C.2   470  27Z470      0.2792
      2  N1        92.0210   81.7540  -51.1040 N.2   470  27Z470     -0.3641
      3  O1        85.9700   80.6000  -45.1070 O.2   470  27Z470     -0.1503
      4  S1        92.7240   80.6410  -48.8960 S.3   470  27Z470     -0.0479
      5  N2        93.5940   80.9370  -52.6470 N.pl3 470  27Z470     -0.0965
      6  O2        86.5650   83.0100  -44.1800 O.2   470  27Z470     -0.1503
      7  S2        87.1590   81.5620  -44.6400 S.O2  470  27Z470      0.0935
      8  N3        90.6290   82.3810  -49.3290 N.pl3 470  27Z470     -0.1781
      9  N4        87.9220   80.8690  -43.4730 N.3   470  27Z470      0.0392
     10  C12       93.6250   80.3140  -50.3160 C.3   470  27Z470      0.2043
     11  C13       93.1030   80.9970  -51.3970 C.2   470  27Z470      0.2177
     12  C14       91.6990   81.6690  -49.8140 C.2   470  27Z470      0.2328
     13  C15       89.8510   82.1390  -48.2220 C.ar  470  27Z470      0.0737
     14  C16       90.0270   80.9680  -47.2870 C.ar  470  27Z470      0.0180
     15  C17       89.1820   80.7890  -46.1620 C.ar  470  27Z470      0.0213
     16  C18       88.1210   81.7600  -45.9030 C.ar  470  27Z470      0.1251
     17  C19       87.9320   82.9100  -46.7980 C.ar  470  27Z470      0.0213
     18  C20       88.7780   83.0970  -47.9370 C.ar  470  27Z470      0.0180
     19  O21       95.4340   79.2110  -51.4000 O.2   470  27Z470     -0.2702
     20  N22       95.1510   78.8240  -49.2010 N.am  470  27Z470     -0.0866
@<TRIPOS>BOND
     1     5    11    1
     2    19     1    2
     3    11     2    2
     4    11    10    1
     5     2    12    2
     6     1    10    1
     7     1    20   am
     8    10     4    1
     9    12     8    1
    10    12     4    1
    11     8    13    1
    12    13    18   ar
    13    13    14   ar
    14    18    17   ar
    15    14    15   ar
    16    17    16   ar
    17    15    16   ar
    18    16     7    1
    19     3     7    2
    20     7     6    2
    21     7     9    1
