@<TRIPOS>MOLECULE
3rpz_AMP_A_1.pdb
 23 25 0 0 0
SMALL
GASTEIGER

@<TRIPOS>ATOM
      1  P          9.9140  -22.2970  -23.4030 P.3   278  AMP278      0.5327
      2  O1P        9.6600  -20.7490  -23.3290 O.2   278  AMP278     -0.2224
      3  O2P       11.3610  -22.5080  -23.1890 O.3   278  AMP278     -0.1145
      4  O3P        8.9530  -22.9500  -22.4300 O.3   278  AMP278     -0.1145
      5  O5'        9.3110  -22.6470  -24.7610 O.3   278  AMP278     -0.2675
      6  C5'        9.9950  -22.2130  -25.9990 C.3   278  AMP278      0.1860
      7  C4'        9.0430  -22.2890  -27.1410 C.3   278  AMP278      0.1823
      8  O4'        9.6710  -21.7330  -28.3430 O.3   278  AMP278     -0.3135
      9  C3'        8.5800  -23.6800  -27.5140 C.3   278  AMP278      0.2184
     10  O3'        7.3300  -23.5990  -28.1700 O.3   278  AMP278     -0.2174
     11  C2'        9.7140  -24.0430  -28.4860 C.3   278  AMP278      0.2570
     12  O2'        9.4220  -25.1970  -29.2980 O.3   278  AMP278     -0.2130
     13  C1'        9.8200  -22.7780  -29.3060 C.3   278  AMP278      0.3186
     14  N9        11.1650  -22.5810  -29.8600 N.pl3 278  AMP278     -0.1439
     15  C8        12.2390  -22.1090  -29.2140 C.3   278  AMP278      0.3377
     16  N7        13.3440  -22.0730  -30.0280 N.2   278  AMP278     -0.2095
     17  C5        12.8900  -22.5220  -31.2150 C.2   278  AMP278      0.2526
     18  C6        13.5410  -22.7770  -32.5230 C.2   278  AMP278      0.4393
     19  N6        14.8550  -22.5140  -32.6610 N.pl3 278  AMP278      0.2180
     20  N1        12.7500  -23.2670  -33.4750 N.2   278  AMP278      0.0021
     21  C2        11.4440  -23.5260  -33.3220 C.3   278  AMP278      0.5254
     22  N3        10.7740  -23.3440  -32.1420 N.2   278  AMP278     -0.0055
     23  C4        11.5140  -22.8940  -31.1710 C.2   278  AMP278      0.3518
@<TRIPOS>BOND
     1    20    21    1
     2    20    18    2
     3    21    22    1
     4    19    18    1
     5    18    17    1
     6    22    23    2
     7    17    23    1
     8    17    16    2
     9    23    14    1
    10    16    15    1
    11    14    13    1
    12    14    15    1
    13    13    11    1
    14    13     8    1
    15    12    11    1
    16    11     9    1
    17     8     7    1
    18    10     9    1
    19     9     7    1
    20     7     6    1
    21     6     5    1
    22     5     1    1
    23     1     2    2
    24     1     3    1
    25     1     4    1
