@<TRIPOS>MOLECULE
3rpz_NPW_A_1.pdb
 49 53 0 0 0
SMALL
GASTEIGER

@<TRIPOS>ATOM
      1  P         20.9800  -24.8410  -21.0880 P.3   279  NPW279      0.5328
      2  O1        21.3570  -24.4350  -19.6810 O.3   279  NPW279     -0.1145
      3  O2        20.6590  -23.7480  -22.0550 O.2   279  NPW279     -0.2224
      4  O3        21.9310  -25.8730  -21.7200 O.3   279  NPW279     -0.1145
      5  PA        14.4330  -23.4900  -16.6200 P.3   279  NPW279      0.2189
      6  PB        12.7320  -21.4510  -17.8090 P.3   279  NPW279      0.2189
      7  C1A       17.3700  -26.2710  -20.6490 C.3   279  NPW279      0.3158
      8  C1B        9.1750  -18.8080  -16.2140 C.3   279  NPW279      0.2278
      9  N1C        9.3250  -17.7850  -17.2210 N.pl3 279  NPW279     -0.2585
     10  N1D       17.5560  -27.8120  -25.5150 N.2   279  NPW279      0.0021
     11  C2A       18.4480  -25.2160  -20.4060 C.3   279  NPW279      0.2314
     12  O2A       19.6470  -25.7430  -20.9360 O.3   279  NPW279     -0.2630
     13  C2B        8.6260  -20.1430  -16.7300 C.3   279  NPW279      0.2310
     14  O2B        7.2450  -20.0970  -16.9860 O.3   279  NPW279     -0.2158
     15  C2C        8.8550  -16.5710  -17.1120 C.2   279  NPW279      0.0652
     16  C2D       18.3940  -28.0520  -24.4960 C.3   279  NPW279      0.5254
     17  C3A       18.4510  -25.0930  -18.8920 C.3   279  NPW279      0.2157
     18  O3A       19.1950  -26.1490  -18.2480 O.3   279  NPW279     -0.2175
     19  C3B        9.0060  -21.0220  -15.5210 C.3   279  NPW279      0.2158
     20  O3B        7.9880  -20.8490  -14.5260 O.3   279  NPW279     -0.2175
     21  C3C        8.9810  -15.4820  -17.8140 C.2   279  NPW279      0.0492
     22  N3D       18.3080  -27.6220  -23.2260 N.2   279  NPW279     -0.0055
     23  C4B       10.3260  -20.3900  -15.0560 C.3   279  NPW279      0.1799
     24  O4B       10.4610  -19.0860  -15.6920 O.3   279  NPW279     -0.3326
     25  C4C        9.9130  -15.5850  -19.0160 C.3   279  NPW279      0.0368
     26  C4D       17.1980  -26.8960  -23.0420 C.2   279  NPW279      0.3518
     27  O4D       16.4040  -26.0200  -19.6240 O.3   279  NPW279     -0.3136
     28  C4E       16.9770  -25.2680  -18.5810 C.3   279  NPW279      0.1820
     29  C5A       16.2600  -26.5510  -24.0530 C.2   279  NPW279      0.2526
     30  C5B       11.5570  -21.2240  -15.4230 C.3   279  NPW279      0.1813
     31  O5B       11.4950  -21.6330  -16.7910 O.3   279  NPW279     -0.3112
     32  C5C       10.8770  -16.7390  -18.8080 C.3   279  NPW279      0.0591
     33  C5E       16.2270  -23.9360  -18.5230 C.3   279  NPW279      0.1813
     34  O5E       14.9420  -24.1730  -17.9600 O.3   279  NPW279     -0.3112
     35  C6C       10.1250  -18.0530  -18.4560 C.3   279  NPW279      0.2302
     36  O6C        9.2640  -18.5050  -19.4970 O.3   279  NPW279     -0.2006
     37  C6D       16.4490  -27.0470  -25.3850 C.2   279  NPW279      0.4393
     38  N6D       15.6590  -26.8300  -26.4240 N.pl3 279  NPW279      0.2180
     39  N7A       15.2440  -25.7330  -23.5990 N.2   279  NPW279     -0.2095
     40  C7C        8.2490  -14.2740  -17.5660 C.2   279  NPW279      0.2814
     41  N7C        8.4290  -13.2430  -18.3780 N.am  279  NPW279     -0.0839
     42  O7C        7.4920  -14.1880  -16.5650 O.2   279  NPW279     -0.2670
     43  C8A       15.5660  -25.5490  -22.2610 C.3   279  NPW279      0.3377
     44  N9A       16.7500  -26.2810  -21.9710 N.pl3 279  NPW279     -0.1439
     45  OA1       15.5080  -23.3260  -15.6290 O.3   279  NPW279     -0.4371
     46  OA2       13.2940  -24.3410  -16.3550 O.2   279  NPW279     -0.5170
     47  OA3       14.0230  -21.9930  -17.0410 O.3   279  NPW279     -0.2703
     48  OB1       12.3690  -22.2420  -18.9850 O.2   279  NPW279     -0.5170
     49  OB2       13.0470  -20.0000  -17.9950 O.3   279  NPW279     -0.4371
@<TRIPOS>BOND
     1    38    37    1
     2    10    37    2
     3    10    16    1
     4    37    29    1
     5    16    22    1
     6    29    39    2
     7    29    26    1
     8    39    43    1
     9    22    26    2
    10    26    44    1
    11    43    44    1
    12     3     1    2
    13    44     7    1
    14     4     1    1
    15     1    12    1
    16     1     2    1
    17    12    11    1
    18     7    11    1
    19     7    27    1
    20    11    17    1
    21    27    28    1
    22    36    35    1
    23    25    32    1
    24    25    21    1
    25    48     6    2
    26    17    28    1
    27    17    18    1
    28    32    35    1
    29    28    33    1
    30    33    34    1
    31    35     9    1
    32    41    40   am
    33    49     6    1
    34    34     5    1
    35    21    40    1
    36    21    15    2
    37     6    47    1
    38     6    31    1
    39    40    42    2
    40     9    15    1
    41     9     8    1
    42    47     5    1
    43    14    13    1
    44    31    30    1
    45    13     8    1
    46    13    19    1
    47     5    46    2
    48     5    45    1
    49     8    24    1
    50    24    23    1
    51    19    23    1
    52    19    20    1
    53    30    23    1
