@<TRIPOS>MOLECULE
3rq0_211_A_1.pdb
 10 9 0 0 0
SMALL
GASTEIGER

@<TRIPOS>ATOM
      1  O1        34.8940   17.9670   31.2030 O.2   280  211280     -0.2868
      2  O2        39.6440   20.5870   34.0110 O.2   280  211280     -0.2868
      3  C1        36.7350   19.4060   31.6340 C.3   280  211280      0.1461
      4  C2        35.8490   18.5090   30.7510 C.2   280  211280      0.2249
      5  O3        38.3790   22.4510   28.3640 O.2   280  211280     -0.2868
      6  C3        38.9450   20.5120   31.7740 C.3   280  211280      0.1461
      7  C4        38.8240   20.1670   33.2670 C.2   280  211280      0.2249
      8  C5        37.4210   21.0440   29.9930 C.3   280  211280      0.1461
      9  C6        38.5790   21.5890   29.1460 C.2   280  211280      0.2249
     10  N1        37.8800   19.9740   30.8910 N.3   280  211280     -0.2527
@<TRIPOS>BOND
     1     5     9    2
     2     9     8    1
     3     8    10    1
     4     4     1    2
     5     4     3    1
     6    10     3    1
     7    10     6    1
     8     6     7    1
     9     7     2    2
