@<TRIPOS>MOLECULE
3rq1_AKG_C_1.pdb
 10 9 0 0 0
SMALL
GASTEIGER

@<TRIPOS>ATOM
      1  C1        -7.1000  -11.7740  103.2750 C.2   423  AKG423      0.4261
      2  O1        -7.9610  -11.3900  102.4260 O.co2 423  AKG423     -0.2369
      3  O2        -7.0610  -11.2480  104.4430 O.co2 423  AKG423     -0.2369
      4  C2        -6.1300  -12.8350  102.8420 C.2   423  AKG423      0.2749
      5  O5        -5.1900  -12.5100  102.0970 O.2   423  AKG423     -0.2795
      6  C3        -6.3100  -14.2600  103.2820 C.2   423  AKG423      0.0558
      7  C4        -5.4260  -15.2930  102.6540 C.2   423  AKG423      0.0896
      8  C5        -5.2440  -16.7070  103.1530 C.2   423  AKG423      0.3881
      9  O3        -5.5720  -17.6730  102.4210 O.co2 423  AKG423     -0.2405
     10  O4        -4.7470  -16.9890  104.2800 O.co2 423  AKG423     -0.2405
@<TRIPOS>BOND
     1     5     4    2
     2     9     8   ar
     3     2     1   ar
     4     7     8    1
     5     7     6    2
     6     4     1    1
     7     4     6    1
     8     8    10   ar
     9     1     3   ar
