@<TRIPOS>MOLECULE
3rq2_AMP_A_1.pdb
 23 25 0 0 0
SMALL
GASTEIGER

@<TRIPOS>ATOM
      1  P        -55.8670  -23.7070  -23.4250 P.3   278  AMP278      0.5327
      2  O1P      -55.7090  -25.2410  -23.3380 O.2   278  AMP278     -0.2224
      3  O2P      -57.3070  -23.3830  -23.3160 O.3   278  AMP278     -0.1145
      4  O3P      -54.9410  -23.0390  -22.4690 O.3   278  AMP278     -0.1145
      5  O5'      -55.3070  -23.3550  -24.8220 O.3   278  AMP278     -0.2675
      6  C5'      -56.0140  -23.7570  -25.9760 C.3   278  AMP278      0.1860
      7  C4'      -55.0790  -23.7100  -27.1810 C.3   278  AMP278      0.1823
      8  O4'      -55.7290  -24.2240  -28.3490 O.3   278  AMP278     -0.3135
      9  C3'      -54.6580  -22.3150  -27.6010 C.3   278  AMP278      0.2184
     10  O3'      -53.3580  -22.3240  -28.2100 O.3   278  AMP278     -0.2174
     11  C2'      -55.7410  -21.9000  -28.5780 C.3   278  AMP278      0.2570
     12  O2'      -55.3830  -20.7510  -29.3660 O.3   278  AMP278     -0.2130
     13  C1'      -55.9210  -23.1940  -29.3540 C.3   278  AMP278      0.3186
     14  N9       -57.2650  -23.3440  -29.8840 N.pl3 278  AMP278     -0.1439
     15  C8       -58.3830  -23.8160  -29.2670 C.3   278  AMP278      0.3377
     16  N7       -59.4490  -23.8510  -30.1160 N.2   278  AMP278     -0.2095
     17  C5       -58.9970  -23.3890  -31.2990 C.2   278  AMP278      0.2526
     18  C6       -59.5890  -23.1470  -32.6300 C.2   278  AMP278      0.4393
     19  N6       -60.8890  -23.4240  -32.7410 N.pl3 278  AMP278      0.2180
     20  N1       -58.7830  -22.6720  -33.6120 N.2   278  AMP278      0.0021
     21  C2       -57.4750  -22.4220  -33.4080 C.3   278  AMP278      0.5254
     22  N3       -56.8680  -22.6100  -32.2000 N.2   278  AMP278     -0.0055
     23  C4       -57.5730  -23.0910  -31.1700 C.2   278  AMP278      0.3518
@<TRIPOS>BOND
     1    20    21    1
     2    20    18    2
     3    21    22    1
     4    19    18    1
     5    18    17    1
     6    22    23    2
     7    17    23    1
     8    17    16    2
     9    23    14    1
    10    16    15    1
    11    14    13    1
    12    14    15    1
    13    12    11    1
    14    13    11    1
    15    13     8    1
    16    11     9    1
    17     8     7    1
    18    10     9    1
    19     9     7    1
    20     7     6    1
    21     6     5    1
    22     5     1    1
    23     1     2    2
    24     1     3    1
    25     1     4    1
