@<TRIPOS>MOLECULE
3rq2_NAX_A_1.pdb
 45 49 0 0 0
SMALL
GASTEIGER

@<TRIPOS>ATOM
      1  PA       -60.5860  -22.5110  -16.6100 P.3   279  NAX279      0.2189
      2  O1A      -61.8690  -22.6920  -15.8430 O.3   279  NAX279     -0.4371
      3  O2A      -59.5090  -21.7430  -15.9720 O.2   279  NAX279     -0.5170
      4  O5B      -60.8890  -21.7650  -17.9990 O.3   279  NAX279     -0.3112
      5  C5B      -61.8900  -22.1880  -18.9560 C.3   279  NAX279      0.1813
      6  C4B      -62.9220  -21.0660  -19.1160 C.3   279  NAX279      0.1821
      7  O4B      -62.3210  -19.9290  -19.7450 O.3   279  NAX279     -0.3135
      8  C3B      -64.1000  -21.4430  -19.9950 C.3   279  NAX279      0.2184
      9  O3B      -65.1030  -22.0790  -19.2070 O.3   279  NAX279     -0.2174
     10  C2B      -64.5280  -20.1110  -20.5700 C.3   279  NAX279      0.2570
     11  O2B      -65.2250  -19.3900  -19.5550 O.3   279  NAX279     -0.2130
     12  C1B      -63.1970  -19.4280  -20.7620 C.3   279  NAX279      0.3186
     13  N9A      -62.5700  -19.6160  -22.0740 N.pl3 279  NAX279     -0.1439
     14  C8A      -61.4240  -20.2830  -22.3730 C.3   279  NAX279      0.3377
     15  N7A      -61.1540  -20.2110  -23.6820 N.2   279  NAX279     -0.2095
     16  C5A      -62.1360  -19.4440  -24.2530 C.2   279  NAX279      0.2526
     17  C6A      -62.4330  -18.9380  -25.6150 C.2   279  NAX279      0.4393
     18  N6A      -61.6640  -19.2070  -26.6760 N.pl3 279  NAX279      0.2180
     19  N1A      -63.5510  -18.1990  -25.7590 N.2   279  NAX279      0.0021
     20  C2A      -64.3630  -17.9030  -24.7070 C.3   279  NAX279      0.5254
     21  N3A      -64.1690  -18.2870  -23.4210 N.2   279  NAX279     -0.0055
     22  C4A      -63.0590  -19.0670  -23.1820 C.2   279  NAX279      0.3518
     23  O3       -60.1330  -24.0110  -16.9970 O.3   279  NAX279     -0.2703
     24  PN       -58.7850  -24.4640  -17.7780 P.3   279  NAX279      0.2189
     25  O1N      -58.4490  -23.6890  -19.0290 O.2   279  NAX279     -0.5170
     26  O2N      -59.0410  -25.9520  -17.9670 O.3   279  NAX279     -0.4371
     27  O5D      -57.4850  -24.2460  -16.8140 O.3   279  NAX279     -0.3112
     28  C5D      -57.6120  -24.6950  -15.4420 C.3   279  NAX279      0.1813
     29  C4D      -56.3640  -25.5220  -15.1060 C.3   279  NAX279      0.1799
     30  O4D      -56.5210  -26.8600  -15.6750 O.3   279  NAX279     -0.3326
     31  C3D      -55.0130  -24.9680  -15.5590 C.3   279  NAX279      0.2158
     32  O3D      -53.9610  -25.0760  -14.5410 O.3   279  NAX279     -0.2175
     33  C2D      -54.6710  -25.8160  -16.7630 C.3   279  NAX279      0.2310
     34  O2D      -53.2400  -25.8870  -17.0630 O.3   279  NAX279     -0.2158
     35  C1D      -55.2300  -27.1560  -16.2270 C.3   279  NAX279      0.2278
     36  N1N      -55.3760  -28.1900  -17.2510 N.pl3 279  NAX279     -0.2585
     37  C2N      -54.8140  -29.3280  -17.0410 C.2   279  NAX279      0.0652
     38  C3N      -54.9710  -30.4010  -17.8050 C.2   279  NAX279      0.0492
     39  C7N      -54.1980  -31.6440  -17.5220 C.2   279  NAX279      0.2814
     40  O7N      -53.4460  -31.7620  -16.5240 O.2   279  NAX279     -0.2670
     41  N7N      -54.3230  -32.6300  -18.4290 N.am  279  NAX279     -0.0839
     42  C4N      -55.8840  -30.3170  -19.0660 C.3   279  NAX279      0.0368
     43  C5N      -56.9060  -29.2210  -18.8880 C.3   279  NAX279      0.0591
     44  C6N      -56.1850  -27.9250  -18.4300 C.3   279  NAX279      0.2302
     45  O6N      -55.2510  -27.5460  -19.4550 O.3   279  NAX279     -0.2006
@<TRIPOS>BOND
     1    18    17    1
     2    19    17    2
     3    19    20    1
     4    17    16    1
     5    20    21    1
     6    16    15    2
     7    16    22    1
     8    15    14    1
     9    21    22    2
    10    22    13    1
    11    14    13    1
    12    13    12    1
    13    12    10    1
    14    12     7    1
    15    10     8    1
    16    10    11    1
    17     8     9    1
    18     8     6    1
    19     7     6    1
    20    45    44    1
    21     6     5    1
    22    42    43    1
    23    42    38    1
    24    25    24    2
    25     5     4    1
    26    43    44    1
    27    44    36    1
    28    41    39   am
    29     4     1    1
    30    26    24    1
    31    38    39    1
    32    38    37    2
    33    24    23    1
    34    24    27    1
    35    39    40    2
    36    36    37    1
    37    36    35    1
    38    34    33    1
    39    23     1    1
    40    27    28    1
    41    33    35    1
    42    33    31    1
    43     1     3    2
    44     1     2    1
    45    35    30    1
    46    30    29    1
    47    31    29    1
    48    31    32    1
    49    28    29    1
