@<TRIPOS>MOLECULE
3rq5_COA_A_1.pdb
 31 33 0 0 0
SMALL
GASTEIGER

@<TRIPOS>ATOM
      1  N1A      -63.7860  -26.8330  -24.2770 N.2   277  COA277      0.0021
      2  C2A      -62.4900  -26.7720  -24.7870 C.3   277  COA277      0.5254
      3  N3A      -61.4030  -26.6750  -23.9280 N.2   277  COA277     -0.0055
      4  C4A      -61.6330  -26.6100  -22.5760 C.2   277  COA277      0.3518
      5  C5A      -62.9320  -26.6670  -22.0590 C.2   277  COA277      0.2526
      6  C6A      -64.0260  -26.8010  -22.9100 C.2   277  COA277      0.4393
      7  N6A      -65.1100  -27.4330  -22.4090 N.pl3 277  COA277      0.2180
      8  N7A      -62.8540  -26.6040  -20.7030 N.2   277  COA277     -0.2095
      9  C8A      -61.5620  -26.5030  -20.3310 C.3   277  COA277      0.3377
     10  N9A      -60.8000  -26.5030  -21.4800 N.pl3 277  COA277     -0.1439
     11  C1B      -59.3400  -26.6880  -21.4940 C.3   277  COA277      0.3185
     12  C2B      -58.6330  -25.3740  -21.1550 C.3   277  COA277      0.2543
     13  O2B      -58.3880  -24.6000  -22.3030 O.3   277  COA277     -0.2131
     14  C3B      -57.3710  -25.9190  -20.5210 C.3   277  COA277      0.1928
     15  O3B      -56.4670  -26.2990  -21.5500 O.3   277  COA277     -0.2673
     16  P3B      -54.9130  -25.9160  -21.3720 P.3   277  COA277      0.5327
     17  O7A      -54.6260  -26.1650  -19.8710 O.3   277  COA277     -0.1145
     18  O8A      -54.0480  -26.9070  -22.0680 O.2   277  COA277     -0.2224
     19  O9A      -54.7390  -24.4050  -21.6390 O.3   277  COA277     -0.1145
     20  C4B      -57.7780  -27.2000  -19.7980 C.3   277  COA277      0.1795
     21  O4B      -58.9670  -27.6170  -20.4720 O.3   277  COA277     -0.3136
     22  C5B      -57.9810  -27.0400  -18.2860 C.3   277  COA277      0.1812
     23  O5B      -59.0280  -26.1280  -18.0680 O.3   277  COA277     -0.3111
     24  P1A      -59.8490  -26.0300  -16.6850 P.3   277  COA277      0.2231
     25  O1A      -59.6630  -27.2600  -15.8060 O.3   277  COA277     -0.4370
     26  O2A      -61.3150  -25.7520  -16.9710 O.2   277  COA277     -0.5169
     27  O3A      -59.1670  -24.7960  -15.8930 O.3   277  COA277     -0.2261
     28  P2A      -58.1110  -23.7560  -16.5300 P.3   277  COA277      0.5373
     29  O4A      -57.6950  -22.9340  -15.2050 O.3   277  COA277     -0.1143
     30  O5A      -58.8260  -22.8430  -17.5180 O.2   277  COA277     -0.2221
     31  O6A      -56.8970  -24.4030  -17.1650 O.3   277  COA277     -0.1143
@<TRIPOS>BOND
     1     2     1    1
     2     2     3    1
     3     1     6    2
     4     3     4    2
     5     6     7    1
     6     6     5    1
     7     4     5    1
     8     4    10    1
     9    13    12    1
    10    18    16    2
    11     5     8    2
    12    19    16    1
    13    15    16    1
    14    15    14    1
    15    11    10    1
    16    11    12    1
    17    11    21    1
    18    10     9    1
    19    16    17    1
    20    12    14    1
    21     8     9    1
    22    14    20    1
    23    21    20    1
    24    20    22    1
    25    22    23    1
    26    23    24    1
    27    30    28    2
    28    31    28    1
    29    26    24    2
    30    24    27    1
    31    24    25    1
    32    28    27    1
    33    28    29    1
