@<TRIPOS>MOLECULE
3rq6_APR_A_1.pdb
 36 39 0 0 0
SMALL
GASTEIGER

@<TRIPOS>ATOM
      1  N1        33.2810   22.4090   33.7090 N.2   278  APR278      0.0021
      2  C2        34.6090   22.2920   33.5100 C.3   278  APR278      0.5254
      3  N3        35.1780   22.4630   32.2820 N.2   278  APR278     -0.0055
      4  C4        34.3970   22.7990   31.2410 C.2   278  APR278      0.3518
      5  C5        32.9880   22.9970   31.3680 C.2   278  APR278      0.2526
      6  C6        32.4360   22.7800   32.7230 C.2   278  APR278      0.4393
      7  N6        31.1150   22.9290   32.8460 N.pl3 278  APR278      0.2180
      8  N7        32.4450   23.3060   30.1490 N.2   278  APR278     -0.2095
      9  C8        33.5000   23.3570   29.2980 C.3   278  APR278      0.3377
     10  N9        34.6440   23.0680   29.9510 N.pl3 278  APR278     -0.1439
     11  C1'       35.9780   23.0260   29.3460 C.3   278  APR278      0.3186
     12  C2'       36.2390   21.7870   28.5190 C.3   278  APR278      0.2570
     13  O2'       36.5960   20.6490   29.3360 O.3   278  APR278     -0.2130
     14  C3'       37.3360   22.3120   27.6020 C.3   278  APR278      0.2184
     15  O3'       38.5930   22.3390   28.2730 O.3   278  APR278     -0.2174
     16  O4'       36.0780   24.1100   28.4050 O.3   278  APR278     -0.3135
     17  C4'       36.8710   23.7330   27.2380 C.3   278  APR278      0.1821
     18  C5'       35.9980   23.7720   26.0250 C.3   278  APR278      0.1813
     19  O5'       36.8220   23.5300   24.8720 O.3   278  APR278     -0.3112
     20  PA        36.1910   23.4710   23.4570 P.3   278  APR278      0.2189
     21  O1A       37.2660   22.9940   22.4880 O.2   278  APR278     -0.5170
     22  O2A       34.8190   22.8360   23.4750 O.3   278  APR278     -0.4371
     23  O3A       35.9810   25.0880   23.2060 O.3   278  APR278     -0.2703
     24  PB        36.6240   25.9260   21.9230 P.3   278  APR278      0.2189
     25  O1B       36.7770   24.9690   20.7220 O.2   278  APR278     -0.5170
     26  O2B       37.7120   26.7230   22.3620 O.3   278  APR278     -0.4371
     27  O5D       35.4350   26.9810   21.5810 O.3   278  APR278     -0.3112
     28  C5D       34.3970   26.7290   20.6270 C.3   278  APR278      0.1813
     29  O4D       34.4550   29.0440   19.8270 O.3   278  APR278     -0.3237
     30  O1D       36.0030   30.7750   20.1450 O.3   278  APR278     -0.1869
     31  C1D       35.6040   29.7130   19.3140 C.3   278  APR278      0.3023
     32  O2D       37.6990   29.0050   18.2330 O.3   278  APR278     -0.2148
     33  C2D       36.6700   28.6220   19.1520 C.3   278  APR278      0.2433
     34  O3D       35.5510   27.5190   17.2370 O.3   278  APR278     -0.2175
     35  C3D       35.8280   27.4480   18.6770 C.3   278  APR278      0.2168
     36  C4D       34.5130   27.6450   19.4290 C.3   278  APR278      0.1807
@<TRIPOS>BOND
     1    34    35    1
     2    32    33    1
     3    35    33    1
     4    35    36    1
     5    33    31    1
     6    31    29    1
     7    31    30    1
     8    36    29    1
     9    36    28    1
    10    28    27    1
    11    25    24    2
    12    27    24    1
    13    24    26    1
    14    24    23    1
    15    21    20    2
    16    23    20    1
    17    20    22    1
    18    20    19    1
    19    19    18    1
    20    18    17    1
    21    17    14    1
    22    17    16    1
    23    14    15    1
    24    14    12    1
    25    16    11    1
    26    12    13    1
    27    12    11    1
    28     9    10    1
    29     9     8    1
    30    11    10    1
    31    10     4    1
    32     8     5    2
    33     4     5    1
    34     4     3    2
    35     5     6    1
    36     3     2    1
    37     6     7    1
    38     6     1    2
    39     2     1    1
