@<TRIPOS>MOLECULE
3rq8_AP5_A_2.pdb
 27 29 0 0 0
SMALL
GASTEIGER

@<TRIPOS>ATOM
      1  PA       -15.1060  -15.4860   -6.1110 P.3   279  AP5279      0.2231
      2  O1A      -15.8040  -16.6510   -5.4400 O.3   279  AP5279     -0.4370
      3  O2A      -15.8170  -14.1800   -5.8130 O.2   279  AP5279     -0.5169
      4  O3A      -13.5500  -15.5010   -5.6670 O.3   279  AP5279     -0.2261
      5  PB       -13.0020  -15.5190   -4.1390 P.3   279  AP5279      0.5373
      6  O1B      -12.3830  -16.8820   -3.8140 O.3   279  AP5279     -0.1143
      7  O2B      -14.0750  -15.1510   -3.1210 O.3   279  AP5279     -0.1143
      8  O3B      -11.8800  -14.3550   -4.2340 O.2   279  AP5279     -0.2221
      9  O5F      -15.0450  -15.7600   -7.7090 O.3   279  AP5279     -0.3111
     10  C5F      -14.1840  -15.0800   -8.6000 C.3   279  AP5279      0.1813
     11  C4F      -13.8470  -15.9800   -9.7900 C.3   279  AP5279      0.1821
     12  O4F      -13.0760  -17.0960   -9.3640 O.3   279  AP5279     -0.3135
     13  C3F      -15.0800  -16.5420  -10.4660 C.3   279  AP5279      0.2184
     14  O3F      -14.8780  -16.5360  -11.8550 O.3   279  AP5279     -0.2174
     15  C2F      -15.1760  -17.9480   -9.8980 C.3   279  AP5279      0.2570
     16  O2F      -15.8000  -18.8550  -10.7660 O.3   279  AP5279     -0.2130
     17  C1F      -13.7290  -18.3270   -9.6270 C.3   279  AP5279      0.3186
     18  N9A      -13.6810  -19.2900   -8.5000 N.pl3 279  AP5279     -0.1439
     19  C8A      -13.9350  -19.0280   -7.1710 C.3   279  AP5279      0.3377
     20  N7A      -13.8010  -20.1920   -6.4710 N.2   279  AP5279     -0.2095
     21  C5A      -13.4670  -21.1930   -7.3250 C.2   279  AP5279      0.2526
     22  C6A      -13.2260  -22.5590   -7.1400 C.2   279  AP5279      0.4393
     23  N6A      -13.3680  -23.1590   -5.9570 N.pl3 279  AP5279      0.2180
     24  N1A      -12.9130  -23.3240   -8.2410 N.2   279  AP5279      0.0021
     25  C2A      -12.8210  -22.7640   -9.5090 C.3   279  AP5279      0.5254
     26  N3A      -13.0630  -21.4160   -9.6860 N.2   279  AP5279     -0.0055
     27  C4A      -13.3850  -20.6380   -8.6090 C.2   279  AP5279      0.3518
@<TRIPOS>BOND
     1    14    13    1
     2    16    15    1
     3    13    15    1
     4    13    11    1
     5    15    17    1
     6    11    12    1
     7    11    10    1
     8    26    25    1
     9    26    27    2
    10    17    12    1
    11    17    18    1
    12    25    24    1
    13    27    18    1
    14    27    21    1
    15    10     9    1
    16    18    19    1
    17    24    22    2
    18     9     1    1
    19    21    22    1
    20    21    20    2
    21    19    20    1
    22    22    23    1
    23     1     3    2
    24     1     4    1
    25     1     2    1
    26     4     5    1
    27     8     5    2
    28     5     6    1
    29     5     7    1
