@<TRIPOS>MOLECULE
3rqd_III_C_1.pdb
 32 34 0 0 0
SMALL
GASTEIGER

@<TRIPOS>ATOM
      1  C2         1.3440  -35.7690   17.7730 C.3     1  02G1        0.1697
      2  C7         2.2860  -30.8760   19.4070 C.3     1  02G1        0.0733
      3  C6         1.9340  -31.9470   20.4840 C.3     1  02G1        0.0383
      4  C5         2.3040  -33.3280   19.9840 C.2     1  02G1       -0.0262
      5  C4         1.4290  -34.3310   19.7460 C.2     1  02G1        0.0133
      6  C3         1.7910  -35.7120   19.2300 C.3     1  02G1        0.2071
      7  C1         1.7200  -37.0490   17.0590 C.1     1  02G1        0.1305
      8  O2         1.1880  -36.7840   19.9530 O.3     1  02G1       -0.4452
      9  O1         2.4680  -37.8670   17.5340 O.2     1  02G1       -0.2269
     10  S          2.2780  -29.2030   20.1600 S.3     1  02G1       -0.0818
     11  N          0.8440  -37.3790   16.0690 N.2     2  GLY2       -0.1979
     12  CA         1.0660  -38.5860   15.2670 C.3     2  GLY2        0.2024
     13  C          0.4460  -39.7590   15.9930 C.2     2  GLY2        0.1599
     14  N         -0.1740  -39.5620   17.1380 N.2     3  CYS3       -0.3994
     15  CA        -0.6550  -40.7390   17.6740 C.2     3  CYS3        0.1434
     16  C         -1.3720  -40.7660   18.9660 C.2     3  CYS3        0.1287
     17  CB        -0.3860  -41.8300   16.8760 C.3     3  CYS3        0.1252
     18  SG         0.4920  -41.3670   15.4460 S.3     3  CYS3       -0.0771
     19  CB        -2.3540  -41.4420   21.2470 C.3     4  CYS4        0.1019
     20  C         -0.8260  -39.5580   21.8640 C.1     4  CYS4        0.1466
     21  CA        -2.0660  -39.9390   21.0390 C.3     4  CYS4        0.1868
     22  CM        -3.2910  -39.0860   21.4530 C.3     4  CYS4        0.0424
     23  N         -1.6640  -39.6750   19.6190 N.2     4  CYS4       -0.2492
     24  O         -0.6990  -39.8340   23.0360 O.2     4  CYS4       -0.2252
     25  SG        -1.4180  -42.2090   19.9200 S.3     4  CYS4       -0.0900
     26  N          0.0730  -38.7700   21.2120 N.2     5  VAL5       -0.1953
     27  CA         1.2920  -38.2890   21.8710 C.3     5  VAL5        0.2124
     28  C          1.7080  -36.9780   21.2080 C.2     5  VAL5        0.3406
     29  O          2.7050  -36.4040   21.5840 O.2     5  VAL5       -0.2479
     30  CB         2.4290  -39.3120   21.7540 C.3     5  VAL5        0.0342
     31  CG1        2.1570  -40.5990   22.5530 C.3     5  VAL5        0.0026
     32  CG2        2.6420  -39.6580   20.2710 C.3     5  VAL5        0.0026
@<TRIPOS>BOND
     1    12    13    1
     2    12    11    1
     3    18    13    1
     4    18    17    1
     5    13    14    2
     6    11     7    2
     7    17    15    1
     8     7     9    2
     9     7     1    1
    10    14    15    2
    11    15    16    1
    12     1     6    1
    13    16    23    2
    14    16    25    1
    15     6     5    1
    16     6     8    1
    17     2    10    1
    18     2     3    1
    19    23    21    1
    20     5     4    2
    21    25    19    1
    22     8    28    1
    23     4     3    1
    24    32    30    1
    25    21    19    1
    26    21    22    1
    27    21    20    1
    28    28    29    2
    29    28    27    1
    30    26    20    2
    31    26    27    1
    32    30    27    1
    33    30    31    1
    34    20    24    2
