@<TRIPOS>MOLECULE
3rqh_B6P_A_1.pdb
 39 41 0 0 0
SMALL
GASTEIGER

@<TRIPOS>ATOM
      1  N1        12.5680   23.4050   33.6140 N.2   278  B6P278      0.0021
      2  C2        11.2500   23.5810   33.4210 C.3   278  B6P278      0.5254
      3  N3        10.6780   23.3630   32.2110 N.2   278  B6P278     -0.0055
      4  C4        11.4570   22.9660   31.1870 C.2   278  B6P278      0.3518
      5  C5        12.8090   22.7250   31.3520 C.2   278  B6P278      0.2526
      6  C6        13.3630   22.9750   32.6030 C.2   278  B6P278      0.4393
      7  N6        14.6790   22.7930   32.7610 N.pl3 278  B6P278      0.2180
      8  N7        13.3290   22.3510   30.1260 N.2   278  B6P278     -0.2095
      9  C8        12.2710   22.3200   29.2610 C.3   278  B6P278      0.3377
     10  N9        11.1520   22.7000   29.8980 N.pl3 278  B6P278     -0.1439
     11  PA         9.6440   22.5910   23.5160 P.3   278  B6P278      0.2189
     12  PB         9.2820   20.0080   21.9040 P.3   278  B6P278      0.2237
     13  PD        10.5740   20.3230   17.6620 P.3   278  B6P278      0.2277
     14  PE        13.2890   21.3560   17.7390 P.3   278  B6P278      0.5373
     15  PG        11.5120   19.4050   20.2600 P.3   278  B6P278      0.2237
     16  C11        9.7810   22.7980   29.3630 C.3   278  B6P278      0.3186
     17  O1A       10.9990   23.2180   23.5830 O.3   278  B6P278     -0.4371
     18  O1B        8.8500   20.9120   20.7840 O.2   278  B6P278     -0.5168
     19  O1D        9.1810   20.9630   17.5500 O.3   278  B6P278     -0.4368
     20  O1E       13.5490   19.9100   17.3390 O.3   278  B6P278     -0.1143
     21  O1G       11.9460   20.8500   20.5800 O.3   278  B6P278     -0.4369
     22  C21        9.5360   24.0470   28.5660 C.3   278  B6P278      0.2570
     23  O21        9.2250   25.1990   29.3790 O.3   278  B6P278     -0.2130
     24  O2A        8.6070   23.1400   22.5430 O.2   278  B6P278     -0.5170
     25  O2B        8.2250   19.0270   22.3170 O.3   278  B6P278     -0.4369
     26  O2D       11.0520   19.3880   16.5470 O.2   278  B6P278     -0.5168
     27  O2E       13.8190   21.7580   19.1140 O.3   278  B6P278     -0.1143
     28  O2G       12.6120   18.3400   20.1940 O.2   278  B6P278     -0.5168
     29  C31        8.4270   23.5370   27.6400 C.3   278  B6P278      0.2184
     30  O31        7.1450   23.5470   28.2830 O.3   278  B6P278     -0.2174
     31  O3A        9.8840   20.9640   23.1320 O.3   278  B6P278     -0.2701
     32  O3B       10.4780   19.0290   21.4520 O.3   278  B6P278     -0.2699
     33  O3D       11.6670   21.4980   17.9510 O.3   278  B6P278     -0.2258
     34  O3E       13.6760   22.3280   16.6380 O.2   278  B6P278     -0.2221
     35  O3G       10.5260   19.3390   18.9690 O.3   278  B6P278     -0.2698
     36  C41        8.8590   22.0980   27.2720 C.3   278  B6P278      0.1821
     37  O41        9.6310   21.7270   28.4020 O.3   278  B6P278     -0.3135
     38  C51        9.7760   22.0540   26.0500 C.3   278  B6P278      0.1813
     39  O51        8.9530   22.4150   24.9420 O.3   278  B6P278     -0.3112
@<TRIPOS>BOND
     1    26    13    2
     2    34    14    2
     3    20    14    1
     4    19    13    1
     5    13    33    1
     6    13    35    1
     7    14    33    1
     8    14    27    1
     9    35    15    1
    10    28    15    2
    11    15    21    1
    12    15    32    1
    13    18    12    2
    14    32    12    1
    15    12    25    1
    16    12    31    1
    17    24    11    2
    18    31    11    1
    19    11    17    1
    20    11    39    1
    21    39    38    1
    22    38    36    1
    23    36    29    1
    24    36    37    1
    25    29    30    1
    26    29    22    1
    27    37    16    1
    28    22    16    1
    29    22    23    1
    30     9    10    1
    31     9     8    1
    32    16    10    1
    33    10     4    1
    34     8     5    2
    35     4     5    1
    36     4     3    2
    37     5     6    1
    38     3     2    1
    39     6     7    1
    40     6     1    2
    41     2     1    1
