@<TRIPOS>MOLECULE
3rqi_CIT_A_1.pdb
 13 12 0 0 0
SMALL
GASTEIGER

@<TRIPOS>ATOM
      1  C1        21.7910   -1.3590   25.1070 C.2   182  CIT182      0.3680
      2  O1        20.8220   -0.9430   24.4220 O.co2 182  CIT182     -0.2455
      3  O2        21.6930   -1.2790   26.3480 O.co2 182  CIT182     -0.2455
      4  C2        23.0330   -1.9410   24.4440 C.3   182  CIT182      0.1560
      5  C3        22.7590   -2.1640   22.9410 C.3   182  CIT182      0.2402
      6  O7        22.4030   -0.8710   22.3560 O.3   182  CIT182     -0.2129
      7  C4        24.0100   -2.6640   22.2100 C.3   182  CIT182      0.1560
      8  C5        23.7860   -3.1630   20.7970 C.2   182  CIT182      0.3680
      9  O3        24.5040   -4.1370   20.4360 O.co2 182  CIT182     -0.2455
     10  O4        22.9480   -2.6490   19.9770 O.co2 182  CIT182     -0.2455
     11  C6        21.5960   -3.1440   22.8340 C.2   182  CIT182      0.3927
     12  O5        21.6110   -4.2850   23.3830 O.co2 182  CIT182     -0.2429
     13  O6        20.5990   -2.7910   22.1820 O.co2 182  CIT182     -0.2429
@<TRIPOS>BOND
     1    10     8   ar
     2     9     8   ar
     3     8     7    1
     4    13    11   ar
     5     7     5    1
     6     6     5    1
     7    11     5    1
     8    11    12   ar
     9     5     4    1
    10     2     1   ar
    11     4     1    1
    12     1     3   ar
