@<TRIPOS>MOLECULE
3rqj_H4B_A_1.pdb
 17 18 0 0 0
SMALL
GASTEIGER

@<TRIPOS>ATOM
      1  N1         9.8460    2.5570   33.6780 N.2   760  H4B760     -0.2683
      2  C2         9.9930    2.2000   32.3870 C.1   760  H4B760      0.2608
      3  N2        11.2450    2.0800   31.8410 N.pl3 760  H4B760     -0.0220
      4  N3         8.9110    1.9720   31.6170 N.2   760  H4B760     -0.2474
      5  C4         7.6690    2.0920   32.1350 C.1   760  H4B760      0.2441
      6  O4         6.6970    1.8400   31.3860 O.2   760  H4B760     -0.2063
      7  C4A        7.4970    2.4810   33.4620 C.2   760  H4B760      0.2463
      8  C8A        8.6300    2.7250   34.2340 C.1   760  H4B760      0.1270
      9  N5         6.2720    2.6190   34.0600 N.2   760  H4B760     -0.2460
     10  N8         8.5440    3.1050   35.5280 N.2   760  H4B760     -0.2054
     11  C6         6.1940    3.5110   35.2140 C.3   760  H4B760      0.1627
     12  C7         7.2710    3.2310   36.2360 C.3   760  H4B760      0.1643
     13  C9         4.7970    3.5760   35.8390 C.3   760  H4B760      0.2063
     14  O9         4.3850    2.2610   36.2330 O.3   760  H4B760     -0.2183
     15  C10        4.7410    4.5120   37.0380 C.3   760  H4B760      0.1842
     16  C11        3.2760    4.6650   37.4450 C.3   760  H4B760      0.0383
     17  O10        5.2080    5.8150   36.6630 O.3   760  H4B760     -0.2204
@<TRIPOS>BOND
     1     6     5    2
     2     4     5    2
     3     4     2    2
     4     3     2    1
     5     5     7    1
     6     2     1    2
     7     7     9    2
     8     7     8    1
     9     1     8    2
    10     9    11    1
    11     8    10    2
    12    11    13    1
    13    11    12    1
    14    10    12    1
    15    13    14    1
    16    13    15    1
    17    17    15    1
    18    15    16    1
