@<TRIPOS>MOLECULE
3rqj_Y2B_A_1.pdb
 28 31 0 0 0
SMALL
GASTEIGER

@<TRIPOS>ATOM
      1  N01        5.0810    5.9470   26.8130 N.2   800  Y2B800     -0.3924
      2  C02        4.7100    7.1640   27.3140 C.2   800  Y2B800      0.2001
      3  N02        5.6030    8.2120   27.2890 N.pl3 800  Y2B800     -0.0977
      4  C03        3.4120    7.3120   27.8460 C.3   800  Y2B800      0.1001
      5  C04        2.5290    6.2150   27.8530 C.2   800  Y2B800     -0.0332
      6  C05        2.9570    4.9900   27.3260 C.2   800  Y2B800      0.0196
      7  C06        4.2540    4.8710   26.8130 C.2   800  Y2B800      0.1098
      8  C07        1.1210    6.3250   28.4160 C.3   800  Y2B800      0.0269
      9  C08        4.7530    3.5530   26.2500 C.3   800  Y2B800      0.0629
     10  O09        6.2510    1.2560   25.8570 O.3   800  Y2B800     -0.3532
     11  N1'        6.6630    1.5800   28.7230 N.3   800  Y2B800     -0.2154
     12  C10        6.7450    0.0480   25.2950 C.3   800  Y2B800      0.1608
     13  C11        7.6770    0.5200   24.1950 C.3   800  Y2B800      0.1206
     14  N12        9.0260    0.1120   24.4880 N.3   800  Y2B800     -0.2165
     15  C13       10.0370    0.4850   23.5300 C.3   800  Y2B800      0.0773
     16  C14       11.2870    0.7880   24.3320 C.3   800  Y2B800      0.0398
     17  C15       10.3650    1.9260   23.9190 C.3   800  Y2B800      0.0235
     18  C2'        6.0630    2.8660   28.3470 C.3   800  Y2B800      0.0916
     19  C21       12.5570    0.8620   23.5650 C.ar  800  Y2B800     -0.0189
     20  C22       12.6940    1.7530   22.5070 C.ar  800  Y2B800      0.0254
     21  C23       13.9060    1.7760   21.8500 C.ar  800  Y2B800      0.1398
     22  F23       14.0320    2.5960   20.7770 F     800  Y2B800     -0.2042
     23  C24       14.9510    0.9420   22.2560 C.ar  800  Y2B800      0.0296
     24  C25       14.8500    0.0600   23.3430 C.ar  800  Y2B800      0.0020
     25  C26       13.6190    0.0500   23.9720 C.ar  800  Y2B800     -0.0041
     26  C3'        4.9310    2.5120   27.3690 C.3   800  Y2B800      0.0531
     27  C4'        5.2910    1.0980   26.9030 C.3   800  Y2B800      0.1343
     28  C5'        5.9990    0.4510   28.1000 C.3   800  Y2B800      0.1182
@<TRIPOS>BOND
     1    22    21    1
     2    21    23   ar
     3    21    20   ar
     4    23    24   ar
     5    20    19   ar
     6    24    25   ar
     7    15    17    1
     8    15    16    1
     9    15    14    1
    10    19    25   ar
    11    19    16    1
    12    17    16    1
    13    13    14    1
    14    13    12    1
    15    12    10    1
    16    10    27    1
    17     9     7    1
    18     9    26    1
    19     7     1    2
    20     7     6    1
    21     1     2    2
    22    27    26    1
    23    27    28    1
    24     3     2    1
    25     2     4    1
    26     6     5    2
    27    26    18    1
    28     4     5    1
    29     5     8    1
    30    28    11    1
    31    18    11    1
