@<TRIPOS>MOLECULE
3rqj_HEM_A_1.pdb
 43 50 0 0 0
SMALL
GASTEIGER

@<TRIPOS>ATOM
      1  CHA       12.9850    4.7470   26.4760 C.2   750  HEM750      0.0000
      2  CHB       16.8050    1.8060   26.1070 C.2   750  HEM750      0.0000
      3  CHC       17.7360    3.6300   21.7360 C.2   750  HEM750      0.0000
      4  CHD       14.6780    7.3130   22.6670 C.2   750  HEM750      0.0000
      5  C1A       13.8340    3.6960   26.6070 C.2   750  HEM750      0.0000
      6  C2A       13.6160    2.6120   27.5340 C.2   750  HEM750      0.0000
      7  C3A       14.6460    1.7730   27.4620 C.2   750  HEM750      0.0000
      8  C4A       15.5830    2.3230   26.4720 C.2   750  HEM750      0.0000
      9  CMA       14.8200    0.4520   28.2840 C.3   750  HEM750      0.0000
     10  CAA       12.3370    2.4840   28.3850 C.3   750  HEM750      0.0000
     11  CBA       11.3220    1.8540   27.4310 C.3   750  HEM750      0.0000
     12  CGA       10.0700    1.4590   28.1710 C.2   750  HEM750      0.0000
     13  O1A       10.1820    1.1280   29.3770 O.co2 750  HEM750      0.0000
     14  O2A        8.9780    1.4810   27.5510 O.co2 750  HEM750      0.0000
     15  C1B       17.3590    1.9990   24.8780 C.ar  750  HEM750      0.0000
     16  C2B       18.4290    1.2030   24.3060 C.ar  750  HEM750      0.0000
     17  C3B       18.6830    1.7030   23.1050 C.ar  750  HEM750      0.0000
     18  C4B       17.8140    2.8460   22.8680 C.ar  750  HEM750      0.0000
     19  CMB       19.1190   -0.0240   24.9580 C.3   750  HEM750      0.0000
     20  CAB       19.7280    1.1030   22.1520 C.2   750  HEM750      0.0000
     21  CBB       20.4170    1.8630   21.3100 C.2   750  HEM750      0.0000
     22  C1C       16.9420    4.7710   21.5610 C.2   750  HEM750      0.0000
     23  C2C       16.9020    5.5910   20.3710 C.2   750  HEM750      0.0000
     24  C3C       16.0710    6.6360   20.6320 C.2   750  HEM750      0.0000
     25  C4C       15.5670    6.4980   21.9890 C.2   750  HEM750      0.0000
     26  CMC       17.6910    5.2480   19.0790 C.3   750  HEM750      0.0000
     27  CAC       15.6670    7.8180   19.7210 C.2   750  HEM750      0.0000
     28  CBC       16.2520    8.0080   18.5360 C.2   750  HEM750      0.0000
     29  C1D       13.8540    6.9450   23.7350 C.ar  750  HEM750      0.0000
     30  C2D       12.6850    7.6560   24.1980 C.ar  750  HEM750      0.0000
     31  C3D       12.1650    6.8630   25.3910 C.ar  750  HEM750      0.0000
     32  C4D       13.0650    5.7440   25.5220 C.ar  750  HEM750      0.0000
     33  CMD       12.1350    8.9890   23.6290 C.3   750  HEM750      0.0000
     34  CAD       10.8980    7.1580   26.2210 C.3   750  HEM750      0.0000
     35  CBD        9.8320    6.4110   25.4040 C.3   750  HEM750      0.0000
     36  CGD        8.4600    6.6070   25.9970 C.2   750  HEM750      0.0000
     37  O1D        8.2300    7.6340   26.6930 O.co2 750  HEM750      0.0000
     38  O2D        7.6350    5.6980   25.7560 O.co2 750  HEM750      0.0000
     39  NA        15.1010    3.5530   26.0370 N.2   750  HEM750      0.0000
     40  NB        17.0710    3.0650   24.0190 N.ar  750  HEM750      0.0000
     41  NC        16.1350    5.3840   22.5100 N.2   750  HEM750      0.0000
     42  ND        14.0700    5.8650   24.5940 N.ar  750  HEM750      0.0000
     43 FE         15.7040    4.5460   24.3870 Fe    750  HEM750      0.0000
@<TRIPOS>BOND
     1    28    27    2
     2    26    23    1
     3    27    24    1
     4    23    24    2
     5    23    22    1
     6    24    25    1
     7    21    20    2
     8    22     3    2
     9    22    41    1
    10     3    18    1
    11    25    41    2
    12    25     4    1
    13    20    17    1
    14    41    43    1
    15     4    29    2
    16    18    17   ar
    17    18    40   ar
    18    17    16   ar
    19    33    30    1
    20    29    30   ar
    21    29    42   ar
    22    40    43    1
    23    40    15   ar
    24    30    31   ar
    25    16    15   ar
    26    16    19    1
    27    43    42    1
    28    43    39    1
    29    42    32   ar
    30    15     2    1
    31    31    32   ar
    32    31    34    1
    33    35    36    1
    34    35    34    1
    35    32     1    2
    36    38    36   ar
    37    36    37   ar
    38    39     8    1
    39    39     5    2
    40     2     8    2
    41     8     7    1
    42     1     5    1
    43     5     6    1
    44    11    12    1
    45    11    10    1
    46     7     6    2
    47     7     9    1
    48     6    10    1
    49    14    12   ar
    50    12    13   ar
