@<TRIPOS>MOLECULE
3rqk_X2C_A_1.pdb
 28 31 0 0 0
SMALL
GASTEIGER

@<TRIPOS>ATOM
      1  N01        5.1380    5.8960   26.7470 N.2   800  X2C800     -0.3924
      2  C02        4.7960    7.1130   27.2660 C.2   800  X2C800      0.2001
      3  N02        5.6920    8.1480   27.2890 N.pl3 800  X2C800     -0.0977
      4  C03        3.4980    7.3040   27.7580 C.3   800  X2C800      0.1001
      5  C04        2.5780    6.2460   27.7390 C.2   800  X2C800     -0.0332
      6  C05        2.9660    5.0090   27.2150 C.2   800  X2C800      0.0196
      7  C06        4.2590    4.8550   26.7090 C.2   800  X2C800      0.1098
      8  C07        1.1740    6.4330   28.2760 C.3   800  X2C800      0.0269
      9  C08        4.6860    3.5060   26.1450 C.3   800  X2C800      0.0629
     10  O09        6.2030    1.2140   25.7810 O.3   800  X2C800     -0.3532
     11  N1'        6.7240    1.7470   28.5120 N.3   800  X2C800     -0.2154
     12  C10        6.7520   -0.0360   25.3740 C.3   800  X2C800      0.1608
     13  C11        7.7510    0.2850   24.2740 C.3   800  X2C800      0.1206
     14  N12        9.1140    0.2840   24.7890 N.3   800  X2C800     -0.2165
     15  C13       10.1420    0.6850   23.8800 C.3   800  X2C800      0.0773
     16  C14       11.2840   -0.3320   23.9440 C.3   800  X2C800      0.0397
     17  C15       10.2210   -0.4160   22.8360 C.3   800  X2C800      0.0235
     18  C2'        5.8900    2.9270   28.2970 C.3   800  X2C800      0.0916
     19  C21       12.6300    0.1480   23.4450 C.ar  800  X2C800     -0.0214
     20  C22       12.7450    1.1330   22.4540 C.ar  800  X2C800     -0.0085
     21  C23       13.9910    1.5470   22.0050 C.ar  800  X2C800     -0.0222
     22  C24       15.1380    0.9730   22.5360 C.ar  800  X2C800     -0.0043
     23  C25       15.0680   -0.0080   23.5370 C.ar  800  X2C800     -0.0006
     24  C26       13.8020   -0.3950   23.9820 C.ar  800  X2C800     -0.0043
     25  C27       14.0400    2.5870   20.9070 C.3   800  X2C800      0.0310
     26  C3'        4.8220    2.4830   27.2810 C.3   800  X2C800      0.0531
     27  C4'        5.2630    1.0860   26.8460 C.3   800  X2C800      0.1343
     28  C5'        6.0330    0.5460   28.0530 C.3   800  X2C800      0.1182
@<TRIPOS>BOND
     1    25    21    1
     2    21    20   ar
     3    21    22   ar
     4    20    19   ar
     5    22    23   ar
     6    17    15    1
     7    17    16    1
     8    19    16    1
     9    19    24   ar
    10    23    24   ar
    11    15    16    1
    12    15    14    1
    13    13    14    1
    14    13    12    1
    15    12    10    1
    16    10    27    1
    17     9     7    1
    18     9    26    1
    19     7     1    2
    20     7     6    1
    21     1     2    2
    22    27    26    1
    23    27    28    1
    24     6     5    2
    25     2     3    1
    26     2     4    1
    27    26    18    1
    28     5     4    1
    29     5     8    1
    30    28    11    1
    31    18    11    1
