@<TRIPOS>MOLECULE
3rqk_HEM_A_1.pdb
 43 50 0 0 0
SMALL
GASTEIGER

@<TRIPOS>ATOM
      1  CHA       12.9690    4.7490   26.4190 C.2   750  HEM750      0.0000
      2  CHB       16.9330    2.0360   26.2140 C.2   750  HEM750      0.0000
      3  CHC       17.8620    3.6240   21.7150 C.2   750  HEM750      0.0000
      4  CHD       14.9270    7.3630   22.7840 C.2   750  HEM750      0.0000
      5  C1A       13.8550    3.7300   26.6420 C.2   750  HEM750      0.0000
      6  C2A       13.6450    2.6140   27.5120 C.2   750  HEM750      0.0000
      7  C3A       14.7300    1.8400   27.4540 C.2   750  HEM750      0.0000
      8  C4A       15.6650    2.4720   26.5420 C.2   750  HEM750      0.0000
      9  CMA       14.9710    0.5170   28.2430 C.3   750  HEM750      0.0000
     10  CAA       12.3620    2.3470   28.3200 C.3   750  HEM750      0.0000
     11  CBA       11.2330    2.1190   27.3090 C.3   750  HEM750      0.0000
     12  CGA        9.9850    1.6010   28.0010 C.2   750  HEM750      0.0000
     13  O1A       10.0130    1.3910   29.2540 O.co2 750  HEM750      0.0000
     14  O2A        8.9550    1.4180   27.3090 O.co2 750  HEM750      0.0000
     15  C1B       17.4860    2.1460   24.9530 C.ar  750  HEM750      0.0000
     16  C2B       18.5620    1.3390   24.4270 C.ar  750  HEM750      0.0000
     17  C3B       18.8170    1.7500   23.1850 C.ar  750  HEM750      0.0000
     18  C4B       17.9670    2.8900   22.8930 C.ar  750  HEM750      0.0000
     19  CMB       19.2330    0.1480   25.1570 C.3   750  HEM750      0.0000
     20  CAB       19.8930    1.0760   22.2970 C.2   750  HEM750      0.0000
     21  CBB       20.4640    1.7030   21.2650 C.2   750  HEM750      0.0000
     22  C1C       17.0640    4.7650   21.5510 C.2   750  HEM750      0.0000
     23  C2C       16.9230    5.5800   20.3480 C.2   750  HEM750      0.0000
     24  C3C       16.1170    6.6040   20.6890 C.2   750  HEM750      0.0000
     25  C4C       15.7170    6.4820   22.0590 C.2   750  HEM750      0.0000
     26  CMC       17.5520    5.2670   18.9480 C.3   750  HEM750      0.0000
     27  CAC       15.6330    7.7560   19.8130 C.2   750  HEM750      0.0000
     28  CBC       16.4660    8.2320   18.8900 C.2   750  HEM750      0.0000
     29  C1D       14.0570    6.9900   23.7990 C.ar  750  HEM750      0.0000
     30  C2D       12.8850    7.7100   24.2000 C.ar  750  HEM750      0.0000
     31  C3D       12.3010    6.8820   25.3250 C.ar  750  HEM750      0.0000
     32  C4D       13.1600    5.7430   25.4770 C.ar  750  HEM750      0.0000
     33  CMD       12.3270    9.0560   23.6640 C.3   750  HEM750      0.0000
     34  CAD       11.0090    7.1800   26.1020 C.3   750  HEM750      0.0000
     35  CBD        9.9310    6.4400   25.2920 C.3   750  HEM750      0.0000
     36  CGD        8.5740    6.6340   25.9240 C.2   750  HEM750      0.0000
     37  O1D        8.3220    7.7400   26.5090 O.co2 750  HEM750      0.0000
     38  O2D        7.7600    5.6580   25.8480 O.co2 750  HEM750      0.0000
     39  NA        15.1260    3.6600   26.1260 N.2   750  HEM750      0.0000
     40  NB        17.2190    3.1470   24.0250 N.ar  750  HEM750      0.0000
     41  NC        16.3260    5.3800   22.5460 N.2   750  HEM750      0.0000
     42  ND        14.2290    5.8800   24.6190 N.ar  750  HEM750      0.0000
     43 FE         15.7890    4.5780   24.3830 Fe    750  HEM750      0.0000
@<TRIPOS>BOND
     1    28    27    2
     2    26    23    1
     3    27    24    1
     4    23    24    2
     5    23    22    1
     6    24    25    1
     7    21    20    2
     8    22     3    2
     9    22    41    1
    10     3    18    1
    11    25    41    2
    12    25     4    1
    13    20    17    1
    14    41    43    1
    15     4    29    2
    16    18    17   ar
    17    18    40   ar
    18    17    16   ar
    19    33    30    1
    20    29    30   ar
    21    29    42   ar
    22    40    43    1
    23    40    15   ar
    24    30    31   ar
    25    43    42    1
    26    43    39    1
    27    16    15   ar
    28    16    19    1
    29    42    32   ar
    30    15     2    1
    31    35    36    1
    32    35    34    1
    33    31    32   ar
    34    31    34    1
    35    32     1    2
    36    38    36   ar
    37    36    37   ar
    38    39     8    1
    39    39     5    2
    40     2     8    2
    41     1     5    1
    42     8     7    1
    43     5     6    1
    44    11    12    1
    45    11    10    1
    46    14    12   ar
    47     7     6    2
    48     7     9    1
    49     6    10    1
    50    12    13   ar
