@<TRIPOS>MOLECULE
3rqk_H4B_A_1.pdb
 17 18 0 0 0
SMALL
GASTEIGER

@<TRIPOS>ATOM
      1  N1         9.9600    2.5450   33.5950 N.2   760  H4B760     -0.2683
      2  C2        10.0590    2.2330   32.2860 C.1   760  H4B760      0.2608
      3  N2        11.2610    2.1210   31.6670 N.pl3 760  H4B760     -0.0220
      4  N3         8.9430    2.0420   31.5470 N.2   760  H4B760     -0.2474
      5  C4         7.7210    2.1300   32.0680 C.1   760  H4B760      0.2441
      6  O4         6.7690    1.9130   31.2790 O.2   760  H4B760     -0.2063
      7  C4A        7.5900    2.4710   33.4280 C.2   760  H4B760      0.2463
      8  C8A        8.7620    2.6720   34.1860 C.1   760  H4B760      0.1270
      9  N5         6.3810    2.5820   34.0540 N.2   760  H4B760     -0.2460
     10  N8         8.6960    2.9790   35.5180 N.2   760  H4B760     -0.2054
     11  C6         6.3020    3.4350   35.2320 C.3   760  H4B760      0.1627
     12  C7         7.3950    3.0860   36.2210 C.3   760  H4B760      0.1643
     13  C9         4.8910    3.4950   35.8420 C.3   760  H4B760      0.2063
     14  O9         4.4480    2.1860   36.2440 O.3   760  H4B760     -0.2183
     15  C10        4.8590    4.4090   37.0420 C.3   760  H4B760      0.1842
     16  C11        3.4420    4.7740   37.4610 C.3   760  H4B760      0.0383
     17  O10        5.5470    5.6090   36.7050 O.3   760  H4B760     -0.2204
@<TRIPOS>BOND
     1     6     5    2
     2     4     5    2
     3     4     2    2
     4     3     2    1
     5     5     7    1
     6     2     1    2
     7     7     9    2
     8     7     8    1
     9     1     8    2
    10     9    11    1
    11     8    10    2
    12    11    13    1
    13    11    12    1
    14    10    12    1
    15    13    14    1
    16    13    15    1
    17    17    15    1
    18    15    16    1
