@<TRIPOS>MOLECULE
3rql_X2D_A_1.pdb
 28 31 0 0 0
SMALL
GASTEIGER

@<TRIPOS>ATOM
      1  N01        5.2170    5.8680   26.6180 N.2   800  X2D800     -0.3924
      2  C02        4.8740    7.0790   27.1330 C.2   800  X2D800      0.2001
      3  N02        5.7590    8.1370   27.1320 N.pl3 800  X2D800     -0.0977
      4  C03        3.5850    7.2440   27.6670 C.3   800  X2D800      0.1001
      5  C04        2.6760    6.1780   27.6710 C.2   800  X2D800     -0.0332
      6  C05        3.0560    4.9560   27.1130 C.2   800  X2D800      0.0196
      7  C06        4.3370    4.8110   26.5910 C.2   800  X2D800      0.1098
      8  C07        1.2630    6.3360   28.2360 C.3   800  X2D800      0.0269
      9  C08        4.7320    3.4570   26.0070 C.3   800  X2D800      0.0629
     10  O09        6.4360    1.2620   25.7040 O.3   800  X2D800     -0.3532
     11  N1'        6.8490    1.8490   28.4330 N.3   800  X2D800     -0.2154
     12  C10        6.6660    0.0840   24.9300 C.3   800  X2D800      0.1608
     13  C11        7.7210    0.4480   23.9200 C.3   800  X2D800      0.1206
     14  N12        9.0470    0.2410   24.4850 N.3   800  X2D800     -0.2165
     15  C13       10.1680    0.7080   23.7010 C.3   800  X2D800      0.0773
     16  C14       11.3130   -0.2760   23.8200 C.3   800  X2D800      0.0398
     17  C15       10.3370   -0.3800   22.6360 C.3   800  X2D800      0.0235
     18  C2'        5.9900    2.9890   28.1430 C.3   800  X2D800      0.0916
     19  C21       12.6390    0.1690   23.3090 C.ar  800  X2D800     -0.0203
     20  C22       12.7340    1.1010   22.2770 C.ar  800  X2D800      0.0072
     21  C23       14.0040    1.4690   21.8480 C.ar  800  X2D800      0.0574
     22 CL23       14.0650    2.6590   20.5040 Cl    800  X2D800     -0.0823
     23  C24       15.1640    0.8950   22.3700 C.ar  800  X2D800      0.0114
     24  C25       15.0750   -0.0520   23.4130 C.ar  800  X2D800      0.0005
     25  C26       13.8000   -0.4090   23.8490 C.ar  800  X2D800     -0.0042
     26  C3'        4.9190    2.4610   27.1590 C.3   800  X2D800      0.0531
     27  C4'        5.4510    1.0870   26.7310 C.3   800  X2D800      0.1343
     28  C5'        6.2310    0.6200   27.9580 C.3   800  X2D800      0.1182
@<TRIPOS>BOND
     1    22    21    1
     2    21    20   ar
     3    21    23   ar
     4    20    19   ar
     5    23    24   ar
     6    17    15    1
     7    17    16    1
     8    19    16    1
     9    19    25   ar
    10    24    25   ar
    11    15    16    1
    12    15    14    1
    13    13    14    1
    14    13    12    1
    15    12    10    1
    16    10    27    1
    17     9     7    1
    18     9    26    1
    19     7     1    2
    20     7     6    1
    21     1     2    2
    22    27    26    1
    23    27    28    1
    24     6     5    2
    25     3     2    1
    26     2     4    1
    27    26    18    1
    28     4     5    1
    29     5     8    1
    30    28    11    1
    31    18    11    1
