@<TRIPOS>MOLECULE
3rql_H4B_A_1.pdb
 17 18 0 0 0
SMALL
GASTEIGER

@<TRIPOS>ATOM
      1  N1         9.8260    2.4970   33.4880 N.2   760  H4B760     -0.2683
      2  C2         9.9350    2.1530   32.1720 C.1   760  H4B760      0.2608
      3  N2        11.1470    2.0350   31.5770 N.pl3 760  H4B760     -0.0220
      4  N3         8.8410    1.9270   31.4140 N.2   760  H4B760     -0.2474
      5  C4         7.6340    2.0270   31.9490 C.1   760  H4B760      0.2441
      6  O4         6.6620    1.7480   31.2030 O.2   760  H4B760     -0.2063
      7  C4A        7.4890    2.3940   33.2970 C.2   760  H4B760      0.2463
      8  C8A        8.6210    2.6540   34.0570 C.1   760  H4B760      0.1270
      9  N5         6.2500    2.5270   33.8710 N.2   760  H4B760     -0.2460
     10  N8         8.5500    3.0320   35.3730 N.2   760  H4B760     -0.2054
     11  C6         6.1730    3.3950   35.0430 C.3   760  H4B760      0.1627
     12  C7         7.2480    3.0880   36.0480 C.3   760  H4B760      0.1643
     13  C9         4.8100    3.4590   35.6890 C.3   760  H4B760      0.2063
     14  O9         4.4640    2.1200   36.0590 O.3   760  H4B760     -0.2183
     15  C10        4.8540    4.3740   36.8930 C.3   760  H4B760      0.1842
     16  C11        3.4440    4.6730   37.3810 C.3   760  H4B760      0.0383
     17  O10        5.4860    5.6130   36.5190 O.3   760  H4B760     -0.2204
@<TRIPOS>BOND
     1     6     5    2
     2     4     5    2
     3     4     2    2
     4     3     2    1
     5     5     7    1
     6     2     1    2
     7     7     9    2
     8     7     8    1
     9     1     8    2
    10     9    11    1
    11     8    10    2
    12    11    13    1
    13    11    12    1
    14    10    12    1
    15    13    14    1
    16    13    15    1
    17    17    15    1
    18    15    16    1
