@<TRIPOS>MOLECULE
3rql_HEM_A_1.pdb
 43 50 0 0 0
SMALL
GASTEIGER

@<TRIPOS>ATOM
      1  CHA       13.0250    4.7290   26.2420 C.2   750  HEM750      0.0000
      2  CHB       16.9620    1.8950   25.9180 C.2   750  HEM750      0.0000
      3  CHC       17.8280    3.6890   21.5150 C.2   750  HEM750      0.0000
      4  CHD       14.8170    7.4160   22.5880 C.2   750  HEM750      0.0000
      5  C1A       13.9190    3.7130   26.3850 C.2   750  HEM750      0.0000
      6  C2A       13.7170    2.5790   27.2290 C.2   750  HEM750      0.0000
      7  C3A       14.7740    1.7850   27.1750 C.2   750  HEM750      0.0000
      8  C4A       15.7210    2.3930   26.2420 C.2   750  HEM750      0.0000
      9  CMA       14.9230    0.4570   27.9700 C.3   750  HEM750      0.0000
     10  CAA       12.4780    2.3440   28.0740 C.3   750  HEM750      0.0000
     11  CBA       11.4060    1.9580   27.0670 C.3   750  HEM750      0.0000
     12  CGA       10.2100    1.4580   27.8210 C.2   750  HEM750      0.0000
     13  O1A       10.3100    1.1610   29.0560 O.co2 750  HEM750      0.0000
     14  O2A        9.1540    1.3940   27.1660 O.co2 750  HEM750      0.0000
     15  C1B       17.5230    2.0710   24.6750 C.ar  750  HEM750      0.0000
     16  C2B       18.6160    1.3110   24.1190 C.ar  750  HEM750      0.0000
     17  C3B       18.8620    1.7850   22.9030 C.ar  750  HEM750      0.0000
     18  C4B       17.9650    2.8990   22.6420 C.ar  750  HEM750      0.0000
     19  CMB       19.3140    0.1080   24.8060 C.3   750  HEM750      0.0000
     20  CAB       19.9430    1.1630   22.0000 C.2   750  HEM750      0.0000
     21  CBB       20.4020    1.7990   20.9400 C.2   750  HEM750      0.0000
     22  C1C       17.0240    4.8430   21.3840 C.2   750  HEM750      0.0000
     23  C2C       16.9900    5.6880   20.2110 C.2   750  HEM750      0.0000
     24  C3C       16.1610    6.7240   20.4950 C.2   750  HEM750      0.0000
     25  C4C       15.6740    6.5860   21.8630 C.2   750  HEM750      0.0000
     26  CMC       17.6720    5.3340   18.8610 C.3   750  HEM750      0.0000
     27  CAC       15.7150    7.8950   19.6080 C.2   750  HEM750      0.0000
     28  CBC       16.4100    8.3810   18.5550 C.2   750  HEM750      0.0000
     29  C1D       13.9440    7.0180   23.6080 C.ar  750  HEM750      0.0000
     30  C2D       12.7580    7.6880   24.0290 C.ar  750  HEM750      0.0000
     31  C3D       12.1810    6.8510   25.1650 C.ar  750  HEM750      0.0000
     32  C4D       13.1100    5.7530   25.3160 C.ar  750  HEM750      0.0000
     33  CMD       12.2230    9.0130   23.4560 C.3   750  HEM750      0.0000
     34  CAD       10.9040    7.0930   25.9680 C.3   750  HEM750      0.0000
     35  CBD        9.7830    6.3570   25.1910 C.3   750  HEM750      0.0000
     36  CGD        8.4130    6.6150   25.7460 C.2   750  HEM750      0.0000
     37  O1D        8.1810    7.6900   26.3930 O.co2 750  HEM750      0.0000
     38  O2D        7.5390    5.7210   25.5220 O.co2 750  HEM750      0.0000
     39  NA        15.1930    3.6190   25.8260 N.2   750  HEM750      0.0000
     40  NB        17.2330    3.1130   23.7960 N.ar  750  HEM750      0.0000
     41  NC        16.2320    5.4630   22.3550 N.2   750  HEM750      0.0000
     42  ND        14.1280    5.9280   24.4350 N.ar  750  HEM750      0.0000
     43 FE         15.7650    4.6120   24.1880 Fe    750  HEM750      0.0000
@<TRIPOS>BOND
     1    28    27    2
     2    26    23    1
     3    27    24    1
     4    23    24    2
     5    23    22    1
     6    24    25    1
     7    21    20    2
     8    22     3    2
     9    22    41    1
    10     3    18    1
    11    25    41    2
    12    25     4    1
    13    20    17    1
    14    41    43    1
    15     4    29    2
    16    18    17   ar
    17    18    40   ar
    18    17    16   ar
    19    33    30    1
    20    29    30   ar
    21    29    42   ar
    22    40    43    1
    23    40    15   ar
    24    30    31   ar
    25    16    15   ar
    26    16    19    1
    27    43    42    1
    28    43    39    1
    29    42    32   ar
    30    15     2    1
    31    31    32   ar
    32    31    34    1
    33    35    36    1
    34    35    34    1
    35    32     1    2
    36    38    36   ar
    37    36    37   ar
    38    39     8    1
    39    39     5    2
    40     2     8    2
    41     1     5    1
    42     8     7    1
    43     5     6    1
    44    11    12    1
    45    11    10    1
    46    14    12   ar
    47     7     6    2
    48     7     9    1
    49     6    10    1
    50    12    13   ar
