@<TRIPOS>MOLECULE
3rqm_HEM_A_1.pdb
 43 50 0 0 0
SMALL
GASTEIGER

@<TRIPOS>ATOM
      1  CHA       13.0890    4.8380   26.4970 C.2   750  HEM750      0.0000
      2  CHB       16.8760    1.8140   26.1430 C.2   750  HEM750      0.0000
      3  CHC       17.8320    3.6100   21.7820 C.2   750  HEM750      0.0000
      4  CHD       14.7630    7.3210   22.6290 C.2   750  HEM750      0.0000
      5  C1A       13.9480    3.7760   26.6680 C.2   750  HEM750      0.0000
      6  C2A       13.7700    2.7300   27.6440 C.2   750  HEM750      0.0000
      7  C3A       14.7940    1.8850   27.5630 C.2   750  HEM750      0.0000
      8  C4A       15.6770    2.3800   26.5190 C.2   750  HEM750      0.0000
      9  CMA       15.0340    0.6050   28.4040 C.3   750  HEM750      0.0000
     10  CAA       12.5420    2.6260   28.5560 C.3   750  HEM750      0.0000
     11  CBA       11.5080    2.0020   27.5990 C.3   750  HEM750      0.0000
     12  CGA       10.2990    1.5190   28.3210 C.2   750  HEM750      0.0000
     13  O1A       10.4090    1.1010   29.5090 O.co2 750  HEM750      0.0000
     14  O2A        9.2120    1.5720   27.7060 O.co2 750  HEM750      0.0000
     15  C1B       17.4610    1.9760   24.9230 C.ar  750  HEM750      0.0000
     16  C2B       18.5140    1.1730   24.3480 C.ar  750  HEM750      0.0000
     17  C3B       18.7750    1.6730   23.1380 C.ar  750  HEM750      0.0000
     18  C4B       17.9070    2.8140   22.9170 C.ar  750  HEM750      0.0000
     19  CMB       19.1790   -0.0600   25.0160 C.3   750  HEM750      0.0000
     20  CAB       19.8270    1.0710   22.1850 C.2   750  HEM750      0.0000
     21  CBB       20.3800    1.7640   21.1880 C.2   750  HEM750      0.0000
     22  C1C       17.0410    4.7390   21.5960 C.2   750  HEM750      0.0000
     23  C2C       16.9800    5.5390   20.3950 C.2   750  HEM750      0.0000
     24  C3C       16.1340    6.5630   20.6340 C.2   750  HEM750      0.0000
     25  C4C       15.6350    6.4490   21.9870 C.2   750  HEM750      0.0000
     26  CMC       17.7240    5.2060   19.0780 C.3   750  HEM750      0.0000
     27  CAC       15.6930    7.7090   19.7110 C.2   750  HEM750      0.0000
     28  CBC       16.4220    8.0240   18.6280 C.2   750  HEM750      0.0000
     29  C1D       13.9530    6.9760   23.7130 C.ar  750  HEM750      0.0000
     30  C2D       12.7800    7.6770   24.1650 C.ar  750  HEM750      0.0000
     31  C3D       12.2980    6.8950   25.3590 C.ar  750  HEM750      0.0000
     32  C4D       13.1950    5.7990   25.5160 C.ar  750  HEM750      0.0000
     33  CMD       12.1250    8.9760   23.5960 C.3   750  HEM750      0.0000
     34  CAD       11.0430    7.1670   26.2200 C.3   750  HEM750      0.0000
     35  CBD        9.9800    6.3920   25.4360 C.3   750  HEM750      0.0000
     36  CGD        8.6100    6.5900   26.0380 C.2   750  HEM750      0.0000
     37  O1D        8.3340    7.6510   26.6730 O.co2 750  HEM750      0.0000
     38  O2D        7.8030    5.6560   25.8690 O.co2 750  HEM750      0.0000
     39  NA        15.1720    3.5850   26.0630 N.2   750  HEM750      0.0000
     40  NB        17.1750    3.0150   24.0750 N.ar  750  HEM750      0.0000
     41  NC        16.2550    5.3660   22.5440 N.2   750  HEM750      0.0000
     42  ND        14.2120    5.9120   24.5860 N.ar  750  HEM750      0.0000
     43 FE         15.7970    4.5300   24.4160 Fe    750  HEM750      0.0000
@<TRIPOS>BOND
     1    28    27    2
     2    26    23    1
     3    27    24    1
     4    23    24    2
     5    23    22    1
     6    24    25    1
     7    21    20    2
     8    22     3    2
     9    22    41    1
    10     3    18    1
    11    25    41    2
    12    25     4    1
    13    20    17    1
    14    41    43    1
    15     4    29    2
    16    18    17   ar
    17    18    40   ar
    18    17    16   ar
    19    33    30    1
    20    29    30   ar
    21    29    42   ar
    22    40    43    1
    23    40    15   ar
    24    30    31   ar
    25    16    15   ar
    26    16    19    1
    27    43    42    1
    28    43    39    1
    29    42    32   ar
    30    15     2    1
    31    31    32   ar
    32    31    34    1
    33    35    36    1
    34    35    34    1
    35    32     1    2
    36    38    36   ar
    37    36    37   ar
    38    39     8    1
    39    39     5    2
    40     2     8    2
    41     1     5    1
    42     8     7    1
    43     5     6    1
    44     7     6    2
    45     7     9    1
    46    11    12    1
    47    11    10    1
    48     6    10    1
    49    14    12   ar
    50    12    13   ar
