@<TRIPOS>MOLECULE
3rqm_H4B_A_1.pdb
 17 18 0 0 0
SMALL
GASTEIGER

@<TRIPOS>ATOM
      1  N1         9.9170    2.5690   33.7870 N.2   760  H4B760     -0.2683
      2  C2        10.0850    2.2210   32.4890 C.1   760  H4B760      0.2608
      3  N2        11.3620    2.1190   31.9690 N.pl3 760  H4B760     -0.0220
      4  N3         8.9920    1.9860   31.7280 N.2   760  H4B760     -0.2474
      5  C4         7.7380    2.1020   32.2340 C.1   760  H4B760      0.2441
      6  O4         6.7590    1.8550   31.4960 O.2   760  H4B760     -0.2063
      7  C4A        7.5590    2.4690   33.5690 C.2   760  H4B760      0.2463
      8  C8A        8.7020    2.7020   34.3440 C.1   760  H4B760      0.1270
      9  N5         6.3230    2.5970   34.1410 N.2   760  H4B760     -0.2460
     10  N8         8.6250    3.0750   35.6590 N.2   760  H4B760     -0.2054
     11  C6         6.2490    3.4970   35.3000 C.3   760  H4B760      0.1627
     12  C7         7.3300    3.1920   36.3360 C.3   760  H4B760      0.1643
     13  C9         4.8480    3.5870   35.9040 C.3   760  H4B760      0.2063
     14  O9         4.4400    2.2530   36.2370 O.3   760  H4B760     -0.2183
     15  C10        4.7450    4.5090   37.1170 C.3   760  H4B760      0.1842
     16  C11        3.2940    4.6740   37.5470 C.3   760  H4B760      0.0383
     17  O10        5.1990    5.8330   36.8110 O.3   760  H4B760     -0.2204
@<TRIPOS>BOND
     1     6     5    2
     2     4     5    2
     3     4     2    2
     4     3     2    1
     5     5     7    1
     6     2     1    2
     7     7     9    2
     8     7     8    1
     9     1     8    2
    10     9    11    1
    11     8    10    2
    12    11    13    1
    13    11    12    1
    14    10    12    1
    15    13    14    1
    16    13    15    1
    17    17    15    1
    18    15    16    1
