@<TRIPOS>MOLECULE
3rqm_X2E_A_1.pdb
 28 30 0 0 0
SMALL
GASTEIGER

@<TRIPOS>ATOM
      1  N01        5.3040    6.0650   26.8270 N.2   805  X2E805     -0.3924
      2  C02        4.9330    7.2470   27.4200 C.2   805  X2E805      0.2001
      3  N02        5.7570    8.3440   27.3950 N.pl3 805  X2E805     -0.0977
      4  C03        3.6800    7.3240   28.0560 C.3   805  X2E805      0.1001
      5  C04        2.8240    6.2130   28.0970 C.2   805  X2E805     -0.0332
      6  C05        3.2300    5.0280   27.4760 C.2   805  X2E805      0.0196
      7  C06        4.4770    4.9740   26.8520 C.2   805  X2E805      0.1098
      8  C07        1.4610    6.2800   28.7700 C.3   805  X2E805      0.0269
      9  C08        4.9110    3.6650   26.2260 C.3   805  X2E805      0.0629
     10  O09        6.4430    1.5150   25.8200 O.3   805  X2E805     -0.3532
     11  N1'        6.8830    1.7200   28.6540 N.3   805  X2E805     -0.2154
     12  C10        6.8570    0.3680   25.1120 C.3   805  X2E805      0.1608
     13  C11        7.8850    0.9080   24.1510 C.3   805  X2E805      0.1206
     14  N11        9.2030    0.6020   24.6410 N.3   805  X2E805     -0.2165
     15  C13       10.2050    0.6770   23.6100 C.3   805  X2E805      0.0773
     16  C14       11.4070    1.3000   24.2400 C.3   805  X2E805      0.0438
     17  C15       10.4630   -0.6840   22.9740 C.3   805  X2E805      0.0192
     18  C2'        6.2100    0.5870   28.0410 C.3   805  X2E805      0.1182
     19  C21       12.6710    1.1690   23.4050 C.ar  805  X2E805     -0.0186
     20  C22       13.6360    0.2390   23.8170 C.ar  805  X2E805     -0.0041
     21  C23       14.8460    0.1000   23.1690 C.ar  805  X2E805      0.0020
     22  C24       15.0620    0.9330   22.0590 C.ar  805  X2E805      0.0296
     23  C25       14.1090    1.8480   21.6130 C.ar  805  X2E805      0.1398
     24  F25       14.3710    2.6330   20.5310 F     805  X2E805     -0.2042
     25  C26       12.9010    1.9880   22.2950 C.ar  805  X2E805      0.0254
     26  C3'        5.5020    1.2590   26.8660 C.3   805  X2E805      0.1343
     27  C4'        5.1100    2.6400   27.3600 C.3   805  X2E805      0.0531
     28  C5'        6.2500    2.9980   28.3080 C.3   805  X2E805      0.0916
@<TRIPOS>BOND
     1    24    23    1
     2    23    22   ar
     3    23    25   ar
     4    22    21   ar
     5    25    19   ar
     6    17    15    1
     7    21    20   ar
     8    19    20   ar
     9    19    16    1
    10    15    16    1
    11    15    14    1
    12    13    14    1
    13    13    12    1
    14    12    10    1
    15    10    26    1
    16     9     7    1
    17     9    27    1
    18     1     7    2
    19     1     2    2
    20     7     6    1
    21    26    27    1
    22    26    18    1
    23    27    28    1
    24     3     2    1
    25     2     4    1
    26     6     5    2
    27    18    11    1
    28     4     5    1
    29     5     8    1
    30    28    11    1
