@<TRIPOS>MOLECULE
3rqn_H4B_A_1.pdb
 17 18 0 0 0
SMALL
GASTEIGER

@<TRIPOS>ATOM
      1  N1         9.9210    2.5620   33.6470 N.2   760  H4B760     -0.2683
      2  C2        10.0800    2.2510   32.3360 C.1   760  H4B760      0.2608
      3  N2        11.3460    2.1290   31.7980 N.pl3 760  H4B760     -0.0220
      4  N3         8.9960    2.0730   31.5670 N.2   760  H4B760     -0.2474
      5  C4         7.7300    2.1690   32.0760 C.1   760  H4B760      0.2441
      6  O4         6.7620    1.9250   31.2970 O.2   760  H4B760     -0.2063
      7  C4A        7.5600    2.5010   33.4170 C.2   760  H4B760      0.2463
      8  C8A        8.7060    2.7150   34.1960 C.1   760  H4B760      0.1270
      9  N5         6.3360    2.6240   34.0150 N.2   760  H4B760     -0.2460
     10  N8         8.6330    3.0580   35.5060 N.2   760  H4B760     -0.2054
     11  C6         6.2760    3.5320   35.1460 C.3   760  H4B760      0.1627
     12  C7         7.3340    3.1780   36.1850 C.3   760  H4B760      0.1643
     13  C9         4.8610    3.6380   35.7170 C.3   760  H4B760      0.2063
     14  O9         4.4230    2.3170   36.0580 O.3   760  H4B760     -0.2183
     15  C10        4.7910    4.4980   36.9760 C.3   760  H4B760      0.1842
     16  C11        3.3490    4.5720   37.4630 C.3   760  H4B760      0.0383
     17  O10        5.2470    5.8280   36.6850 O.3   760  H4B760     -0.2204
@<TRIPOS>BOND
     1     6     5    2
     2     4     5    2
     3     4     2    2
     4     3     2    1
     5     5     7    1
     6     2     1    2
     7     7     9    2
     8     7     8    1
     9     1     8    2
    10     9    11    1
    11     8    10    2
    12    11    13    1
    13    11    12    1
    14    10    12    1
    15    13    14    1
    16    13    15    1
    17    17    15    1
    18    15    16    1
