@<TRIPOS>MOLECULE
3rqn_Y2F_A_1.pdb
 28 30 0 0 0
SMALL
GASTEIGER

@<TRIPOS>ATOM
      1  N01        5.2380    6.0660   26.6860 N.2   800  Y2F800     -0.3924
      2  C02        4.8700    7.2710   27.2110 C.2   800  Y2F800      0.2001
      3  N02        5.7160    8.3470   27.1760 N.pl3 800  Y2F800     -0.0977
      4  C03        3.6050    7.3950   27.7820 C.3   800  Y2F800      0.1001
      5  C04        2.7420    6.2980   27.8190 C.2   800  Y2F800     -0.0332
      6  C05        3.1460    5.0780   27.2640 C.2   800  Y2F800      0.0196
      7  C06        4.4200    4.9770   26.7120 C.2   800  Y2F800      0.1098
      8  C07        1.3700    6.4310   28.4390 C.3   800  Y2F800      0.0269
      9  C08        4.8890    3.6530   26.1220 C.3   800  Y2F800      0.0629
     10  O09        6.3510    1.3880   25.6620 O.3   800  Y2F800     -0.3532
     11  N1'        6.8680    1.6470   28.5310 N.3   800  Y2F800     -0.2154
     12  C10        7.0550    0.2130   25.2550 C.3   800  Y2F800      0.1608
     13  C11        7.9200    0.5590   24.0510 C.3   800  Y2F800      0.1206
     14  N12        9.1670    1.1450   24.4620 N.3   800  Y2F800     -0.2165
     15  C13       10.4430    0.5970   24.0700 C.3   800  Y2F800      0.0773
     16  C14       10.2970   -0.2870   22.8250 C.3   800  Y2F800      0.0192
     17  C15       11.3380    1.8030   23.8560 C.3   800  Y2F800      0.0438
     18  C2'        6.1310    0.5370   27.9340 C.3   800  Y2F800      0.1182
     19  C21       12.6930    1.4320   23.2910 C.ar  800  Y2F800     -0.0186
     20  C22       13.5450    0.5150   23.9340 C.ar  800  Y2F800     -0.0041
     21  C23       14.7950    0.2030   23.3870 C.ar  800  Y2F800      0.0020
     22  C24       15.1580    0.8440   22.2080 C.ar  800  Y2F800      0.0296
     23  C25       14.3060    1.7560   21.5810 C.ar  800  Y2F800      0.1398
     24  F25       14.6480    2.3680   20.4310 F     800  Y2F800     -0.2042
     25  C26       13.0680    2.0590   22.1220 C.ar  800  Y2F800      0.0254
     26  C3'        5.4340    1.2140   26.7550 C.3   800  Y2F800      0.1343
     27  C4'        5.1190    2.6240   27.2540 C.3   800  Y2F800      0.0531
     28  C5'        6.2870    2.9530   28.2020 C.3   800  Y2F800      0.0916
@<TRIPOS>BOND
     1    24    23    1
     2    23    25   ar
     3    23    22   ar
     4    25    19   ar
     5    22    21   ar
     6    16    15    1
     7    19    17    1
     8    19    20   ar
     9    21    20   ar
    10    17    15    1
    11    13    14    1
    12    13    12    1
    13    15    14    1
    14    12    10    1
    15    10    26    1
    16     9     7    1
    17     9    27    1
    18     1     7    2
    19     1     2    2
    20     7     6    1
    21    26    27    1
    22    26    18    1
    23     3     2    1
    24     2     4    1
    25    27    28    1
    26     6     5    2
    27     4     5    1
    28     5     8    1
    29    18    11    1
    30    28    11    1
