@<TRIPOS>MOLECULE
3rqn_HEM_A_1.pdb
 43 50 0 0 0
SMALL
GASTEIGER

@<TRIPOS>ATOM
      1  CHA       13.1600    4.7840   26.3910 C.2   750  HEM750      0.0000
      2  CHB       16.9540    1.7510   25.9680 C.2   750  HEM750      0.0000
      3  CHC       17.8090    3.6500   21.6160 C.2   750  HEM750      0.0000
      4  CHD       14.8030    7.3890   22.5930 C.2   750  HEM750      0.0000
      5  C1A       14.0180    3.7250   26.5410 C.2   750  HEM750      0.0000
      6  C2A       13.8070    2.6180   27.4470 C.2   750  HEM750      0.0000
      7  C3A       14.8360    1.7670   27.3520 C.2   750  HEM750      0.0000
      8  C4A       15.7510    2.3050   26.3480 C.2   750  HEM750      0.0000
      9  CMA       15.0230    0.4530   28.1700 C.3   750  HEM750      0.0000
     10  CAA       12.5730    2.4760   28.3440 C.3   750  HEM750      0.0000
     11  CBA       11.5600    1.7560   27.4470 C.3   750  HEM750      0.0000
     12  CGA       10.2630    1.4960   28.1510 C.2   750  HEM750      0.0000
     13  O1A       10.2640    1.1330   29.3590 O.co2 750  HEM750      0.0000
     14  O2A        9.2170    1.6280   27.4780 O.co2 750  HEM750      0.0000
     15  C1B       17.5120    1.9420   24.7350 C.ar  750  HEM750      0.0000
     16  C2B       18.5530    1.1470   24.1220 C.ar  750  HEM750      0.0000
     17  C3B       18.7900    1.6730   22.9160 C.ar  750  HEM750      0.0000
     18  C4B       17.9210    2.8240   22.7250 C.ar  750  HEM750      0.0000
     19  CMB       19.2240   -0.0930   24.7690 C.3   750  HEM750      0.0000
     20  CAB       19.8190    1.0850   21.9400 C.2   750  HEM750      0.0000
     21  CBB       20.5500    1.8420   21.1270 C.2   750  HEM750      0.0000
     22  C1C       17.0300    4.8040   21.4810 C.2   750  HEM750      0.0000
     23  C2C       16.9640    5.6280   20.2930 C.2   750  HEM750      0.0000
     24  C3C       16.1480    6.6670   20.5530 C.2   750  HEM750      0.0000
     25  C4C       15.6470    6.5310   21.9040 C.2   750  HEM750      0.0000
     26  CMC       17.7010    5.2930   18.9670 C.3   750  HEM750      0.0000
     27  CAC       15.7270    7.8310   19.6260 C.2   750  HEM750      0.0000
     28  CBC       16.4440    8.1920   18.5490 C.2   750  HEM750      0.0000
     29  C1D       13.9840    7.0060   23.6510 C.ar  750  HEM750      0.0000
     30  C2D       12.8110    7.6900   24.1270 C.ar  750  HEM750      0.0000
     31  C3D       12.3210    6.8660   25.3090 C.ar  750  HEM750      0.0000
     32  C4D       13.2280    5.7630   25.4240 C.ar  750  HEM750      0.0000
     33  CMD       12.1510    8.9930   23.6030 C.3   750  HEM750      0.0000
     34  CAD       11.0540    7.1020   26.1630 C.3   750  HEM750      0.0000
     35  CBD        9.9850    6.3190   25.3600 C.3   750  HEM750      0.0000
     36  CGD        8.5770    6.5540   25.8610 C.2   750  HEM750      0.0000
     37  O1D        8.3260    7.6180   26.5100 O.co2 750  HEM750      0.0000
     38  O2D        7.7200    5.6540   25.6340 O.co2 750  HEM750      0.0000
     39  NA        15.2510    3.5350   25.9240 N.2   750  HEM750      0.0000
     40  NB        17.2140    3.0020   23.8980 N.ar  750  HEM750      0.0000
     41  NC        16.2420    5.4250   22.4470 N.2   750  HEM750      0.0000
     42  ND        14.2520    5.9280   24.5020 N.ar  750  HEM750      0.0000
     43 FE         15.8220    4.5470   24.2920 Fe    750  HEM750      0.0000
@<TRIPOS>BOND
     1    28    27    2
     2    26    23    1
     3    27    24    1
     4    23    24    2
     5    23    22    1
     6    24    25    1
     7    21    20    2
     8    22     3    2
     9    22    41    1
    10     3    18    1
    11    25    41    2
    12    25     4    1
    13    20    17    1
    14    41    43    1
    15     4    29    2
    16    18    17   ar
    17    18    40   ar
    18    17    16   ar
    19    33    30    1
    20    29    30   ar
    21    29    42   ar
    22    40    43    1
    23    40    15   ar
    24    16    15   ar
    25    16    19    1
    26    30    31   ar
    27    43    42    1
    28    43    39    1
    29    42    32   ar
    30    15     2    1
    31    31    32   ar
    32    31    34    1
    33    35    36    1
    34    35    34    1
    35    32     1    2
    36    38    36   ar
    37    36    37   ar
    38    39     8    1
    39    39     5    2
    40     2     8    2
    41     8     7    1
    42     1     5    1
    43     5     6    1
    44     7     6    2
    45     7     9    1
    46    11    12    1
    47    11    10    1
    48     6    10    1
    49    14    12   ar
    50    12    13   ar
