@<TRIPOS>MOLECULE
3rqo_H4B_A_1.pdb
 17 18 0 0 0
SMALL
GASTEIGER

@<TRIPOS>ATOM
      1  N1         8.5540   11.8240   42.6430 N.2   600  H4B600     -0.2683
      2  C2         8.4980   12.1700   41.3450 C.1   600  H4B600      0.2608
      3  N2         7.6840   11.4980   40.5170 N.pl3 600  H4B600     -0.0220
      4  N3         9.2680   13.1750   40.8820 N.2   600  H4B600     -0.2474
      5  C4        10.1320   13.8300   41.6900 C.1   600  H4B600      0.2441
      6  O4        10.8070   14.7940   41.2210 O.2   600  H4B600     -0.2063
      7  C4A       10.1800   13.4940   43.0340 C.2   600  H4B600      0.2463
      8  C8A        9.3590   12.4690   43.4970 C.1   600  H4B600      0.1270
      9  N5        11.0090   14.1170   43.9120 N.2   600  H4B600     -0.2460
     10  N8         9.3780   12.0480   44.7910 N.2   600  H4B600     -0.2054
     11  C6        11.4250   13.2980   45.0570 C.3   600  H4B600      0.1627
     12  C7        10.2310   12.6740   45.8080 C.3   600  H4B600      0.1643
     13  C9        12.3230   14.0950   46.0070 C.3   600  H4B600      0.2063
     14  O9        11.7180   15.3550   46.2690 O.3   600  H4B600     -0.2183
     15  C10       12.6720   13.3700   47.3090 C.3   600  H4B600      0.1842
     16  C11       13.7090   14.0820   48.1650 C.3   600  H4B600      0.0383
     17  O10       13.2340   12.1130   46.9670 O.3   600  H4B600     -0.2204
@<TRIPOS>BOND
     1     3     2    1
     2     4     2    2
     3     4     5    2
     4     6     5    2
     5     2     1    2
     6     5     7    1
     7     1     8    2
     8     7     8    1
     9     7     9    2
    10     8    10    2
    11     9    11    1
    12    10    12    1
    13    11    12    1
    14    11    13    1
    15    13    14    1
    16    13    15    1
    17    17    15    1
    18    15    16    1
