@<TRIPOS>MOLECULE
3rqo_HEM_A_1.pdb
 43 50 0 0 0
SMALL
GASTEIGER

@<TRIPOS>ATOM
      1  CHA        9.1950    8.9760   34.9170 C.2   500  HEM500      0.0000
      2  CHB        4.6060    8.7880   33.5620 C.2   500  HEM500      0.0000
      3  CHC        6.0880    7.1870   29.2600 C.2   500  HEM500      0.0000
      4  CHD       10.4880    6.3660   31.0420 C.2   500  HEM500      0.0000
      5  C1A        7.8530    9.2430   34.8510 C.2   500  HEM500      0.0000
      6  C2A        7.1170   10.0990   35.7410 C.2   500  HEM500      0.0000
      7  C3A        5.8290   10.0700   35.3790 C.2   500  HEM500      0.0000
      8  C4A        5.7260    9.1750   34.2520 C.2   500  HEM500      0.0000
      9  CMA        4.7000   10.8450   36.0640 C.3   500  HEM500      0.0000
     10  CAA        7.7470   10.9250   36.8830 C.3   500  HEM500      0.0000
     11  CBA        8.2550   12.2250   36.2590 C.3   500  HEM500      0.0000
     12  CGA        8.8350   13.1960   37.2660 C.2   500  HEM500      0.0000
     13  O1A        8.2540   13.3710   38.3870 O.co2 500  HEM500      0.0000
     14  O2A        9.8680   13.8350   36.9040 O.co2 500  HEM500      0.0000
     15  C1B        4.5990    8.3740   32.2590 C.ar  500  HEM500      0.0000
     16  C2B        3.4260    8.3090   31.4020 C.ar  500  HEM500      0.0000
     17  C3B        3.8330    7.8680   30.2030 C.ar  500  HEM500      0.0000
     18  C4B        5.2830    7.6110   30.2870 C.ar  500  HEM500      0.0000
     19  CMB        2.0120    8.7490   31.8700 C.3   500  HEM500      0.0000
     20  CAB        2.9830    7.6430   28.9280 C.2   500  HEM500      0.0000
     21  CBB        3.2440    6.6440   28.0530 C.2   500  HEM500      0.0000
     22  C1C        7.4400    6.9380   29.3420 C.2   500  HEM500      0.0000
     23  C2C        8.2750    6.5170   28.2400 C.2   500  HEM500      0.0000
     24  C3C        9.5110    6.2650   28.7280 C.2   500  HEM500      0.0000
     25  C4C        9.4680    6.5240   30.1550 C.2   500  HEM500      0.0000
     26  CMC        7.8340    6.3980   26.7540 C.3   500  HEM500      0.0000
     27  CAC       10.7520    5.8040   27.9390 C.2   500  HEM500      0.0000
     28  CBC       10.5930    5.0180   26.8540 C.2   500  HEM500      0.0000
     29  C1D       10.5590    7.0760   32.2040 C.ar  500  HEM500      0.0000
     30  C2D       11.7850    7.3030   32.9130 C.ar  500  HEM500      0.0000
     31  C3D       11.3870    8.1410   34.1000 C.ar  500  HEM500      0.0000
     32  C4D        9.9440    8.2820   34.0080 C.ar  500  HEM500      0.0000
     33  CMD       13.2250    6.8640   32.5230 C.3   500  HEM500      0.0000
     34  CAD       12.3340    8.6830   35.1970 C.3   500  HEM500      0.0000
     35  CBD       12.8960   10.0410   34.7330 C.3   500  HEM500      0.0000
     36  CGD       13.8090   10.6840   35.7370 C.2   500  HEM500      0.0000
     37  O1D       14.3970    9.9520   36.5910 O.co2 500  HEM500      0.0000
     38  O2D       13.9310   11.9420   35.6820 O.co2 500  HEM500      0.0000
     39  NA         6.9760    8.6370   33.9940 N.2   500  HEM500      0.0000
     40  NB         5.6810    7.8680   31.5820 N.ar  500  HEM500      0.0000
     41  NC         8.1790    6.8620   30.5250 N.2   500  HEM500      0.0000
     42  ND         9.4800    7.5950   32.8960 N.ar  500  HEM500      0.0000
     43 FE          7.5710    7.6340   32.2920 Fe    500  HEM500      0.0000
@<TRIPOS>BOND
     1    26    23    1
     2    28    27    2
     3    27    24    1
     4    21    20    2
     5    23    24    2
     6    23    22    1
     7    24    25    1
     8    20    17    1
     9     3    22    2
    10     3    18    1
    11    22    41    1
    12    25    41    2
    13    25     4    1
    14    17    18   ar
    15    17    16   ar
    16    18    40   ar
    17    41    43    1
    18     4    29    2
    19    16    19    1
    20    16    15   ar
    21    40    15   ar
    22    40    43    1
    23    29    42   ar
    24    29    30   ar
    25    15     2    1
    26    43    42    1
    27    43    39    1
    28    33    30    1
    29    42    32   ar
    30    30    31   ar
    31     2     8    2
    32    39     8    1
    33    39     5    2
    34    32    31   ar
    35    32     1    2
    36    31    34    1
    37     8     7    1
    38    35    34    1
    39    35    36    1
    40     5     1    1
    41     5     6    1
    42     7     6    2
    43     7     9    1
    44    38    36   ar
    45    36    37   ar
    46     6    10    1
    47    11    10    1
    48    11    12    1
    49    14    12   ar
    50    12    13   ar
