@<TRIPOS>MOLECULE
3rqo_X2D_A_1.pdb
 28 31 0 0 0
SMALL
GASTEIGER

@<TRIPOS>ATOM
      1  N01       15.6810   13.2920   37.1430 N.2   800  X2D800     -0.3924
      2  C02       16.6750   12.6170   37.7580 C.2   800  X2D800      0.2001
      3  N02       16.7220   11.2550   37.6950 N.pl3 800  X2D800     -0.0977
      4  C03       17.6520   13.3360   38.4600 C.3   800  X2D800      0.1001
      5  C04       17.5910   14.7340   38.4790 C.2   800  X2D800     -0.0332
      6  C05       16.5550   15.4130   37.8160 C.2   800  X2D800      0.0196
      7  C06       15.6050   14.6500   37.1350 C.2   800  X2D800      0.1098
      8  C07       18.6510   15.5080   39.2080 C.3   800  X2D800      0.0269
      9  C08       14.4420   15.3200   36.4380 C.3   800  X2D800      0.0629
     10  O09       11.9060   16.2040   35.8100 O.3   800  X2D800     -0.3532
     11  N1'       11.4750   15.1070   38.5350 N.3   800  X2D800     -0.2154
     12  C10       10.7590   16.8970   35.2830 C.3   800  X2D800      0.1608
     13  C11       10.4150   16.3050   33.9260 C.3   800  X2D800      0.1206
     14  N12        9.7690   15.0080   33.9960 N.3   800  X2D800     -0.2165
     15  C13        9.3410   14.3460   32.7650 C.3   800  X2D800      0.0773
     16  C14        7.8780   13.8860   32.9060 C.3   800  X2D800      0.0398
     17  C15        8.2090   15.1430   32.0940 C.3   800  X2D800      0.0235
     18  C2'       12.8420   14.6550   38.2780 C.3   800  X2D800      0.0916
     19  C21        7.2890   12.8520   32.0030 C.ar  800  X2D800     -0.0203
     20  C22        8.0390   12.1310   31.0700 C.ar  800  X2D800      0.0072
     21  C23        7.4180   11.1830   30.2320 C.ar  800  X2D800      0.0574
     22 CL23        8.4610   10.3350   29.0450 Cl    800  X2D800     -0.0823
     23  C24        6.0370   10.9390   30.2980 C.ar  800  X2D800      0.0114
     24  C25        5.2770   11.6480   31.2630 C.ar  800  X2D800      0.0005
     25  C26        5.9000   12.5980   32.0880 C.ar  800  X2D800     -0.0042
     26  C3'       13.5250   15.8280   37.5650 C.3   800  X2D800      0.0531
     27  C4'       12.3500   16.6920   37.0970 C.3   800  X2D800      0.1343
     28  C5'       11.2540   16.4770   38.1290 C.3   800  X2D800      0.1182
@<TRIPOS>BOND
     1    22    21    1
     2    21    23   ar
     3    21    20   ar
     4    23    24   ar
     5    20    19   ar
     6    24    25   ar
     7    19    25   ar
     8    19    16    1
     9    17    15    1
    10    17    16    1
    11    15    16    1
    12    15    14    1
    13    13    14    1
    14    13    12    1
    15    12    10    1
    16    10    27    1
    17     9     7    1
    18     9    26    1
    19    27    26    1
    20    27    28    1
    21     7     1    2
    22     7     6    1
    23     1     2    2
    24    26    18    1
    25     3     2    1
    26     2     4    1
    27     6     5    2
    28    28    11    1
    29    18    11    1
    30     4     5    1
    31     5     8    1
