@<TRIPOS>MOLECULE
3rqp_X2E_A_1.pdb
 28 30 0 0 0
SMALL
GASTEIGER

@<TRIPOS>ATOM
      1  N01       15.6070   13.1840   37.5130 N.2   805  X2E805     -0.3924
      2  C02       16.6240   12.5130   38.1260 C.2   805  X2E805      0.2001
      3  N02       16.5880   11.1420   38.1680 N.pl3 805  X2E805     -0.0977
      4  C03       17.6730   13.2710   38.7090 C.3   805  X2E805      0.1001
      5  C04       17.6690   14.6790   38.6460 C.2   805  X2E805     -0.0332
      6  C05       16.6220   15.3250   38.0040 C.2   805  X2E805      0.0196
      7  C06       15.6060   14.5440   37.4420 C.2   805  X2E805      0.1098
      8  C07       18.7660   15.5200   39.2470 C.3   805  X2E805      0.0269
      9  C08       14.4650   15.2100   36.7540 C.3   805  X2E805      0.0629
     10  O09       12.3490   15.8390   35.8770 O.3   805  X2E805     -0.3532
     11  N1'       11.4050   14.9930   38.6210 N.3   805  X2E805     -0.2154
     12  C10       11.3320   16.1510   34.9380 C.3   805  X2E805      0.1608
     13  C11       11.0720   14.7810   34.3440 C.3   805  X2E805      0.1206
     14  N11        9.6530   14.6140   34.1890 N.3   805  X2E805     -0.2165
     15  C13        9.2160   14.0890   32.9260 C.3   805  X2E805      0.0773
     16  C14        8.6950   12.7010   33.2290 C.3   805  X2E805      0.0438
     17  C15        8.2350   15.0630   32.2540 C.3   805  X2E805      0.0192
     18  C2'       11.1560   16.2740   37.9920 C.3   805  X2E805      0.1182
     19  C21        7.8650   12.1060   32.1160 C.ar  805  X2E805     -0.0186
     20  C22        6.4710   12.1350   32.2220 C.ar  805  X2E805     -0.0041
     21  C23        5.6880   11.5570   31.2280 C.ar  805  X2E805      0.0020
     22  C24        6.3030   10.9470   30.1250 C.ar  805  X2E805      0.0296
     23  C25        7.6980   10.9260   30.0000 C.ar  805  X2E805      0.1398
     24  F25        8.2870   10.3490   28.9070 F     805  X2E805     -0.2042
     25  C26        8.4800   11.5020   31.0200 C.ar  805  X2E805      0.0254
     26  C3'       12.4030   16.5080   37.1490 C.3   805  X2E805      0.1343
     27  C4'       13.5050   15.7150   37.8250 C.3   805  X2E805      0.0531
     28  C5'       12.7920   14.5690   38.5260 C.3   805  X2E805      0.0916
@<TRIPOS>BOND
     1    24    23    1
     2    23    22   ar
     3    23    25   ar
     4    22    21   ar
     5    25    19   ar
     6    21    20   ar
     7    19    20   ar
     8    19    16    1
     9    17    15    1
    10    15    16    1
    11    15    14    1
    12    14    13    1
    13    13    12    1
    14    12    10    1
    15    10    26    1
    16     9     7    1
    17     9    27    1
    18    26    27    1
    19    26    18    1
    20     7     1    2
    21     7     6    1
    22     1     2    2
    23    27    28    1
    24    18    11    1
    25     6     5    2
    26     2     3    1
    27     2     4    1
    28    28    11    1
    29     5     4    1
    30     5     8    1
