@<TRIPOS>MOLECULE
3rqp_HEM_A_1.pdb
 43 50 0 0 0
SMALL
GASTEIGER

@<TRIPOS>ATOM
      1  CHA        9.2600    8.8350   35.2770 C.2   500  HEM500      0.0000
      2  CHB        4.6440    8.8040   33.7670 C.2   500  HEM500      0.0000
      3  CHC        5.8890    7.2100   29.3720 C.2   500  HEM500      0.0000
      4  CHD       10.3190    6.4520   31.1850 C.2   500  HEM500      0.0000
      5  C1A        7.9090    9.0900   35.1720 C.2   500  HEM500      0.0000
      6  C2A        7.1240    9.8950   36.0800 C.2   500  HEM500      0.0000
      7  C3A        5.8540    9.8870   35.6790 C.2   500  HEM500      0.0000
      8  C4A        5.7860    9.0790   34.4820 C.2   500  HEM500      0.0000
      9  CMA        4.6990   10.6380   36.3620 C.3   500  HEM500      0.0000
     10  CAA        7.6990   10.6590   37.2940 C.3   500  HEM500      0.0000
     11  CBA        8.0960   11.9970   36.6910 C.3   500  HEM500      0.0000
     12  CGA        8.6790   12.9640   37.6760 C.2   500  HEM500      0.0000
     13  O1A        8.1270   13.0870   38.7800 O.co2 500  HEM500      0.0000
     14  O2A        9.6900   13.6260   37.3400 O.co2 500  HEM500      0.0000
     15  C1B        4.5920    8.4120   32.4540 C.ar  500  HEM500      0.0000
     16  C2B        3.4080    8.4170   31.6400 C.ar  500  HEM500      0.0000
     17  C3B        3.7330    7.9640   30.4240 C.ar  500  HEM500      0.0000
     18  C4B        5.1420    7.6590   30.4310 C.ar  500  HEM500      0.0000
     19  CMB        2.0140    8.8580   32.1210 C.3   500  HEM500      0.0000
     20  CAB        2.7800    7.8110   29.2160 C.2   500  HEM500      0.0000
     21  CBB        3.0250    6.8470   28.3160 C.2   500  HEM500      0.0000
     22  C1C        7.2390    6.9700   29.4650 C.2   500  HEM500      0.0000
     23  C2C        8.1180    6.6120   28.3770 C.2   500  HEM500      0.0000
     24  C3C        9.3390    6.3940   28.8860 C.2   500  HEM500      0.0000
     25  C4C        9.2830    6.6220   30.3090 C.2   500  HEM500      0.0000
     26  CMC        7.7250    6.4930   26.8960 C.3   500  HEM500      0.0000
     27  CAC       10.6190    5.9970   28.1240 C.2   500  HEM500      0.0000
     28  CBC       10.6250    5.0830   27.1590 C.2   500  HEM500      0.0000
     29  C1D       10.4860    7.0690   32.3990 C.ar  500  HEM500      0.0000
     30  C2D       11.7490    7.2080   33.1070 C.ar  500  HEM500      0.0000
     31  C3D       11.4210    7.9530   34.3730 C.ar  500  HEM500      0.0000
     32  C4D        9.9900    8.1820   34.3120 C.ar  500  HEM500      0.0000
     33  CMD       13.1750    6.7360   32.7060 C.3   500  HEM500      0.0000
     34  CAD       12.4490    8.3880   35.4500 C.3   500  HEM500      0.0000
     35  CBD       12.8350    9.8350   35.1200 C.3   500  HEM500      0.0000
     36  CGD       13.8360   10.4490   36.0800 C.2   500  HEM500      0.0000
     37  O1D       14.5620    9.6860   36.8100 O.co2 500  HEM500      0.0000
     38  O2D       13.9140   11.7240   36.0930 O.co2 500  HEM500      0.0000
     39  NA         7.0530    8.5570   34.2280 N.2   500  HEM500      0.0000
     40  NB         5.6200    7.8910   31.7080 N.ar  500  HEM500      0.0000
     41  NC         7.9780    6.9140   30.6400 N.2   500  HEM500      0.0000
     42  ND         9.4630    7.5850   33.1560 N.ar  500  HEM500      0.0000
     43 FE          7.5240    7.6500   32.4640 Fe    500  HEM500      0.0000
@<TRIPOS>BOND
     1    26    23    1
     2    28    27    2
     3    27    24    1
     4    21    20    2
     5    23    24    2
     6    23    22    1
     7    24    25    1
     8    20    17    1
     9     3    22    2
    10     3    18    1
    11    22    41    1
    12    25    41    2
    13    25     4    1
    14    17    18   ar
    15    17    16   ar
    16    18    40   ar
    17    41    43    1
    18     4    29    2
    19    16    19    1
    20    16    15   ar
    21    40    15   ar
    22    40    43    1
    23    29    30   ar
    24    29    42   ar
    25    15     2    1
    26    43    42    1
    27    43    39    1
    28    33    30    1
    29    30    31   ar
    30    42    32   ar
    31     2     8    2
    32    39     8    1
    33    39     5    2
    34    32    31   ar
    35    32     1    2
    36    31    34    1
    37     8     7    1
    38    35    34    1
    39    35    36    1
    40     5     1    1
    41     5     6    1
    42     7     6    2
    43     7     9    1
    44     6    10    1
    45    36    38   ar
    46    36    37   ar
    47    11    10    1
    48    11    12    1
    49    14    12   ar
    50    12    13   ar
