@<TRIPOS>MOLECULE
3rqp_H4B_A_1.pdb
 17 18 0 0 0
SMALL
GASTEIGER

@<TRIPOS>ATOM
      1  N1         8.4550   11.7300   42.8900 N.2   600  H4B600     -0.2683
      2  C2         8.3860   12.0810   41.5940 C.1   600  H4B600      0.2608
      3  N2         7.5280   11.4300   40.7580 N.pl3 600  H4B600     -0.0220
      4  N3         9.1560   13.0760   41.1370 N.2   600  H4B600     -0.2474
      5  C4        10.0340   13.7270   41.9450 C.1   600  H4B600      0.2441
      6  O4        10.7420   14.6640   41.4830 O.2   600  H4B600     -0.2063
      7  C4A       10.1160   13.3600   43.2780 C.2   600  H4B600      0.2463
      8  C8A        9.2900   12.3330   43.7290 C.1   600  H4B600      0.1270
      9  N5        10.9530   13.9680   44.1540 N.2   600  H4B600     -0.2460
     10  N8         9.3410   11.9080   45.0090 N.2   600  H4B600     -0.2054
     11  C6        11.4160   13.1550   45.2740 C.3   600  H4B600      0.1627
     12  C7        10.2210   12.5380   46.0060 C.3   600  H4B600      0.1643
     13  C9        12.3200   13.9450   46.2290 C.3   600  H4B600      0.2063
     14  O9        11.7480   15.2230   46.5430 O.3   600  H4B600     -0.2183
     15  C10       12.6130   13.1630   47.5140 C.3   600  H4B600      0.1842
     16  C11       13.5750   13.8890   48.4180 C.3   600  H4B600      0.0383
     17  O10       13.2330   11.9090   47.2160 O.3   600  H4B600     -0.2204
@<TRIPOS>BOND
     1     3     2    1
     2     4     2    2
     3     4     5    2
     4     6     5    2
     5     2     1    2
     6     5     7    1
     7     1     8    2
     8     7     8    1
     9     7     9    2
    10     8    10    2
    11     9    11    1
    12    10    12    1
    13    11    12    1
    14    11    13    1
    15    13    14    1
    16    13    15    1
    17    17    15    1
    18    15    16    1
