@<TRIPOS>MOLECULE
3rqq_BA3_A_1.pdb
 27 29 0 0 0
SMALL
GASTEIGER

@<TRIPOS>ATOM
      1  N9A      -22.7800  -11.1260  -29.9620 N.pl3 278  BA3278     -0.1439
      2  C8A      -22.4230  -12.2990  -29.3420 C.3   278  BA3278      0.3377
      3  N7A      -22.4590  -13.3150  -30.2510 N.2   278  BA3278     -0.2095
      4  C5A      -22.8320  -12.7750  -31.4470 C.2   278  BA3278      0.2526
      5  C6A      -23.0260  -13.3370  -32.7050 C.2   278  BA3278      0.4393
      6  N6A      -22.8800  -14.6450  -32.8520 N.pl3 278  BA3278      0.2180
      7  N1A      -23.4480  -12.5250  -33.7460 N.2   278  BA3278      0.0021
      8  C2A      -23.6200  -11.1730  -33.5820 C.3   278  BA3278      0.5254
      9  N3A      -23.4330  -10.5960  -32.3150 N.2   278  BA3278     -0.0055
     10  C4A      -23.0520  -11.4060  -31.2810 C.2   278  BA3278      0.3518
     11  O5B      -22.4240   -8.9090  -24.9980 O.3   278  BA3278     -0.3111
     12  C5B      -22.0980   -9.7520  -26.0870 C.3   278  BA3278      0.1813
     13  C4B      -22.1430   -8.8470  -27.3180 C.3   278  BA3278      0.1821
     14  O4B      -21.7500   -9.6920  -28.4120 O.3   278  BA3278     -0.3135
     15  C3B      -23.5760   -8.4170  -27.7060 C.3   278  BA3278      0.2184
     16  O3B      -23.5590   -7.1820  -28.3760 O.3   278  BA3278     -0.2174
     17  C2B      -24.1000   -9.5330  -28.6050 C.3   278  BA3278      0.2570
     18  O2B      -25.2340   -9.2370  -29.4140 O.3   278  BA3278     -0.2130
     19  C1B      -22.8310   -9.7870  -29.3690 C.3   278  BA3278      0.3186
     20  PE       -22.4870   -9.5920  -23.5620 P.3   278  BA3278      0.2231
     21  O1E      -23.1830  -10.9320  -23.4630 O.2   278  BA3278     -0.5169
     22  O2E      -22.9860   -8.5460  -22.5430 O.3   278  BA3278     -0.4370
     23  O3E      -20.8410   -9.7400  -23.3230 O.3   278  BA3278     -0.2261
     24  PF       -19.9290   -9.2880  -22.0110 P.3   278  BA3278      0.5373
     25  O1F      -19.1230   -8.0810  -22.2700 O.2   278  BA3278     -0.2221
     26  O2F      -19.0350  -10.5000  -21.6680 O.3   278  BA3278     -0.1143
     27  O3F      -20.9430   -9.0060  -20.8120 O.3   278  BA3278     -0.1143
@<TRIPOS>BOND
     1     7     8    1
     2     7     5    2
     3     8     9    1
     4     6     5    1
     5     5     4    1
     6     9    10    2
     7     4    10    1
     8     4     3    2
     9    10     1    1
    10     3     2    1
    11     1    19    1
    12     1     2    1
    13    18    17    1
    14    19    17    1
    15    19    14    1
    16    17    15    1
    17    14    13    1
    18    16    15    1
    19    15    13    1
    20    13    12    1
    21    12    11    1
    22    11    20    1
    23    20    21    2
    24    20    23    1
    25    20    22    1
    26    23    24    1
    27    25    24    2
    28    24    26    1
    29    24    27    1
