@<TRIPOS>MOLECULE
3rqr_III_U_1.pdb
 20 19 0 0 0
SMALL
GASTEIGER

@<TRIPOS>ATOM
      1  N         57.5230    5.2250   52.8390 N.3   2047  UNK2047    -0.1231
      2  CA        58.3940    5.0440   51.6800 C.3   2047  UNK2047     0.1694
      3  C         59.8970    5.0180   52.0600 C.2   2047  UNK2047     0.2592
      4  O         60.2880    5.5890   53.0820 O.2   2047  UNK2047    -0.2718
      5  CB        58.1220    6.1230   50.6440 C.3   2047  UNK2047     0.0304
      6  N         60.7200    4.3330   51.2340 N.am  2048  UNK2048    -0.1966
      7  CA        62.1640    4.1650   51.4350 C.3   2048  UNK2048     0.1728
      8  C         62.9450    5.4550   51.1880 C.2   2048  UNK2048     0.2616
      9  O         62.6600    6.1640   50.2220 O.2   2048  UNK2048    -0.2715
     10  CB        62.6930    3.0530   50.5360 C.3   2048  UNK2048     0.0334
     11  N         63.9410    5.7390   52.0600 N.am  2049  UNK2049    -0.1963
     12  CA        64.8210    6.9130   51.9920 C.3   2049  UNK2049     0.1728
     13  C         66.0230    6.6600   51.0680 C.2   2049  UNK2049     0.2616
     14  O         66.5610    5.5460   51.0460 O.2   2049  UNK2049    -0.2715
     15  CB        65.2970    7.2940   53.3870 C.3   2049  UNK2049     0.0334
     16  N         66.4330    7.7000   50.3040 N.am  2050  UNK2050    -0.1977
     17  CA        67.5560    7.6640   49.3540 C.3   2050  UNK2050     0.1597
     18  C         68.9180    7.5040   50.0460 C.2   2050  UNK2050     0.2287
     19  O         69.0590    7.7670   51.2410 O.2   2050  UNK2050    -0.2864
     20  CB        67.5530    8.9170   48.4900 C.3   2050  UNK2050     0.0319
@<TRIPOS>BOND
     1    20    17    1
     2    17    18    1
     3    17    16    1
     4    18    19    2
     5     9     8    2
     6    16    13   am
     7    10     7    1
     8     5     2    1
     9    14    13    2
    10    13    12    1
    11     8     7    1
    12     8    11   am
    13     6     7    1
    14     6     3   am
    15     2     3    1
    16     2     1    1
    17    12    11    1
    18    12    15    1
    19     3     4    2
