@<TRIPOS>MOLECULE
3rqt_HIS_A_1.pdb
 11 11 0 0 0
SMALL
GASTEIGER

@<TRIPOS>ATOM
      1  N         39.9340   59.2070   15.9480 N.3   471  HIS471     -0.1204
      2  CA        40.5340   58.7100   14.6890 C.3   471  HIS471      0.1999
      3  C         40.6470   59.8250   13.6740 C.2   471  HIS471      0.3822
      4  O         39.9670   60.8550   13.7960 O.co2 471  HIS471     -0.2440
      5  CB        39.7030   57.5400   14.1330 C.3   471  HIS471      0.0740
      6  CG        38.2630   57.8760   13.8440 C.2   471  HIS471      0.0651
      7  ND1       37.6310   59.0270   14.3030 N.2   471  HIS471     -0.2310
      8  CD2       37.2970   57.1290   13.2580 C.3   471  HIS471      0.1683
      9  CE1       36.3610   58.9950   13.9440 C.2   471  HIS471      0.1939
     10  NE2       36.1270   57.8510   13.3100 N.2   471  HIS471     -0.2440
     11  OXT       41.4560   59.7340   12.7380 O.co2 471  HIS471     -0.2440
@<TRIPOS>BOND
     1    11     3   ar
     2     8    10    1
     3     8     6    1
     4    10     9    2
     5     3     4   ar
     6     3     2    1
     7     6     5    1
     8     6     7    2
     9     9     7    1
    10     5     2    1
    11     2     1    1
