@<TRIPOS>MOLECULE
3rqw_ACH_A_1.pdb
 10 9 0 0 0
SMALL
GASTEIGER

@<TRIPOS>ATOM
      1  N1      -112.5680  -70.4070  -61.3420 N.4   323  ACH323      0.3882
      2  C2      -113.0550  -69.2140  -62.0510 C.3   323  ACH323     -0.0251
      3  C3      -114.5300  -69.2870  -62.4240 C.3   323  ACH323      0.1864
      4  O4      -115.2950  -69.5300  -61.2500 O.3   323  ACH323     -0.4508
      5  C5      -116.6330  -68.9750  -61.2050 C.2   323  ACH323      0.3175
      6  O7      -116.9500  -68.2060  -62.1110 O.2   323  ACH323     -0.2501
      7  C6      -117.4860  -69.2450  -59.9950 C.3   323  ACH323      0.1212
      8  C8      -111.1040  -70.4250  -61.4790 C.3   323  ACH323     -0.0958
      9  C9      -113.0860  -71.6540  -61.9470 C.3   323  ACH323     -0.0958
     10  C10     -112.9140  -70.3140  -59.9070 C.3   323  ACH323     -0.0958
@<TRIPOS>BOND
     1     3     2    1
     2     3     4    1
     3     6     5    2
     4     2     1    1
     5     9     1    1
     6     8     1    1
     7     1    10    1
     8     4     5    1
     9     5     7    1
