@<TRIPOS>MOLECULE
3rqx_B4P_A_2.pdb
 31 33 0 0 0
SMALL
GASTEIGER

@<TRIPOS>ATOM
      1  PA        45.7250   -5.7320   37.7140 P.3   279  B4P279      0.2189
      2  O1A       45.8440   -4.9860   39.0250 O.3   279  B4P279     -0.4371
      3  O2A       46.8310   -5.6660   36.6620 O.2   279  B4P279     -0.5170
      4  O3A       45.3450   -7.2750   38.0750 O.3   279  B4P279     -0.2700
      5  PB        46.3740   -8.4830   38.4520 P.3   279  B4P279      0.2277
      6  O1B       45.5620   -9.7410   38.7770 O.3   279  B4P279     -0.4368
      7  O2B       47.3580   -8.5740   37.2900 O.2   279  B4P279     -0.5168
      8  O3B       47.0970   -7.8560   39.8010 O.3   279  B4P279     -0.2258
      9  PG        46.4910   -7.5760   41.3070 P.3   279  B4P279      0.5373
     10  O1G       45.2960   -6.6270   41.2940 O.2   279  B4P279     -0.2221
     11  O2G       47.6500   -7.2130   42.2380 O.3   279  B4P279     -0.1143
     12  O3G       45.9430   -9.0470   41.6290 O.3   279  B4P279     -0.1143
     13  O5E       44.2600   -5.3940   37.0780 O.3   279  B4P279     -0.3112
     14  C5E       43.7960   -6.1010   35.9120 C.3   279  B4P279      0.1813
     15  C4E       43.2440   -5.1160   34.9050 C.3   279  B4P279      0.1821
     16  O4E       42.1090   -4.4680   35.5010 O.3   279  B4P279     -0.3135
     17  C3E       44.2160   -4.0040   34.5020 C.3   279  B4P279      0.2184
     18  O3E       45.1360   -4.3910   33.4590 O.3   279  B4P279     -0.2174
     19  C2E       43.2170   -2.9570   34.0540 C.3   279  B4P279      0.2570
     20  O2E       42.8030   -3.2900   32.7100 O.3   279  B4P279     -0.2130
     21  C1E       42.0390   -3.1270   35.0300 C.3   279  B4P279      0.3186
     22  N9A       42.1520   -2.1700   36.1530 N.pl3 279  B4P279     -0.1439
     23  C8A       42.7580   -2.3640   37.3570 C.3   279  B4P279      0.3377
     24  N7A       42.6680   -1.2430   38.1210 N.2   279  B4P279     -0.2095
     25  C5A       41.9960   -0.2790   37.4000 C.2   279  B4P279      0.2526
     26  C6A       41.5670    1.0370   37.6010 C.2   279  B4P279      0.4393
     27  N6A       41.8200    1.7120   38.7560 N.pl3 279  B4P279      0.2180
     28  N1A       40.8790    1.6790   36.6160 N.2   279  B4P279      0.0021
     29  C2A       40.6040    1.0330   35.4420 C.3   279  B4P279      0.5254
     30  N3A       40.9820   -0.2410   35.1660 N.2   279  B4P279     -0.0055
     31  C4A       41.6590   -0.9330   36.1050 C.2   279  B4P279      0.3518
@<TRIPOS>BOND
     1    20    19    1
     2    18    17    1
     3    19    17    1
     4    19    21    1
     5    17    15    1
     6    15    16    1
     7    15    14    1
     8    21    16    1
     9    21    22    1
    10    30    29    1
    11    30    31    2
    12    29    28    1
    13    14    13    1
    14    31    22    1
    15    31    25    1
    16    22    23    1
    17    28    26    2
    18     3     1    2
    19    13     1    1
    20     7     5    2
    21    23    24    1
    22    25    26    1
    23    25    24    2
    24    26    27    1
    25     1     4    1
    26     1     2    1
    27     4     5    1
    28     5     6    1
    29     5     8    1
    30     8     9    1
    31    10     9    2
    32     9    12    1
    33     9    11    1
