@<TRIPOS>MOLECULE
3rr3_HEM_A_1.pdb
 43 50 0 0 0
SMALL
GASTEIGER

@<TRIPOS>ATOM
      1  CHA       18.1700  -31.0280  -65.2650 C.2   682  HEM682      0.0000
      2  CHB       14.7880  -30.2860  -68.7230 C.2   682  HEM682      0.0000
      3  CHC       14.7020  -25.6100  -67.5910 C.2   682  HEM682      0.0000
      4  CHD       17.6050  -26.3710  -63.7940 C.2   682  HEM682      0.0000
      5  C1A       17.3080  -31.2090  -66.3350 C.ar  682  HEM682      0.0000
      6  C2A       17.1700  -32.4190  -67.1290 C.ar  682  HEM682      0.0000
      7  C3A       16.2380  -32.2000  -68.0690 C.ar  682  HEM682      0.0000
      8  C4A       15.7500  -30.8550  -67.9160 C.ar  682  HEM682      0.0000
      9  CMA       15.7260  -33.1660  -69.1640 C.3   682  HEM682      0.0000
     10  CAA       17.9560  -33.7290  -66.9120 C.3   682  HEM682      0.0000
     11  CBA       17.2940  -34.4860  -65.7620 C.3   682  HEM682      0.0000
     12  CGA       18.1110  -35.7110  -65.4170 C.2   682  HEM682      0.0000
     13  O1A       17.7340  -36.4380  -64.4380 O.co2 682  HEM682      0.0000
     14  O2A       19.1350  -35.9410  -66.1350 O.co2 682  HEM682      0.0000
     15  C1B       14.5800  -28.9310  -68.8180 C.2   682  HEM682      0.0000
     16  C2B       13.9830  -28.2060  -69.9250 C.2   682  HEM682      0.0000
     17  C3B       13.9740  -26.9060  -69.6100 C.2   682  HEM682      0.0000
     18  C4B       14.5510  -26.7800  -68.2870 C.2   682  HEM682      0.0000
     19  CMB       13.4640  -28.8440  -71.2290 C.3   682  HEM682      0.0000
     20  CAB       13.4480  -25.7110  -70.4430 C.2   682  HEM682      0.0000
     21  CBB       12.8150  -25.8750  -71.6050 C.2   682  HEM682      0.0000
     22  C1C       15.4660  -25.4220  -66.4690 C.ar  682  HEM682      0.0000
     23  C2C       15.6670  -24.1500  -65.8350 C.ar  682  HEM682      0.0000
     24  C3C       16.4610  -24.3260  -64.8000 C.ar  682  HEM682      0.0000
     25  C4C       16.7990  -25.7390  -64.7180 C.ar  682  HEM682      0.0000
     26  CMC       15.0720  -22.8000  -66.2810 C.3   682  HEM682      0.0000
     27  CAC       16.8850  -23.1510  -63.9000 C.2   682  HEM682      0.0000
     28  CBC       17.8420  -23.3030  -62.9900 C.2   682  HEM682      0.0000
     29  C1D       18.1420  -27.6480  -63.8940 C.2   682  HEM682      0.0000
     30  C2D       19.2990  -28.1500  -63.1700 C.2   682  HEM682      0.0000
     31  C3D       19.4930  -29.5960  -63.6100 C.2   682  HEM682      0.0000
     32  C4D       18.4230  -29.8490  -64.5760 C.2   682  HEM682      0.0000
     33  CMD       20.1920  -27.4230  -62.1500 C.3   682  HEM682      0.0000
     34  CAD       20.6240  -30.5060  -63.0730 C.3   682  HEM682      0.0000
     35  CBD       21.1880  -31.3090  -64.2330 C.3   682  HEM682      0.0000
     36  CGD       22.6790  -31.4760  -64.1380 C.2   682  HEM682      0.0000
     37  O1D       23.2270  -31.6130  -63.0080 O.co2 682  HEM682      0.0000
     38  O2D       23.3100  -31.4820  -65.2280 O.co2 682  HEM682      0.0000
     39  NA        16.4230  -30.2730  -66.8480 N.ar  682  HEM682      0.0000
     40  NB        14.9150  -28.0260  -67.8290 N.2   682  HEM682      0.0000
     41  NC        16.1650  -26.3760  -65.7620 N.ar  682  HEM682      0.0000
     42  ND        17.6640  -28.6800  -64.7050 N.2   682  HEM682      0.0000
     43 FE         16.2030  -28.3720  -66.1680 Fe    682  HEM682      0.0000
@<TRIPOS>BOND
     1    21    20    2
     2    19    16    1
     3    20    17    1
     4    16    17    2
     5    16    15    1
     6    17    18    1
     7     9     7    1
     8    15     2    1
     9    15    40    2
    10     2     8    2
    11    18    40    1
    12    18     3    2
    13     7     8   ar
    14     7     6   ar
    15     8    39   ar
    16    40    43    1
    17     3    22    1
    18     6    10    1
    19     6     5   ar
    20    10    11    1
    21    39     5   ar
    22    39    43    1
    23    22    23   ar
    24    22    41   ar
    25     5     1    2
    26    26    23    1
    27    43    41    1
    28    43    42    1
    29    14    12   ar
    30    23    24   ar
    31    11    12    1
    32    41    25   ar
    33    12    13   ar
    34     1    32    1
    35    38    36   ar
    36    24    25   ar
    37    24    27    1
    38    25     4    1
    39    42    32    2
    40    42    29    1
    41    32    31    1
    42    35    36    1
    43    35    34    1
    44    36    37   ar
    45    27    28    2
    46    29     4    2
    47    29    30    1
    48    31    30    2
    49    31    34    1
    50    30    33    1
