@<TRIPOS>MOLECULE
3rr3_FLR_A_1.pdb
 18 19 0 0 0
SMALL
GASTEIGER

@<TRIPOS>ATOM
      1  C1        21.1880  -17.5930  -55.5490 C.ar  700  FLR700      0.0001
      2  C         20.8870  -18.7930  -56.1830 C.ar  700  FLR700      0.0000
      3  C5        20.0720  -19.7160  -55.5480 C.ar  700  FLR700      0.0000
      4  C4        19.5470  -19.4390  -54.2960 C.ar  700  FLR700      0.0000
      5  C3        19.8560  -18.2450  -53.6680 C.ar  700  FLR700      0.0001
      6  C2        20.6560  -17.3070  -54.3000 C.ar  700  FLR700      0.0022
      7  C6        21.0200  -16.0490  -53.5790 C.ar  700  FLR700      0.0275
      8  C11       20.1320  -15.3230  -52.7870 C.ar  700  FLR700      0.1398
      9  C10       20.5690  -14.1840  -52.1100 C.ar  700  FLR700      0.0259
     10  F         18.8690  -15.7050  -52.6930 F     700  FLR700     -0.2042
     11  C7        22.3480  -15.6540  -53.6550 C.ar  700  FLR700      0.0019
     12  C8        22.7830  -14.5270  -52.9830 C.ar  700  FLR700     -0.0036
     13  C9        21.9030  -13.7870  -52.2140 C.ar  700  FLR700     -0.0096
     14  C12       22.4490  -12.5870  -51.5050 C.3   700  FLR700      0.1257
     15  C13       22.1150  -11.3130  -52.2170 C.3   700  FLR700      0.0166
     16  C14       22.0460  -12.6070  -50.0440 C.2   700  FLR700      0.3683
     17  O1        20.8530  -12.4120  -49.6540 O.co2 700  FLR700     -0.2453
     18  O         22.9310  -12.8430  -49.1710 O.co2 700  FLR700     -0.2453
@<TRIPOS>BOND
     1     2     1   ar
     2     2     3   ar
     3     1     6   ar
     4     3     4   ar
     5     6     5   ar
     6     6     7    1
     7     4     5   ar
     8    11     7   ar
     9    11    12   ar
    10     7     8   ar
    11    12    13   ar
    12     8    10    1
    13     8     9   ar
    14    15    14    1
    15    13     9   ar
    16    13    14    1
    17    14    16    1
    18    16    17   ar
    19    16    18   ar
