@<TRIPOS>MOLECULE
3rr4_HRD_A_1.pdb
 18 20 0 0 0
SMALL
GASTEIGER

@<TRIPOS>ATOM
      1  N1        17.4220   17.6040   17.3780 N.2   501  HRD501     -0.3284
      2  N3        19.4830   17.9610   18.1900 N.2   501  HRD501     -0.3247
      3  C4        18.7110   17.8970   17.0850 C.1   501  HRD501      0.2200
      4  C5        18.2960   18.0280   14.6810 C.3   501  HRD501      0.1504
      5  C6        18.6620   17.6900   19.2250 C.2   501  HRD501      0.1725
      6  C7        18.9570   17.6330   20.5930 C.2   501  HRD501      0.0504
      7  C8        17.8730   17.3400   21.4360 C.2   501  HRD501      0.1247
      8  C10       15.7890   16.7750   23.1610 C.1   501  HRD501      0.2303
      9  C1        16.5730   17.1290   20.9440 C.2   501  HRD501      0.1418
     10  C2        16.3060   17.1900   19.5690 C.3   501  HRD501      0.1233
     11  C3        17.3880   17.4820   18.7290 C.2   501  HRD501      0.1600
     12  N2        19.1780   18.1000   15.8340 N.pl3 501  HRD501     -0.1499
     13  C9        18.0230   17.2800   22.8180 C.1   501  HRD501      0.2180
     14  O1        19.2380   17.4760   23.4050 O.2   501  HRD501     -0.2085
     15  N4        17.0140   16.9950   23.6690 N.2   501  HRD501     -0.2514
     16  N5        14.8110   16.5070   24.0640 N.pl3 501  HRD501     -0.1493
     17  C11       13.4580   16.2950   23.5670 C.3   501  HRD501      0.1505
     18  N6        15.5980   16.8390   21.8270 N.2   501  HRD501     -0.3298
@<TRIPOS>BOND
     1     4    12    1
     2    12     3    1
     3     3     1    2
     4     3     2    2
     5     1    11    2
     6     2     5    2
     7    11     5    1
     8    11    10    1
     9     5     6    1
    10    10     9    1
    11     6     7    2
    12     9     7    1
    13     9    18    2
    14     7    13    1
    15    18     8    2
    16    13    14    2
    17    13    15    2
    18     8    15    2
    19     8    16    1
    20    17    16    1
