@<TRIPOS>MOLECULE
3rr8_DG3_A_1.pdb
 30 32 0 0 0
SMALL
GASTEIGER

@<TRIPOS>ATOM
      1  PG        14.3810   -8.4230  -11.2380 P.3     1  DG31        0.5373
      2  O1G       14.6180   -9.0910   -9.9050 O.3     1  DG31       -0.1143
      3  O2G       15.4700   -7.4650  -11.6580 O.2     1  DG31       -0.2221
      4  O3G       12.9790   -7.9020  -11.4310 O.3     1  DG31       -0.1143
      5  O3B       14.5010   -9.6330  -12.2920 O.3     1  DG31       -0.2258
      6  PB        15.9330  -10.3190  -12.5490 P.3     1  DG31        0.2277
      7  O1B       16.7940  -10.1040  -11.3270 O.3     1  DG31       -0.4368
      8  O2B       16.4330   -9.8740  -13.9030 O.2     1  DG31       -0.5168
      9  O3A       15.5540  -11.8800  -12.6450 O.3     1  DG31       -0.2700
     10  PA        15.7280  -12.8020  -11.3390 P.3     1  DG31        0.2189
     11  O1A       15.0940  -14.1440  -11.6150 O.2     1  DG31       -0.5170
     12  O2A       15.3050  -12.0050  -10.1290 O.3     1  DG31       -0.4371
     13  O5'       17.3240  -12.9920  -11.2910 O.3     1  DG31       -0.3113
     14  C5'       18.0300  -12.7440  -10.0790 C.3     1  DG31        0.1785
     15  C4'       19.4980  -13.0800  -10.2790 C.3     1  DG31        0.1471
     16  O4'       20.1410  -13.0940   -9.0030 O.3     1  DG31       -0.3374
     17  C3'       19.5910  -14.4810  -10.8600 C.3     1  DG31        0.0366
     18  C2'       20.0430  -15.3560   -9.7060 C.3     1  DG31        0.0536
     19  C1'       20.6610  -14.3920   -8.7040 C.3     1  DG31        0.1954
     20  N9        20.3160  -14.7490   -7.3040 N.pl3   1  DG31       -0.2375
     21  C8        20.2780  -13.8870   -6.2700 C.3     1  DG31        0.2245
     22  N7        19.9330  -14.5150   -5.1170 N.2     1  DG31       -0.2322
     23  C5        19.7450  -15.8160   -5.4100 C.2     1  DG31        0.2182
     24  C6        19.3670  -17.0370   -4.6590 C.1     1  DG31        0.2372
     25  O6        19.1350  -16.9910   -3.4310 O.2     1  DG31       -0.2069
     26  N1        19.2820  -18.1910   -5.3330 N.2     1  DG31       -0.2485
     27  C2        19.5260  -18.2750   -6.6540 C.1     1  DG31        0.2531
     28  N2        19.4180  -19.4810   -7.2630 N.pl3   1  DG31       -0.0226
     29  N3        19.8760  -17.1980   -7.4030 N.2     1  DG31       -0.3074
     30  C4        20.0020  -15.9670   -6.8500 C.2     1  DG31        0.2299
@<TRIPOS>BOND
     1     8     6    2
     2     9     6    1
     3     9    10    1
     4     6     5    1
     5     6     7    1
     6     5     1    1
     7     3     1    2
     8    11    10    2
     9     4     1    1
    10    10    13    1
    11    10    12    1
    12    13    14    1
    13     1     2    1
    14    17    15    1
    15    17    18    1
    16    15    14    1
    17    15    16    1
    18    18    19    1
    19    16    19    1
    20    19    20    1
    21    29    30    2
    22    29    27    2
    23    20    30    1
    24    20    21    1
    25    28    27    1
    26    30    23    1
    27    27    26    2
    28    21    22    1
    29    23    22    2
    30    23    24    1
    31    26    24    2
    32    24    25    2
