@<TRIPOS>MOLECULE
3rrb_AMP_A_1.pdb
 23 25 0 0 0
SMALL
GASTEIGER

@<TRIPOS>ATOM
      1  P         -4.9910   23.7990   40.2000 P.3   492  AMP492      0.5327
      2  O1P       -5.8450   22.6110   40.5110 O.3   492  AMP492     -0.1145
      3  O2P       -5.8710   24.9630   39.7360 O.2   492  AMP492     -0.2224
      4  O3P       -3.8660   23.9940   41.1930 O.3   492  AMP492     -0.1145
      5  O5'       -4.1980   23.4910   38.8100 O.3   492  AMP492     -0.2675
      6  C5'       -4.9140   23.3400   37.5920 C.3   492  AMP492      0.1860
      7  C4'       -3.9170   23.2590   36.4670 C.3   492  AMP492      0.1823
      8  O4'       -4.5470   22.9290   35.2220 O.3   492  AMP492     -0.3135
      9  C3'       -3.3360   24.6350   36.1900 C.3   492  AMP492      0.2184
     10  O3'       -2.0780   24.4050   35.5970 O.3   492  AMP492     -0.2174
     11  C2'       -4.2770   25.2800   35.1930 C.3   492  AMP492      0.2570
     12  O2'       -3.7330   26.3300   34.4140 O.3   492  AMP492     -0.2130
     13  C1'       -4.6290   24.0770   34.3410 C.3   492  AMP492      0.3186
     14  N9        -6.0040   24.1350   33.7920 N.pl3 492  AMP492     -0.1439
     15  C8        -7.1550   23.9810   34.4920 C.3   492  AMP492      0.3377
     16  N7        -8.2360   24.0680   33.6620 N.2   492  AMP492     -0.2095
     17  C5        -7.7700   24.2800   32.4290 C.2   492  AMP492      0.2526
     18  C6        -8.3620   24.4540   31.0970 C.2   492  AMP492      0.4393
     19  N6        -9.6890   24.4320   30.9450 N.pl3 492  AMP492      0.2180
     20  N1        -7.5560   24.6670   30.0490 N.2   492  AMP492      0.0021
     21  C2        -6.2160   24.7160   30.1990 C.3   492  AMP492      0.5254
     22  N3        -5.6000   24.5490   31.3970 N.2   492  AMP492     -0.0055
     23  C4        -6.3100   24.3340   32.5200 C.2   492  AMP492      0.3518
@<TRIPOS>BOND
     1    20    21    1
     2    20    18    2
     3    21    22    1
     4    19    18    1
     5    18    17    1
     6    22    23    2
     7    17    23    1
     8    17    16    2
     9    23    14    1
    10    16    15    1
    11    14    13    1
    12    14    15    1
    13    13    11    1
    14    13     8    1
    15    12    11    1
    16    11     9    1
    17     8     7    1
    18    10     9    1
    19     9     7    1
    20     7     6    1
    21     6     5    1
    22     5     1    1
    23     3     1    2
    24     1     2    1
    25     1     4    1
