@<TRIPOS>MOLECULE
3rre_ADP_A_1.pdb
 27 29 0 0 0
SMALL
GASTEIGER

@<TRIPOS>ATOM
      1  PB        -5.4910  -21.1740  -41.3310 P.3   493  ADP493      0.5373
      2  O1B       -5.0120  -21.9190  -42.5630 O.2   493  ADP493     -0.2221
      3  O2B       -4.3820  -20.1910  -41.0650 O.3   493  ADP493     -0.1143
      4  O3B       -6.8780  -20.6340  -41.4240 O.3   493  ADP493     -0.1143
      5  PA        -5.0440  -23.8640  -40.1670 P.3   493  ADP493      0.2231
      6  O1A       -3.9250  -24.1270  -41.1590 O.2   493  ADP493     -0.5169
      7  O2A       -6.0210  -24.8770  -39.6590 O.3   493  ADP493     -0.4370
      8  O3A       -5.8370  -22.4270  -40.3150 O.3   493  ADP493     -0.2261
      9  O5'       -4.2430  -23.5700  -38.7510 O.3   493  ADP493     -0.3111
     10  C5'       -5.0010  -23.2640  -37.5540 C.3   493  ADP493      0.1813
     11  C4'       -4.0080  -23.2570  -36.3900 C.3   493  ADP493      0.1821
     12  O4'       -4.6700  -22.8740  -35.1990 O.3   493  ADP493     -0.3135
     13  C3'       -3.4930  -24.6630  -36.1050 C.3   493  ADP493      0.2184
     14  O3'       -2.2350  -24.5430  -35.5140 O.3   493  ADP493     -0.2174
     15  C2'       -4.4640  -25.2160  -35.0940 C.3   493  ADP493      0.2570
     16  O2'       -3.8400  -26.2800  -34.3710 O.3   493  ADP493     -0.2130
     17  C1'       -4.8160  -23.9590  -34.3010 C.3   493  ADP493      0.3186
     18  N9        -6.1890  -23.9820  -33.7700 N.pl3 493  ADP493     -0.1439
     19  C8        -7.3520  -23.7700  -34.4230 C.3   493  ADP493      0.3377
     20  N7        -8.4080  -23.8990  -33.5700 N.2   493  ADP493     -0.2095
     21  C5        -7.8890  -24.1880  -32.3590 C.2   493  ADP493      0.2526
     22  C6        -8.4240  -24.4770  -31.0250 C.2   493  ADP493      0.4393
     23  N6        -9.7360  -24.4480  -30.8290 N.pl3 493  ADP493      0.2180
     24  N1        -7.5630  -24.7230  -30.0290 N.2   493  ADP493      0.0021
     25  C2        -6.2420  -24.7660  -30.2140 C.3   493  ADP493      0.5254
     26  N3        -5.6700  -24.5450  -31.3980 N.2   493  ADP493     -0.0055
     27  C4        -6.4450  -24.2460  -32.4830 C.2   493  ADP493      0.3518
@<TRIPOS>BOND
     1     2     1    2
     2     4     1    1
     3     1     3    1
     4     1     8    1
     5     6     5    2
     6     8     5    1
     7     5     7    1
     8     5     9    1
     9     9    10    1
    10    10    11    1
    11    11    13    1
    12    11    12    1
    13    13    14    1
    14    13    15    1
    15    12    17    1
    16    15    16    1
    17    15    17    1
    18    19    18    1
    19    19    20    1
    20    17    18    1
    21    18    27    1
    22    20    21    2
    23    27    21    1
    24    27    26    2
    25    21    22    1
    26    26    25    1
    27    22    23    1
    28    22    24    2
    29    25    24    1
