@<TRIPOS>MOLECULE
3rrf_ATP_A_1.pdb
 31 33 0 0 0
SMALL
GASTEIGER

@<TRIPOS>ATOM
      1  PG        -8.1460  -50.9960  -15.4360 P.3   493  ATP493      0.5373
      2  O1G       -8.0390  -51.8020  -16.7410 O.2   493  ATP493     -0.2221
      3  O2G       -7.0330  -51.4030  -14.4820 O.3   493  ATP493     -0.1143
      4  O3G       -8.3070  -49.4890  -15.6280 O.3   493  ATP493     -0.1143
      5  PB       -11.0500  -51.5360  -15.4020 P.3   493  ATP493      0.2277
      6  O1B      -11.2330  -50.4300  -16.4530 O.2   493  ATP493     -0.5168
      7  O2B      -12.0670  -51.6890  -14.2850 O.3   493  ATP493     -0.4368
      8  O3B       -9.5580  -51.4440  -14.7040 O.3   493  ATP493     -0.2258
      9  PA       -10.8650  -54.3150  -15.7530 P.3   493  ATP493      0.2189
     10  O1A      -10.0860  -54.3890  -14.4300 O.3   493  ATP493     -0.4371
     11  O2A      -10.5200  -55.2100  -16.9800 O.2   493  ATP493     -0.5170
     12  O3A      -10.8220  -52.8300  -16.3140 O.3   493  ATP493     -0.2700
     13  O5'      -12.4710  -54.4100  -15.5010 O.3   493  ATP493     -0.3112
     14  C5'      -13.4520  -53.6280  -16.1910 C.3   493  ATP493      0.1813
     15  C4'      -14.6700  -54.5130  -16.4190 C.3   493  ATP493      0.1821
     16  O4'      -15.8620  -53.7350  -16.6490 O.3   493  ATP493     -0.3135
     17  C3'      -14.5120  -55.4100  -17.6670 C.3   493  ATP493      0.2184
     18  O3'      -13.7420  -56.6170  -17.5120 O.3   493  ATP493     -0.2174
     19  C2'      -15.9500  -55.7060  -18.0510 C.3   493  ATP493      0.2570
     20  O2'      -16.4730  -56.8760  -17.4410 O.3   493  ATP493     -0.2130
     21  C1'      -16.7060  -54.4730  -17.5560 C.3   493  ATP493      0.3186
     22  N9       -17.0020  -53.7040  -18.7760 N.pl3 493  ATP493     -0.1439
     23  C8       -16.0600  -53.2280  -19.6400 C.3   493  ATP493      0.3377
     24  N7       -16.6370  -52.5710  -20.6650 N.2   493  ATP493     -0.2095
     25  C5       -17.9650  -52.6570  -20.4510 C.2   493  ATP493      0.2526
     26  C6       -19.1340  -52.1670  -21.1650 C.2   493  ATP493      0.4393
     27  N6       -18.8910  -51.4700  -22.3040 N.pl3 493  ATP493      0.2180
     28  N1       -20.3590  -52.4250  -20.6470 N.2   493  ATP493      0.0021
     29  C2       -20.5280  -53.1290  -19.5070 C.3   493  ATP493      0.5254
     30  N3       -19.4800  -53.6050  -18.8080 N.2   493  ATP493     -0.0055
     31  C4       -18.2140  -53.4100  -19.2230 C.2   493  ATP493      0.3518
@<TRIPOS>BOND
     1    27    26    1
     2    26    28    2
     3    26    25    1
     4    24    25    2
     5    24    23    1
     6    28    29    1
     7    25    31    1
     8    23    22    1
     9    29    30    1
    10    31    30    2
    11    31    22    1
    12    22    21    1
    13    19    17    1
    14    19    21    1
    15    19    20    1
    16    17    18    1
    17    17    15    1
    18    21    16    1
    19    11     9    2
    20     2     1    2
    21    16    15    1
    22     6     5    2
    23    15    14    1
    24    12     9    1
    25    12     5    1
    26    14    13    1
    27     9    13    1
    28     9    10    1
    29     4     1    1
    30     1     8    1
    31     1     3    1
    32     5     8    1
    33     5     7    1
