@<TRIPOS>MOLECULE
3rrg_DG3_A_1.pdb
 30 32 0 0 0
SMALL
GASTEIGER

@<TRIPOS>ATOM
      1  PG        15.3410   -9.6190  -11.6870 P.3     1  DG31        0.5373
      2  O1G       16.5410   -9.3300  -12.5570 O.2     1  DG31       -0.2221
      3  O2G       14.1070  -10.0490  -12.4430 O.3     1  DG31       -0.1143
      4  O3G       15.0890   -8.5870  -10.6120 O.3     1  DG31       -0.1143
      5  O3B       15.7600  -10.9380  -10.8660 O.3     1  DG31       -0.2258
      6  PB        16.0710  -12.3190  -11.6300 P.3     1  DG31        0.2277
      7  O1B       16.9060  -12.0080  -12.8510 O.2     1  DG31       -0.5168
      8  O2B       14.7700  -13.0720  -11.7800 O.3     1  DG31       -0.4368
      9  O3A       16.9610  -13.1080  -10.5400 O.3     1  DG31       -0.2700
     10  PA        18.5720  -13.1220  -10.5910 P.3     1  DG31        0.2189
     11  O1A       19.0770  -12.1760   -9.5270 O.3     1  DG31       -0.4371
     12  O2A       19.0330  -12.9600  -12.0200 O.2     1  DG31       -0.5170
     13  O5'       18.9220  -14.6240  -10.1270 O.3     1  DG31       -0.3113
     14  C5'       20.0830  -15.2540  -10.6600 C.3     1  DG31        0.1785
     15  C4'       20.1570  -16.7210  -10.2510 C.3     1  DG31        0.1471
     16  O4'       20.6500  -16.8490   -8.9180 O.3     1  DG31       -0.3374
     17  C3'       18.7880  -17.3950  -10.2820 C.3     1  DG31        0.0366
     18  C2'       18.7140  -18.2280   -9.0080 C.3     1  DG31        0.0536
     19  C1'       20.0480  -17.9930   -8.3100 C.3     1  DG31        0.1954
     20  N9        19.8990  -17.7860   -6.8470 N.pl3   1  DG31       -0.2375
     21  C8        19.5880  -18.7260   -5.9340 C.3     1  DG31        0.2245
     22  N7        19.5470  -18.1960   -4.6840 N.2     1  DG31       -0.2322
     23  C5        19.8460  -16.8870   -4.7890 C.2     1  DG31        0.2182
     24  C6        19.9800  -15.7390   -3.8600 C.1     1  DG31        0.2372
     25  O6        19.7970  -15.8790   -2.6310 O.2     1  DG31       -0.2069
     26  N1        20.3050  -14.5450   -4.3780 N.2     1  DG31       -0.2485
     27  C2        20.5110  -14.3610   -5.6970 C.1     1  DG31        0.2531
     28  N2        20.8370  -13.1230   -6.1420 N.pl3   1  DG31       -0.0226
     29  N3        20.4050  -15.3670   -6.6030 N.2     1  DG31       -0.3074
     30  C4        20.0870  -16.6250   -6.2150 C.2     1  DG31        0.2299
@<TRIPOS>BOND
     1     7     6    2
     2     2     1    2
     3     3     1    1
     4    12    10    2
     5     8     6    1
     6     1     5    1
     7     1     4    1
     8     6     5    1
     9     6     9    1
    10    14    15    1
    11    14    13    1
    12    10     9    1
    13    10    13    1
    14    10    11    1
    15    17    15    1
    16    17    18    1
    17    15    16    1
    18    18    19    1
    19    16    19    1
    20    19    20    1
    21    20    30    1
    22    20    21    1
    23    29    30    2
    24    29    27    2
    25    30    23    1
    26    28    27    1
    27    21    22    1
    28    27    26    2
    29    23    22    2
    30    23    24    1
    31    26    24    2
    32    24    25    2
