@<TRIPOS>MOLECULE
3rrh_TTP_A_1.pdb
 28 29 0 0 0
SMALL
GASTEIGER

@<TRIPOS>ATOM
      1  PA        18.5140  -11.7870   -9.8880 P.3     1  TTP1        0.2189
      2  O1A       18.4850  -10.9450   -8.6400 O.3     1  TTP1       -0.4371
      3  O2A       18.9290  -10.9720  -11.0920 O.2     1  TTP1       -0.5170
      4  O3A       17.0970  -12.5070  -10.1110 O.3     1  TTP1       -0.2700
      5  PB        16.0720  -12.0280  -11.2480 P.3     1  TTP1        0.2277
      6  O1B       16.7370  -11.7790  -12.5840 O.2     1  TTP1       -0.5168
      7  O2B       14.9890  -13.0700  -11.3700 O.3     1  TTP1       -0.4368
      8  O3B       15.4880  -10.6790  -10.6010 O.3     1  TTP1       -0.2258
      9  PG        15.3740   -9.3140  -11.4410 P.3     1  TTP1        0.5373
     10  O1G       16.6190   -9.1070  -12.2660 O.3     1  TTP1       -0.1143
     11  O2G       15.2250   -8.1590  -10.4750 O.3     1  TTP1       -0.1143
     12  O3G       14.1610   -9.3920  -12.3320 O.2     1  TTP1       -0.2221
     13  O5'       19.4650  -13.0630   -9.6760 O.3     1  TTP1       -0.3113
     14  C5'       20.2770  -13.5110  -10.7560 C.3     1  TTP1        0.1785
     15  C4'       20.4450  -15.0150  -10.6130 C.3     1  TTP1        0.1472
     16  O4'       20.7020  -15.3260   -9.2440 O.3     1  TTP1       -0.3366
     17  C3'       19.1790  -15.7580  -11.0100 C.3     1  TTP1        0.0366
     18  C2'       18.9520  -16.7810   -9.9100 C.3     1  TTP1        0.0545
     19  C1'       20.0520  -16.5400   -8.8830 C.3     1  TTP1        0.2063
     20  N1        19.4900  -16.4440   -7.5300 N.am    1  TTP1       -0.1795
     21  C2        19.3790  -17.6370   -6.7970 C.1     1  TTP1        0.2844
     22  O2        19.7760  -18.6930   -7.3410 O.2     1  TTP1       -0.1918
     23  N3        18.8700  -17.6510   -5.5560 N.2     1  TTP1       -0.2455
     24  C4        18.4470  -16.5170   -4.9860 C.1     1  TTP1        0.2134
     25  O4        17.9700  -16.5230   -3.8280 O.2     1  TTP1       -0.2088
     26  C5        18.5480  -15.2450   -5.7430 C.2     1  TTP1        0.0891
     27  C5M       18.0790  -13.9530   -5.1280 C.3     1  TTP1        0.0462
     28  C6        19.0800  -15.2740   -7.0250 C.2     1  TTP1        0.0877
@<TRIPOS>BOND
     1     6     5    2
     2    12     9    2
     3    10     9    1
     4     9     8    1
     5     9    11    1
     6     7     5    1
     7     5     8    1
     8     5     4    1
     9     3     1    2
    10    17    15    1
    11    17    18    1
    12    14    15    1
    13    14    13    1
    14    15    16    1
    15     4     1    1
    16    18    19    1
    17     1    13    1
    18     1     2    1
    19    16    19    1
    20    19    20    1
    21    20    28    1
    22    20    21   am
    23    22    21    2
    24    28    26    2
    25    21    23    2
    26    26    27    1
    27    26    24    1
    28    23    24    2
    29    24    25    2
