@<TRIPOS>MOLECULE
3rrj_AP5_A_1.pdb
 31 33 0 0 0
SMALL
GASTEIGER

@<TRIPOS>ATOM
      1  PA        51.7060  -12.0370   62.0760 P.3   492  AP5492      0.2189
      2  O1A       51.3890  -12.2800   63.5240 O.3   492  AP5492     -0.4371
      3  O2A       50.5720  -12.3930   61.1500 O.2   492  AP5492     -0.5170
      4  O3A       52.0480  -10.4960   61.8330 O.3   492  AP5492     -0.2700
      5  PB        53.4740   -9.8700   62.1370 P.3   492  AP5492      0.2277
      6  O1B       54.5140  -10.9660   62.0760 O.2   492  AP5492     -0.5168
      7  O2B       53.4800   -9.3600   63.5410 O.3   492  AP5492     -0.4368
      8  O3B       53.6900   -8.7010   61.0300 O.3   492  AP5492     -0.2258
      9  PG        54.7760   -8.7050   59.8020 P.3   492  AP5492      0.5373
     10  O1G       54.0990   -8.7290   58.4410 O.2   492  AP5492     -0.2221
     11  O2G       55.7200   -9.8930   59.9040 O.3   492  AP5492     -0.1143
     12  O3G       55.5310   -7.2540   59.8440 O.3   492  AP5492     -0.1143
     13  O5F       52.9520  -12.9580   61.7030 O.3   492  AP5492     -0.3112
     14  C5F       52.6600  -14.3030   61.4390 C.3   492  AP5492      0.1813
     15  C4F       53.9260  -15.0840   61.1690 C.3   492  AP5492      0.1821
     16  O4F       53.5210  -16.4220   60.9760 O.3   492  AP5492     -0.3135
     17  C3F       54.6790  -14.7090   59.8880 C.3   492  AP5492      0.2184
     18  O3F       55.6130  -13.6660   59.9910 O.3   492  AP5492     -0.2174
     19  C2F       55.3440  -16.0230   59.5120 C.3   492  AP5492      0.2570
     20  O2F       56.5620  -16.2590   60.1940 O.3   492  AP5492     -0.2130
     21  C1F       54.2680  -17.0280   59.9210 C.3   492  AP5492      0.3186
     22  N9A       53.4580  -17.3560   58.7100 N.pl3 492  AP5492     -0.1439
     23  C8A       53.0220  -16.4900   57.7100 C.3   492  AP5492      0.3377
     24  N7A       52.3420  -17.2040   56.7880 N.2   492  AP5492     -0.2095
     25  C5A       52.3530  -18.4900   57.1860 C.2   492  AP5492      0.2526
     26  C6A       51.8120  -19.6020   56.6050 C.2   492  AP5492      0.4393
     27  N6A       51.2790  -19.4280   55.4010 N.pl3 492  AP5492      0.2180
     28  N1A       51.9480  -20.8460   57.2130 N.2   492  AP5492      0.0021
     29  C2A       52.6360  -20.9480   58.4040 C.3   492  AP5492      0.5254
     30  N3A       53.1730  -19.8100   58.9790 N.2   492  AP5492     -0.0055
     31  C4A       53.0370  -18.6120   58.3760 C.2   492  AP5492      0.3518
@<TRIPOS>BOND
     1    27    26    1
     2    26    25    1
     3    26    28    2
     4    24    25    2
     5    24    23    1
     6    25    31    1
     7    28    29    1
     8    23    22    1
     9    31    22    1
    10    31    30    2
    11    29    30    1
    12    10     9    2
    13    22    21    1
    14    19    17    1
    15    19    21    1
    16    19    20    1
    17     9    12    1
    18     9    11    1
    19     9     8    1
    20    17    18    1
    21    17    15    1
    22    21    16    1
    23    16    15    1
    24     8     5    1
    25     3     1    2
    26    15    14    1
    27    14    13    1
    28    13     1    1
    29     4     1    1
    30     4     5    1
    31     1     2    1
    32     6     5    2
    33     5     7    1
