@<TRIPOS>MOLECULE
3rry_GNP_A_1.pdb
 32 34 0 0 0
SMALL
GASTEIGER

@<TRIPOS>ATOM
      1  PG        -9.8880   64.6780  -67.4760 P.3   190  GNP190      0.4884
      2  O1G       -8.9140   64.2940  -66.3720 O.3   190  GNP190     -0.1240
      3  O2G      -10.8460   65.7270  -67.0300 O.3   190  GNP190     -0.1240
      4  O3G      -10.5650   63.4210  -67.9330 O.2   190  GNP190     -0.2331
      5  N3B       -9.0330   65.2640  -68.7230 N.3   190  GNP190     -0.0163
      6  PB        -9.5330   65.8910  -70.1320 P.3   190  GNP190      0.4669
      7  O1B       -9.9300   64.8460  -71.1290 O.2   190  GNP190     -0.2351
      8  O2B      -10.5780   66.9070  -69.8630 O.3   190  GNP190     -0.1253
      9  O3A       -8.3000   66.6580  -70.7070 O.3   190  GNP190     -0.2360
     10  PA        -7.9530   68.1910  -70.7310 P.3   190  GNP190      0.2220
     11  O1A       -8.8620   68.9130  -71.6480 O.2   190  GNP190     -0.5170
     12  O2A       -7.7600   68.6860  -69.3340 O.3   190  GNP190     -0.4370
     13  O5'       -6.5660   68.2400  -71.4810 O.3   190  GNP190     -0.3111
     14  C5'       -5.4370   67.5200  -70.9590 C.3   190  GNP190      0.1813
     15  C4'       -4.1650   68.1680  -71.4670 C.3   190  GNP190      0.1799
     16  O4'       -4.1290   68.0050  -72.9090 O.3   190  GNP190     -0.3326
     17  C3'       -4.0500   69.6730  -71.2190 C.3   190  GNP190      0.2158
     18  O3'       -2.6930   70.0000  -70.9130 O.3   190  GNP190     -0.2175
     19  C2'       -4.5200   70.2910  -72.5370 C.3   190  GNP190      0.2310
     20  O2'       -3.9150   71.5280  -72.8530 O.3   190  GNP190     -0.2158
     21  C1'       -4.0310   69.2590  -73.5450 C.3   190  GNP190      0.2293
     22  N9        -4.8260   69.2050  -74.7600 N.pl3 190  GNP190     -0.2354
     23  C8        -6.1800   68.9910  -74.8690 C.3   190  GNP190      0.2246
     24  N7        -6.5940   69.0070  -76.1030 N.2   190  GNP190     -0.2322
     25  C5        -5.4460   69.2120  -76.8560 C.2   190  GNP190      0.2182
     26  C6        -5.2880   69.3120  -78.2530 C.1   190  GNP190      0.2372
     27  O6        -6.1720   69.2150  -79.1130 O.2   190  GNP190     -0.2069
     28  N1        -3.9650   69.5380  -78.6230 N.2   190  GNP190     -0.2485
     29  C2        -2.9210   69.6630  -77.7280 C.1   190  GNP190      0.2531
     30  N2        -1.6960   69.8730  -78.2430 N.pl3 190  GNP190     -0.0226
     31  N3        -3.0640   69.5640  -76.4180 N.2   190  GNP190     -0.3074
     32  C4        -4.3480   69.3410  -76.0500 C.2   190  GNP190      0.2300
@<TRIPOS>BOND
     1    27    26    2
     2    28    26    2
     3    28    29    2
     4    26    25    1
     5    30    29    1
     6    29    31    2
     7    25    24    2
     8    25    32    1
     9    31    32    2
    10    24    23    1
    11    32    22    1
    12    23    22    1
    13    22    21    1
    14    21    16    1
    15    21    19    1
    16    16    15    1
    17    20    19    1
    18    19    17    1
    19    11    10    2
    20    13    14    1
    21    13    10    1
    22    15    17    1
    23    15    14    1
    24    17    18    1
    25     7     6    2
    26    10     9    1
    27    10    12    1
    28     9     6    1
    29     6     8    1
    30     6     5    1
    31     5     1    1
    32     4     1    2
    33     1     3    1
    34     1     2    1
