@<TRIPOS>MOLECULE
3rrz_GNP_A_1.pdb
 32 34 0 0 0
SMALL
GASTEIGER

@<TRIPOS>ATOM
      1  PG       -10.2680   64.9280  -67.3460 P.3   190  GNP190      0.4884
      2  O1G       -9.3080   64.6100  -66.2200 O.3   190  GNP190     -0.1240
      3  O2G      -11.2830   65.9420  -66.9440 O.3   190  GNP190     -0.1240
      4  O3G      -10.8720   63.6510  -67.8450 O.2   190  GNP190     -0.2331
      5  N3B       -9.3830   65.5460  -68.5660 N.3   190  GNP190     -0.0163
      6  PB        -9.8930   66.1670  -69.9770 P.3   190  GNP190      0.4669
      7  O1B      -10.1990   65.0770  -70.9540 O.2   190  GNP190     -0.2351
      8  O2B      -10.9760   67.1170  -69.7080 O.3   190  GNP190     -0.1253
      9  O3A       -8.6650   66.9550  -70.5310 O.3   190  GNP190     -0.2360
     10  PA        -8.3910   68.5050  -70.5600 P.3   190  GNP190      0.2220
     11  O1A       -9.3390   69.1620  -71.4650 O.2   190  GNP190     -0.5170
     12  O2A       -8.2990   68.9810  -69.1540 O.3   190  GNP190     -0.4370
     13  O5'       -6.9840   68.6370  -71.2590 O.3   190  GNP190     -0.3111
     14  C5'       -5.8390   67.9940  -70.7000 C.3   190  GNP190      0.1813
     15  C4'       -4.5730   68.6450  -71.2250 C.3   190  GNP190      0.1799
     16  O4'       -4.4970   68.4320  -72.6550 O.3   190  GNP190     -0.3326
     17  C3'       -4.4930   70.1570  -71.0150 C.3   190  GNP190      0.2158
     18  O3'       -3.1420   70.5100  -70.6840 O.3   190  GNP190     -0.2175
     19  C2'       -4.9600   70.7190  -72.3550 C.3   190  GNP190      0.2310
     20  O2'       -4.4250   72.0030  -72.6710 O.3   190  GNP190     -0.2158
     21  C1'       -4.4420   69.6670  -73.3340 C.3   190  GNP190      0.2293
     22  N9        -5.2290   69.5810  -74.5690 N.pl3 190  GNP190     -0.2354
     23  C8        -6.5870   69.3560  -74.6720 C.3   190  GNP190      0.2246
     24  N7        -6.9970   69.3480  -75.9060 N.2   190  GNP190     -0.2322
     25  C5        -5.8620   69.5630  -76.6700 C.2   190  GNP190      0.2182
     26  C6        -5.7180   69.6610  -78.0700 C.1   190  GNP190      0.2372
     27  O6        -6.5770   69.5570  -78.9570 O.2   190  GNP190     -0.2069
     28  N1        -4.3960   69.9030  -78.4450 N.2   190  GNP190     -0.2485
     29  C2        -3.3610   70.0410  -77.5570 C.1   190  GNP190      0.2531
     30  N2        -2.1550   70.2630  -78.1210 N.pl3 190  GNP190     -0.0226
     31  N3        -3.4840   69.9520  -76.2340 N.2   190  GNP190     -0.3074
     32  C4        -4.7660   69.7170  -75.8560 C.2   190  GNP190      0.2300
@<TRIPOS>BOND
     1    27    26    2
     2    28    26    2
     3    28    29    2
     4    30    29    1
     5    26    25    1
     6    29    31    2
     7    25    24    2
     8    25    32    1
     9    31    32    2
    10    24    23    1
    11    32    22    1
    12    23    22    1
    13    22    21    1
    14    21    16    1
    15    21    19    1
    16    20    19    1
    17    16    15    1
    18    19    17    1
    19    11    10    2
    20    13    14    1
    21    13    10    1
    22    15    17    1
    23    15    14    1
    24    17    18    1
    25     7     6    2
    26    10     9    1
    27    10    12    1
    28     9     6    1
    29     6     8    1
    30     6     5    1
    31     5     1    1
    32     4     1    2
    33     1     3    1
    34     1     2    1
