@<TRIPOS>MOLECULE
3rs0_GNP_A_1.pdb
 32 34 0 0 0
SMALL
GASTEIGER

@<TRIPOS>ATOM
      1  PG        -9.6630   63.7710  -67.0970 P.3   190  GNP190      0.4884
      2  O1G       -8.6980   63.4060  -65.9750 O.3   190  GNP190     -0.1240
      3  O2G      -10.6180   64.8310  -66.6420 O.3   190  GNP190     -0.1240
      4  O3G      -10.3530   62.5120  -67.5790 O.2   190  GNP190     -0.2331
      5  N3B       -8.7980   64.3550  -68.3460 N.3   190  GNP190     -0.0163
      6  PB        -9.2880   65.0110  -69.7640 P.3   190  GNP190      0.4669
      7  O1B       -9.6420   63.9340  -70.7420 O.2   190  GNP190     -0.2351
      8  O2B      -10.3650   65.9890  -69.4770 O.3   190  GNP190     -0.1253
      9  O3A       -8.0720   65.7840  -70.3520 O.3   190  GNP190     -0.2360
     10  PA        -7.7380   67.3280  -70.3230 P.3   190  GNP190      0.2220
     11  O1A       -8.6510   68.0700  -71.1960 O.2   190  GNP190     -0.5170
     12  O2A       -7.5590   67.7430  -68.9010 O.3   190  GNP190     -0.4370
     13  O5'       -6.3510   67.3920  -71.0790 O.3   190  GNP190     -0.3111
     14  C5'       -5.2150   66.6780  -70.5690 C.3   190  GNP190      0.1813
     15  C4'       -3.9210   67.2900  -71.0630 C.3   190  GNP190      0.1799
     16  O4'       -3.8580   67.1280  -72.5040 O.3   190  GNP190     -0.3326
     17  C3'       -3.7750   68.7910  -70.8050 C.3   190  GNP190      0.2158
     18  O3'       -2.4080   69.0880  -70.5010 O.3   190  GNP190     -0.2175
     19  C2'       -4.2040   69.4210  -72.1270 C.3   190  GNP190      0.2310
     20  O2'       -3.5980   70.6620  -72.4270 O.3   190  GNP190     -0.2158
     21  C1'       -3.7240   68.3750  -73.1330 C.3   190  GNP190      0.2293
     22  N9        -4.5250   68.3680  -74.3520 N.pl3 190  GNP190     -0.2354
     23  C8        -5.8940   68.2130  -74.4200 C.3   190  GNP190      0.2246
     24  N7        -6.3390   68.2720  -75.6410 N.2   190  GNP190     -0.2322
     25  C5        -5.2070   68.4770  -76.4300 C.2   190  GNP190      0.2182
     26  C6        -5.0530   68.6090  -77.8360 C.1   190  GNP190      0.2372
     27  O6        -5.9290   68.5940  -78.7070 O.2   190  GNP190     -0.2069
     28  N1        -3.7240   68.8110  -78.2270 N.2   190  GNP190     -0.2485
     29  C2        -2.6770   68.8540  -77.3360 C.1   190  GNP190      0.2531
     30  N2        -1.4570   69.0450  -77.8570 N.pl3 190  GNP190     -0.0226
     31  N3        -2.8020   68.7200  -76.0210 N.2   190  GNP190     -0.3074
     32  C4        -4.0820   68.5360  -75.6410 C.2   190  GNP190      0.2300
@<TRIPOS>BOND
     1    27    26    2
     2    28    26    2
     3    28    29    2
     4    30    29    1
     5    26    25    1
     6    29    31    2
     7    25    32    1
     8    25    24    2
     9    31    32    2
    10    32    22    1
    11    24    23    1
    12    23    22    1
    13    22    21    1
    14    21    16    1
    15    21    19    1
    16    16    15    1
    17    20    19    1
    18    19    17    1
    19    11    10    2
    20    13    14    1
    21    13    10    1
    22    15    17    1
    23    15    14    1
    24    17    18    1
    25     7     6    2
    26     9    10    1
    27     9     6    1
    28    10    12    1
    29     6     8    1
    30     6     5    1
    31     5     1    1
    32     4     1    2
    33     1     3    1
    34     1     2    1
