@<TRIPOS>MOLECULE
3rs2_GNP_A_1.pdb
 32 34 0 0 0
SMALL
GASTEIGER

@<TRIPOS>ATOM
      1  PG        -9.7530   64.3400  -66.9260 P.3   190  GNP190      0.4884
      2  O1G       -8.7940   63.9650  -65.8210 O.3   190  GNP190     -0.1240
      3  O2G      -10.7080   65.3920  -66.4370 O.3   190  GNP190     -0.1240
      4  O3G      -10.3740   63.0580  -67.4140 O.2   190  GNP190     -0.2331
      5  N3B       -8.8830   64.9650  -68.1370 N.3   190  GNP190     -0.0163
      6  PB        -9.3610   65.5810  -69.5370 P.3   190  GNP190      0.4669
      7  O1B       -9.7450   64.5040  -70.4790 O.2   190  GNP190     -0.2351
      8  O2B      -10.4010   66.5950  -69.3170 O.3   190  GNP190     -0.1253
      9  O3A       -8.1320   66.3110  -70.1130 O.3   190  GNP190     -0.2360
     10  PA        -7.8500   67.8370  -70.1160 P.3   190  GNP190      0.2220
     11  O1A       -8.7810   68.5920  -70.9680 O.2   190  GNP190     -0.5170
     12  O2A       -7.6550   68.3620  -68.7400 O.3   190  GNP190     -0.4370
     13  O5'       -6.4540   67.9410  -70.8370 O.3   190  GNP190     -0.3111
     14  C5'       -5.3350   67.2230  -70.3370 C.3   190  GNP190      0.1813
     15  C4'       -4.0580   67.8550  -70.8540 C.3   190  GNP190      0.1799
     16  O4'       -3.9930   67.6720  -72.2840 O.3   190  GNP190     -0.3326
     17  C3'       -3.9270   69.3630  -70.6280 C.3   190  GNP190      0.2158
     18  O3'       -2.5770   69.6580  -70.3400 O.3   190  GNP190     -0.2175
     19  C2'       -4.3430   69.9700  -71.9660 C.3   190  GNP190      0.2310
     20  O2'       -3.7580   71.2290  -72.2390 O.3   190  GNP190     -0.2158
     21  C1'       -3.8390   68.9140  -72.9380 C.3   190  GNP190      0.2293
     22  N9        -4.6400   68.8780  -74.1520 N.pl3 190  GNP190     -0.2354
     23  C8        -6.0030   68.6770  -74.2510 C.3   190  GNP190      0.2246
     24  N7        -6.4260   68.7180  -75.4810 N.2   190  GNP190     -0.2322
     25  C5        -5.2920   68.9440  -76.2370 C.2   190  GNP190      0.2182
     26  C6        -5.1320   69.0810  -77.6350 C.1   190  GNP190      0.2372
     27  O6        -5.9850   69.0200  -78.5250 O.2   190  GNP190     -0.2069
     28  N1        -3.8010   69.3130  -77.9860 N.2   190  GNP190     -0.2485
     29  C2        -2.7570   69.4060  -77.0920 C.1   190  GNP190      0.2531
     30  N2        -1.5490   69.6370  -77.6130 N.pl3 190  GNP190     -0.0226
     31  N3        -2.8950   69.2870  -75.7800 N.2   190  GNP190     -0.3074
     32  C4        -4.1830   69.0490  -75.4310 C.2   190  GNP190      0.2300
@<TRIPOS>BOND
     1    27    26    2
     2    28    26    2
     3    28    29    2
     4    26    25    1
     5    30    29    1
     6    29    31    2
     7    25    24    2
     8    25    32    1
     9    31    32    2
    10    24    23    1
    11    32    22    1
    12    23    22    1
    13    22    21    1
    14    21    16    1
    15    21    19    1
    16    16    15    1
    17    20    19    1
    18    19    17    1
    19    11    10    2
    20    15    17    1
    21    15    14    1
    22    13    14    1
    23    13    10    1
    24    17    18    1
    25     7     6    2
    26    10     9    1
    27    10    12    1
    28     9     6    1
    29     6     8    1
    30     6     5    1
    31     5     1    1
    32     4     1    2
    33     1     3    1
    34     1     2    1
