@<TRIPOS>MOLECULE
3rs3_GNP_A_1.pdb
 32 34 0 0 0
SMALL
GASTEIGER

@<TRIPOS>ATOM
      1  PG        -9.8030   64.3320  -67.6290 P.3   190  GNP190      0.4884
      2  O1G       -8.8480   63.8950  -66.5300 O.3   190  GNP190     -0.1240
      3  O2G      -10.6930   65.4160  -67.1550 O.3   190  GNP190     -0.1240
      4  O3G      -10.5010   63.0910  -68.1170 O.2   190  GNP190     -0.2331
      5  N3B       -8.9280   64.8950  -68.8710 N.3   190  GNP190     -0.0163
      6  PB        -9.4320   65.5570  -70.2590 P.3   190  GNP190      0.4669
      7  O1B       -9.8160   64.5330  -71.2680 O.2   190  GNP190     -0.2351
      8  O2B      -10.4750   66.5590  -69.9800 O.3   190  GNP190     -0.1253
      9  O3A       -8.1910   66.3230  -70.8130 O.3   190  GNP190     -0.2360
     10  PA        -7.8590   67.8600  -70.8250 P.3   190  GNP190      0.2220
     11  O1A       -8.7740   68.5830  -71.7160 O.2   190  GNP190     -0.5170
     12  O2A       -7.6770   68.3140  -69.4170 O.3   190  GNP190     -0.4370
     13  O5'       -6.4670   67.9460  -71.5740 O.3   190  GNP190     -0.3111
     14  C5'       -5.3450   67.2240  -71.0620 C.3   190  GNP190      0.1813
     15  C4'       -4.0660   67.8710  -71.5440 C.3   190  GNP190      0.1799
     16  O4'       -4.0250   67.6990  -72.9840 O.3   190  GNP190     -0.3326
     17  C3'       -3.9300   69.3730  -71.3010 C.3   190  GNP190      0.2158
     18  O3'       -2.5550   69.6730  -71.0300 O.3   190  GNP190     -0.2175
     19  C2'       -4.3800   69.9810  -72.6240 C.3   190  GNP190      0.2310
     20  O2'       -3.7910   71.2330  -72.9200 O.3   190  GNP190     -0.2158
     21  C1'       -3.8710   68.9420  -73.6160 C.3   190  GNP190      0.2293
     22  N9        -4.6330   68.9160  -74.8540 N.pl3 190  GNP190     -0.2354
     23  C8        -5.9890   68.7220  -74.9600 C.3   190  GNP190      0.2246
     24  N7        -6.3990   68.7620  -76.1950 N.2   190  GNP190     -0.2322
     25  C5        -5.2490   68.9740  -76.9450 C.2   190  GNP190      0.2182
     26  C6        -5.0710   69.0930  -78.3370 C.1   190  GNP190      0.2372
     27  O6        -5.9560   69.0470  -79.2020 O.2   190  GNP190     -0.2069
     28  N1        -3.7390   69.3070  -78.6920 N.2   190  GNP190     -0.2485
     29  C2        -2.7100   69.3880  -77.7820 C.1   190  GNP190      0.2531
     30  N2        -1.4880   69.6000  -78.2930 N.pl3 190  GNP190     -0.0226
     31  N3        -2.8540   69.2740  -76.4660 N.2   190  GNP190     -0.3074
     32  C4        -4.1500   69.0640  -76.1260 C.2   190  GNP190      0.2300
@<TRIPOS>BOND
     1    27    26    2
     2    28    26    2
     3    28    29    2
     4    26    25    1
     5    30    29    1
     6    29    31    2
     7    25    24    2
     8    25    32    1
     9    31    32    2
    10    24    23    1
    11    32    22    1
    12    23    22    1
    13    22    21    1
    14    21    16    1
    15    21    19    1
    16    16    15    1
    17    20    19    1
    18    19    17    1
    19    11    10    2
    20    13    14    1
    21    13    10    1
    22    15    17    1
    23    15    14    1
    24    17    18    1
    25     7     6    2
    26    10     9    1
    27    10    12    1
    28     9     6    1
    29     6     8    1
    30     6     5    1
    31     5     1    1
    32     4     1    2
    33     1     3    1
    34     1     2    1
