@<TRIPOS>MOLECULE
3rs4_GNP_A_1.pdb
 32 34 0 0 0
SMALL
GASTEIGER

@<TRIPOS>ATOM
      1  PG        -9.9010   64.6640  -67.5420 P.3   190  GNP190      0.4884
      2  O1G       -8.9520   64.2410  -66.4320 O.3   190  GNP190     -0.1240
      3  O2G      -10.8170   65.7350  -67.0740 O.3   190  GNP190     -0.1240
      4  O3G      -10.5840   63.4090  -68.0170 O.2   190  GNP190     -0.2331
      5  N3B       -9.0220   65.2500  -68.7780 N.3   190  GNP190     -0.0163
      6  PB        -9.5130   65.8990  -70.1780 P.3   190  GNP190      0.4669
      7  O1B       -9.8860   64.8490  -71.1650 O.2   190  GNP190     -0.2351
      8  O2B      -10.5720   66.8700  -69.8850 O.3   190  GNP190     -0.1253
      9  O3A       -8.2710   66.6600  -70.7470 O.3   190  GNP190     -0.2360
     10  PA        -7.9380   68.1980  -70.7570 P.3   190  GNP190      0.2220
     11  O1A       -8.8510   68.9540  -71.6250 O.2   190  GNP190     -0.5170
     12  O2A       -7.7850   68.6780  -69.3590 O.3   190  GNP190     -0.4370
     13  O5'       -6.5440   68.2870  -71.5120 O.3   190  GNP190     -0.3111
     14  C5'       -5.4170   67.5880  -70.9930 C.3   190  GNP190      0.1813
     15  C4'       -4.1480   68.2300  -71.5160 C.3   190  GNP190      0.1799
     16  O4'       -4.0810   68.0590  -72.9570 O.3   190  GNP190     -0.3326
     17  C3'       -4.0180   69.7340  -71.2700 C.3   190  GNP190      0.2158
     18  O3'       -2.6530   70.0390  -70.9710 O.3   190  GNP190     -0.2175
     19  C2'       -4.4470   70.3530  -72.6060 C.3   190  GNP190      0.2310
     20  O2'       -3.8350   71.5960  -72.9030 O.3   190  GNP190     -0.2158
     21  C1'       -3.9600   69.3020  -73.6080 C.3   190  GNP190      0.2293
     22  N9        -4.7500   69.2570  -74.8360 N.pl3 190  GNP190     -0.2354
     23  C8        -6.1120   69.0590  -74.9360 C.3   190  GNP190      0.2246
     24  N7        -6.5300   69.0920  -76.1680 N.2   190  GNP190     -0.2322
     25  C5        -5.3900   69.3130  -76.9310 C.2   190  GNP190      0.2182
     26  C6        -5.2100   69.4280  -78.3300 C.1   190  GNP190      0.2372
     27  O6        -6.0530   69.3610  -79.2230 O.2   190  GNP190     -0.2069
     28  N1        -3.8820   69.6580  -78.6890 N.2   190  GNP190     -0.2485
     29  C2        -2.8510   69.7510  -77.7840 C.1   190  GNP190      0.2531
     30  N2        -1.6270   69.9760  -78.2870 N.pl3 190  GNP190     -0.0226
     31  N3        -3.0020   69.6360  -76.4750 N.2   190  GNP190     -0.3074
     32  C4        -4.2910   69.4180  -76.1180 C.2   190  GNP190      0.2300
@<TRIPOS>BOND
     1    27    26    2
     2    28    26    2
     3    28    29    2
     4    26    25    1
     5    30    29    1
     6    29    31    2
     7    25    24    2
     8    25    32    1
     9    31    32    2
    10    24    23    1
    11    32    22    1
    12    23    22    1
    13    22    21    1
    14    21    16    1
    15    21    19    1
    16    16    15    1
    17    20    19    1
    18    19    17    1
    19    11    10    2
    20    15    17    1
    21    15    14    1
    22    13    14    1
    23    13    10    1
    24    17    18    1
    25     7     6    2
    26    10     9    1
    27    10    12    1
    28     9     6    1
    29     6     8    1
    30     6     5    1
    31     5     1    1
    32     4     1    2
    33     1     3    1
    34     1     2    1
