@<TRIPOS>MOLECULE
3rs5_GNP_A_1.pdb
 32 34 0 0 0
SMALL
GASTEIGER

@<TRIPOS>ATOM
      1  PG        -9.9100   64.4550  -67.4660 P.3   190  GNP190      0.4884
      2  O1G       -8.9790   64.0490  -66.3260 O.3   190  GNP190     -0.1240
      3  O2G      -10.8630   65.5230  -67.0450 O.3   190  GNP190     -0.1240
      4  O3G      -10.5660   63.1840  -67.9270 O.2   190  GNP190     -0.2331
      5  N3B       -9.0160   65.0430  -68.6890 N.3   190  GNP190     -0.0163
      6  PB        -9.5100   65.7020  -70.0970 P.3   190  GNP190      0.4669
      7  O1B       -9.8690   64.6490  -71.0880 O.2   190  GNP190     -0.2351
      8  O2B      -10.5860   66.6740  -69.8260 O.3   190  GNP190     -0.1253
      9  O3A       -8.2900   66.4770  -70.6900 O.3   190  GNP190     -0.2360
     10  PA        -7.9570   68.0070  -70.6660 P.3   190  GNP190      0.2220
     11  O1A       -8.8850   68.7510  -71.5290 O.2   190  GNP190     -0.5170
     12  O2A       -7.7590   68.4860  -69.2680 O.3   190  GNP190     -0.4370
     13  O5'       -6.5670   68.1200  -71.4290 O.3   190  GNP190     -0.3111
     14  C5'       -5.4320   67.4300  -70.9110 C.3   190  GNP190      0.1813
     15  C4'       -4.1610   68.0640  -71.4380 C.3   190  GNP190      0.1799
     16  O4'       -4.0980   67.8870  -72.8770 O.3   190  GNP190     -0.3326
     17  C3'       -4.0300   69.5670  -71.1900 C.3   190  GNP190      0.2158
     18  O3'       -2.6710   69.8700  -70.9090 O.3   190  GNP190     -0.2175
     19  C2'       -4.4770   70.1790  -72.5180 C.3   190  GNP190      0.2310
     20  O2'       -3.8880   71.4320  -72.8130 O.3   190  GNP190     -0.2158
     21  C1'       -3.9810   69.1230  -73.5200 C.3   190  GNP190      0.2293
     22  N9        -4.7720   69.0900  -74.7430 N.pl3 190  GNP190     -0.2354
     23  C8        -6.1380   68.9160  -74.8420 C.3   190  GNP190      0.2246
     24  N7        -6.5690   68.9570  -76.0730 N.2   190  GNP190     -0.2322
     25  C5        -5.4150   69.1580  -76.8350 C.2   190  GNP190      0.2182
     26  C6        -5.2500   69.2830  -78.2300 C.1   190  GNP190      0.2372
     27  O6        -6.1190   69.2330  -79.1110 O.2   190  GNP190     -0.2069
     28  N1        -3.9140   69.4730  -78.6030 N.2   190  GNP190     -0.2485
     29  C2        -2.8730   69.5430  -77.7010 C.1   190  GNP190      0.2531
     30  N2        -1.6560   69.7340  -78.2280 N.pl3 190  GNP190     -0.0226
     31  N3        -3.0120   69.4320  -76.3840 N.2   190  GNP190     -0.3074
     32  C4        -4.3060   69.2370  -76.0240 C.2   190  GNP190      0.2300
@<TRIPOS>BOND
     1    27    26    2
     2    28    26    2
     3    28    29    2
     4    26    25    1
     5    30    29    1
     6    29    31    2
     7    25    24    2
     8    25    32    1
     9    31    32    2
    10    24    23    1
    11    32    22    1
    12    23    22    1
    13    22    21    1
    14    21    16    1
    15    21    19    1
    16    16    15    1
    17    20    19    1
    18    19    17    1
    19    11    10    2
    20    15    17    1
    21    15    14    1
    22    13    14    1
    23    13    10    1
    24    17    18    1
    25     7     6    2
    26     9    10    1
    27     9     6    1
    28    10    12    1
    29     6     8    1
    30     6     5    1
    31     5     1    1
    32     4     1    2
    33     1     3    1
    34     1     2    1
