@<TRIPOS>MOLECULE
3rs6_XMM_A_1.pdb
 23 25 0 0 0
SMALL
GASTEIGER

@<TRIPOS>ATOM
      1  O2        26.1140   23.2120   21.8400 O.3   241  XMM241     -0.2135
      2  C2        25.3060   24.3970   21.8550 C.3   241  XMM241      0.2542
      3  C3        24.1630   24.3690   21.0390 C.3   241  XMM241      0.2211
      4  O3        24.5980   24.1320   19.6290 O.3   241  XMM241     -0.2173
      5  C4        23.2100   23.2570   21.5390 C.3   241  XMM241      0.2145
      6  O4        22.0670   23.4350   20.8010 O.3   241  XMM241     -0.2176
      7  C5        22.9180   23.4030   23.0070 C.3   241  XMM241      0.1846
      8  O5        24.1080   23.3790   23.8300 O.3   241  XMM241     -0.3157
      9  C6        22.2250   22.1260   23.5010 C.3   241  XMM241      0.2142
     10  O6        21.6720   22.5150   24.7100 O.3   241  XMM241     -0.2176
     11  C1        25.0510   24.3680   23.3640 C.3   241  XMM241      0.3219
     12  O1        25.1300   25.6670   23.5130 O.2   241  XMM241     -0.4488
     13  C7        24.6930   26.0520   24.6650 C.2   241  XMM241      0.1623
     14  C8        25.5130   26.8330   25.5610 C.2   241  XMM241      0.0605
     15  C9        24.6560   27.0920   26.6780 C.2   241  XMM241      0.0673
     16  N1        23.4710   26.4840   26.4570 N.2   241  XMM241     -0.2445
     17  C11       23.4830   25.8690   25.2320 C.2   241  XMM241      0.1354
     18  C10       26.8400   27.2800   25.5200 C.2   241  XMM241      0.0676
     19 CL         27.8410   26.9750   24.0950 Cl    241  XMM241     -0.0816
     20  C13       27.3170   28.1130   26.5900 C.2   241  XMM241      0.0414
     21 BR         29.0720   28.7860   26.4350 Br    241  XMM241     -0.0484
     22  C14       26.5020   28.2890   27.6930 C.2   241  XMM241     -0.0122
     23  C12       25.2010   27.7880   27.7440 C.3   241  XMM241      0.0724
@<TRIPOS>BOND
     1     4     3    1
     2     6     5    1
     3     3     5    1
     4     3     2    1
     5     5     7    1
     6     1     2    1
     7     2    11    1
     8     7     9    1
     9     7     8    1
    10    11    12    1
    11    11     8    1
    12     9    10    1
    13    12    13    1
    14    19    18    1
    15    13    17    2
    16    13    14    1
    17    17    16    1
    18    18    14    2
    19    18    20    1
    20    14    15    1
    21    21    20    1
    22    16    15    2
    23    20    22    2
    24    15    23    1
    25    22    23    1
