@<TRIPOS>MOLECULE
3rs7_GNP_A_1.pdb
 32 34 0 0 0
SMALL
GASTEIGER

@<TRIPOS>ATOM
      1  PG       -10.0300   65.1780  -67.5410 P.3   190  GNP190      0.4884
      2  O1G       -9.0950   64.8100  -66.3830 O.3   190  GNP190     -0.1240
      3  O2G      -10.9890   66.2550  -67.1200 O.3   190  GNP190     -0.1240
      4  O3G      -10.6870   63.9290  -68.0390 O.2   190  GNP190     -0.2331
      5  N3B       -9.1270   65.7700  -68.7600 N.3   190  GNP190     -0.0163
      6  PB        -9.6310   66.3930  -70.1740 P.3   190  GNP190      0.4669
      7  O1B       -9.9970   65.3370  -71.1540 O.2   190  GNP190     -0.2351
      8  O2B      -10.7000   67.3890  -69.9280 O.3   190  GNP190     -0.1253
      9  O3A       -8.4030   67.1530  -70.7510 O.3   190  GNP190     -0.2360
     10  PA        -8.0750   68.6890  -70.7960 P.3   190  GNP190      0.2220
     11  O1A       -8.9850   69.4410  -71.6970 O.2   190  GNP190     -0.5170
     12  O2A       -7.8870   69.1760  -69.4040 O.3   190  GNP190     -0.4370
     13  O5'       -6.6670   68.7550  -71.5200 O.3   190  GNP190     -0.3111
     14  C5'       -5.5370   68.0470  -71.0140 C.3   190  GNP190      0.1813
     15  C4'       -4.2660   68.6860  -71.5500 C.3   190  GNP190      0.1799
     16  O4'       -4.2000   68.5180  -72.9890 O.3   190  GNP190     -0.3326
     17  C3'       -4.1280   70.1900  -71.3100 C.3   190  GNP190      0.2158
     18  O3'       -2.7700   70.4920  -71.0220 O.3   190  GNP190     -0.2175
     19  C2'       -4.5620   70.8010  -72.6440 C.3   190  GNP190      0.2310
     20  O2'       -3.9770   72.0530  -72.9440 O.3   190  GNP190     -0.2158
     21  C1'       -4.0650   69.7560  -73.6470 C.3   190  GNP190      0.2293
     22  N9        -4.8530   69.7040  -74.8780 N.pl3 190  GNP190     -0.2354
     23  C8        -6.2090   69.4950  -74.9820 C.3   190  GNP190      0.2246
     24  N7        -6.6340   69.5130  -76.2100 N.2   190  GNP190     -0.2322
     25  C5        -5.5050   69.7270  -76.9820 C.2   190  GNP190      0.2182
     26  C6        -5.3550   69.8300  -78.3890 C.1   190  GNP190      0.2372
     27  O6        -6.2360   69.7400  -79.2690 O.2   190  GNP190     -0.2069
     28  N1        -4.0240   70.0610  -78.7450 N.2   190  GNP190     -0.2485
     29  C2        -2.9760   70.1780  -77.8500 C.1   190  GNP190      0.2531
     30  N2        -1.7450   70.4080  -78.3560 N.pl3 190  GNP190     -0.0226
     31  N3        -3.1160   70.0700  -76.5370 N.2   190  GNP190     -0.3074
     32  C4        -4.3970   69.8440  -76.1710 C.2   190  GNP190      0.2300
@<TRIPOS>BOND
     1    27    26    2
     2    28    26    2
     3    28    29    2
     4    26    25    1
     5    30    29    1
     6    29    31    2
     7    25    24    2
     8    25    32    1
     9    31    32    2
    10    24    23    1
    11    32    22    1
    12    23    22    1
    13    22    21    1
    14    21    16    1
    15    21    19    1
    16    16    15    1
    17    20    19    1
    18    19    17    1
    19    11    10    2
    20    15    17    1
    21    15    14    1
    22    13    14    1
    23    13    10    1
    24    17    18    1
    25     7     6    2
    26    10     9    1
    27    10    12    1
    28     9     6    1
    29     6     8    1
    30     6     5    1
    31     5     1    1
    32     4     1    2
    33     1     3    1
    34     1     2    1
