@<TRIPOS>MOLECULE
3rs8_APR_A_1.pdb
 36 39 0 0 0
SMALL
GASTEIGER

@<TRIPOS>ATOM
      1  N1        52.3120  -20.2850  -20.4920 N.2   493  APR493      0.0021
      2  C2        52.9110  -20.3840  -19.2960 C.3   493  APR493      0.5254
      3  N3        53.3510  -19.3170  -18.6340 N.2   493  APR493     -0.0055
      4  C4        53.2430  -18.0820  -19.1130 C.2   493  APR493      0.3518
      5  C5        52.5550  -17.8940  -20.3790 C.2   493  APR493      0.2526
      6  C6        52.1140  -19.0920  -21.0670 C.2   493  APR493      0.4393
      7  N6        51.4990  -18.9400  -22.2710 N.pl3 493  APR493      0.2180
      8  N7        52.5270  -16.5750  -20.6490 N.2   493  APR493     -0.2095
      9  C8        53.1420  -15.9380  -19.6090 C.3   493  APR493      0.3377
     10  N9        53.5620  -16.8620  -18.6990 N.pl3 493  APR493     -0.1439
     11  C1'       54.1760  -16.5440  -17.3950 C.3   493  APR493      0.3186
     12  C2'       55.4090  -15.6730  -17.3970 C.3   493  APR493      0.2570
     13  O2'       56.5140  -16.5280  -17.5370 O.3   493  APR493     -0.2130
     14  C3'       55.3070  -15.0210  -16.0060 C.3   493  APR493      0.2184
     15  O3'       55.6070  -15.9280  -14.9070 O.3   493  APR493     -0.2174
     16  O4'       53.2060  -15.7600  -16.6970 O.3   493  APR493     -0.3135
     17  C4'       53.8360  -14.7310  -15.9090 C.3   493  APR493      0.1821
     18  C5'       53.5520  -13.3210  -16.3830 C.3   493  APR493      0.1813
     19  O5'       52.1470  -13.1120  -16.2030 O.3   493  APR493     -0.3112
     20  PA        51.7090  -11.7440  -15.5780 P.3   493  APR493      0.2189
     21  O1A       51.6370  -12.1260  -14.0910 O.3   493  APR493     -0.4371
     22  O2A       50.4550  -11.4090  -16.3670 O.2   493  APR493     -0.5170
     23  O3A       52.8110  -10.7280  -16.0670 O.3   493  APR493     -0.2703
     24  PB        53.4880   -9.5170  -15.3270 P.3   493  APR493      0.2189
     25  O1B       54.3460  -10.1300  -14.2200 O.3   493  APR493     -0.4371
     26  O2B       53.7540   -8.4490  -16.2760 O.2   493  APR493     -0.5170
     27  O5D       52.2600   -8.8320  -14.4890 O.3   493  APR493     -0.3112
     28  C5D       51.2650   -7.9740  -15.0550 C.3   493  APR493      0.1813
     29  O4D       50.4490   -7.4620  -12.7740 O.3   493  APR493     -0.3237
     30  O1D       50.0680   -5.1360  -12.8240 O.3   493  APR493     -0.1869
     31  C1D       49.5630   -6.3930  -12.4200 C.3   493  APR493      0.3023
     32  O2D       47.7290   -7.8680  -12.5060 O.3   493  APR493     -0.2148
     33  C2D       48.2930   -6.7490  -13.1880 C.3   493  APR493      0.2433
     34  O3D       47.9050   -8.1880  -15.0880 O.3   493  APR493     -0.2175
     35  C3D       48.8290   -7.2720  -14.5110 C.3   493  APR493      0.2168
     36  C4D       50.0850   -8.0340  -14.0650 C.3   493  APR493      0.1807
@<TRIPOS>BOND
     1     7     6    1
     2     6     1    2
     3     6     5    1
     4     8     5    2
     5     8     9    1
     6     1     2    1
     7     5     4    1
     8     9    10    1
     9     2     3    1
    10     4    10    1
    11     4     3    2
    12    10    11    1
    13    13    12    1
    14    12    11    1
    15    12    14    1
    16    11    16    1
    17    16    17    1
    18    18    19    1
    19    18    17    1
    20    22    20    2
    21    26    24    2
    22    19    20    1
    23    23    20    1
    24    23    24    1
    25    14    17    1
    26    14    15    1
    27    20    21    1
    28    24    27    1
    29    24    25    1
    30    34    35    1
    31    28    27    1
    32    28    36    1
    33    35    36    1
    34    35    33    1
    35    36    29    1
    36    33    32    1
    37    33    31    1
    38    30    31    1
    39    29    31    1
