@<TRIPOS>MOLECULE
3rs9_BA3_A_1.pdb
 31 33 0 0 0
SMALL
GASTEIGER

@<TRIPOS>ATOM
      1  N9A      -17.2520   53.4440   18.6900 N.pl3 493  BA3493     -0.1439
      2  C8A      -16.2850   53.0470   19.6070 C.3   493  BA3493      0.3377
      3  N7A      -16.9140   52.4640   20.6480 N.2   493  BA3493     -0.2095
      4  C5A      -18.2550   52.4890   20.4230 C.2   493  BA3493      0.2526
      5  C6A      -19.3170   52.0290   21.1840 C.2   493  BA3493      0.4393
      6  N6A      -19.0440   51.3160   22.2850 N.pl3 493  BA3493      0.2180
      7  N1A      -20.6060   52.1840   20.7100 N.2   493  BA3493      0.0021
      8  C2A      -20.8320   52.7960   19.4970 C.3   493  BA3493      0.5254
      9  N3A      -19.7600   53.2400   18.7490 N.2   493  BA3493     -0.0055
     10  C4A      -18.4900   53.1100   19.2030 C.2   493  BA3493      0.3518
     11  O5B      -13.4360   52.2540   15.6910 O.3   493  BA3493     -0.3112
     12  C5B      -13.6810   53.1110   16.7910 C.3   493  BA3493      0.1813
     13  C4B      -14.7990   54.1100   16.5140 C.3   493  BA3493      0.1821
     14  O4B      -16.0490   53.4460   16.5490 O.3   493  BA3493     -0.3135
     15  C3B      -14.8520   55.1950   17.6110 C.3   493  BA3493      0.2184
     16  O3B      -14.1110   56.3770   17.3610 O.3   493  BA3493     -0.2174
     17  C2B      -16.3380   55.4770   17.7770 C.3   493  BA3493      0.2570
     18  O2B      -16.8040   56.4890   16.9310 O.3   493  BA3493     -0.2130
     19  C1B      -16.9720   54.1370   17.4030 C.3   493  BA3493      0.3186
     20  PE       -11.9590   51.6670   15.4350 P.3   493  BA3493      0.2189
     21  O1E      -11.6950   51.4460   13.9780 O.2   493  BA3493     -0.5170
     22  O2E      -11.6880   50.4680   16.3380 O.3   493  BA3493     -0.4371
     23  O3E      -11.1390   52.9490   15.9300 O.3   493  BA3493     -0.2700
     24  PF        -9.8210   53.4750   15.2020 P.3   493  BA3493      0.2277
     25  O1F      -10.2140   54.3370   14.0350 O.2   493  BA3493     -0.5168
     26  O2F       -8.9940   52.2660   14.7930 O.3   493  BA3493     -0.4368
     27  O3F       -9.3110   54.3320   16.4660 O.3   493  BA3493     -0.2258
     28  PG        -8.0870   53.9330   17.4330 P.3   493  BA3493      0.5373
     29  O1G       -8.1450   52.5150   17.9940 O.3   493  BA3493     -0.1143
     30  O2G       -8.0550   54.9500   18.5580 O.3   493  BA3493     -0.1143
     31  O5D       -6.7980   54.0560   16.4370 O.2   493  BA3493     -0.2221
@<TRIPOS>BOND
     1    21    20    2
     2    25    24    2
     3    26    24    1
     4    24    23    1
     5    24    27    1
     6    20    11    1
     7    20    23    1
     8    20    22    1
     9    11    12    1
    10    31    28    2
    11    27    28    1
    12    13    14    1
    13    13    12    1
    14    13    15    1
    15    14    19    1
    16    18    17    1
    17    16    15    1
    18    19    17    1
    19    19     1    1
    20    28    29    1
    21    28    30    1
    22    15    17    1
    23     1    10    1
    24     1     2    1
    25     9    10    2
    26     9     8    1
    27    10     4    1
    28     8     7    1
    29     2     3    1
    30     4     3    2
    31     4     5    1
    32     7     5    2
    33     5     6    1
