@<TRIPOS>MOLECULE
3rsb_GTP_A_1.pdb
 32 34 0 0 0
SMALL
GASTEIGER

@<TRIPOS>ATOM
      1  PG         4.2640   20.0460   25.5870 P.3   197  GTP197      0.5373
      2  O1G        5.5940   20.4770   25.0150 O.3   197  GTP197     -0.1143
      3  O2G        3.8710   20.9720   26.7130 O.3   197  GTP197     -0.1143
      4  O3G        3.2090   20.0830   24.5070 O.2   197  GTP197     -0.2221
      5  O3B        4.4170   18.5440   26.1470 O.3   197  GTP197     -0.2258
      6  PB         3.8510   18.1500   27.6020 P.3   197  GTP197      0.2277
      7  O1B        2.3470   18.0290   27.5480 O.2   197  GTP197     -0.5168
      8  O2B        4.2790   19.1590   28.6410 O.3   197  GTP197     -0.4368
      9  O3A        4.5020   16.7070   27.8950 O.3   197  GTP197     -0.2700
     10  PA         6.0920   16.4850   27.7740 P.3   197  GTP197      0.2189
     11  O1A        6.7750   17.8120   27.5410 O.3   197  GTP197     -0.4371
     12  O2A        6.4210   15.5040   26.6750 O.2   197  GTP197     -0.5170
     13  O5'        6.5170   15.9030   29.2140 O.3   197  GTP197     -0.3112
     14  C5'        6.9210   14.5590   29.3540 C.3   197  GTP197      0.1813
     15  C4'        5.7790   13.7460   29.9510 C.3   197  GTP197      0.1799
     16  O4'        5.5980   14.0990   31.3100 O.3   197  GTP197     -0.3326
     17  C3'        4.4730   14.0120   29.2200 C.3   197  GTP197      0.2158
     18  O3'        3.9970   12.8240   28.6320 O.3   197  GTP197     -0.2175
     19  C2'        3.4980   14.4930   30.2730 C.3   197  GTP197      0.2310
     20  O2'        2.3980   13.6180   30.3500 O.3   197  GTP197     -0.2158
     21  C1'        4.2650   14.4860   31.5850 C.3   197  GTP197      0.2293
     22  N9         4.2480   15.8380   32.1730 N.pl3 197  GTP197     -0.2354
     23  C8         5.1270   16.8540   31.8980 C.3   197  GTP197      0.2246
     24  N7         4.7800   17.9330   32.6350 N.2   197  GTP197     -0.2322
     25  C5         3.6930   17.6230   33.3750 C.2   197  GTP197      0.2182
     26  C6         2.9420   18.3530   34.2880 C.1   197  GTP197      0.2372
     27  O6         3.2400   19.5190   34.5430 O.2   197  GTP197     -0.2069
     28  N1         1.8590   17.7630   34.9070 N.2   197  GTP197     -0.2485
     29  C2         1.5300   16.4540   34.6160 C.1   197  GTP197      0.2531
     30  N2         0.4870   15.8840   35.2120 N.pl3 197  GTP197     -0.0226
     31  N3         2.2820   15.7350   33.7080 N.2   197  GTP197     -0.3074
     32  C4         3.3470   16.3080   33.0960 C.2   197  GTP197      0.2300
@<TRIPOS>BOND
     1     4     1    2
     2     2     1    1
     3     1     5    1
     4     1     3    1
     5     5     6    1
     6    12    10    2
     7    11    10    1
     8     7     6    2
     9     6     9    1
    10     6     8    1
    11    10     9    1
    12    10    13    1
    13    18    17    1
    14    13    14    1
    15    17    15    1
    16    17    19    1
    17    14    15    1
    18    15    16    1
    19    19    20    1
    20    19    21    1
    21    16    21    1
    22    21    22    1
    23    23    22    1
    24    23    24    1
    25    22    32    1
    26    24    25    2
    27    32    25    1
    28    32    31    2
    29    25    26    1
    30    31    29    2
    31    26    27    2
    32    26    28    2
    33    29    28    2
    34    29    30    1
