@<TRIPOS>MOLECULE
3rsc_C0T_A_1.pdb
 38 40 0 0 0
SMALL
GASTEIGER

@<TRIPOS>ATOM
      1  C1       -22.2830   13.9460  -22.3200 C.2   398  C0T398      0.1920
      2  N1       -22.6840   11.5800  -22.2560 N.am  398  C0T398     -0.1398
      3  O1       -22.0980   13.9890  -21.1160 O.2   398  C0T398     -0.2898
      4  S1       -27.3800   14.6420  -25.5450 S.3   398  C0T398     -0.0667
      5  C2       -22.7910   12.7240  -22.9300 C.2   398  C0T398      0.1104
      6  N2       -26.5000    7.0780  -28.2880 N.4   398  C0T398     -0.0441
      7  O2       -24.8340   10.9780  -22.4840 O.2   398  C0T398     -0.2242
      8  S2       -27.3600   15.8660  -27.1260 S.3   398  C0T398     -0.0226
      9  C3       -23.3240   12.7570  -24.1410 C.2   398  C0T398      0.0343
     10  O3       -23.4910    9.5350  -21.3070 O.3   398  C0T398     -0.4292
     11  S3       -28.6200   15.1960  -28.5270 S.3   398  C0T398     -0.0705
     12  C4       -23.6180   14.0570  -24.7380 C.2   398  C0T398      0.0141
     13  O4       -22.9500   16.3200  -25.0390 O.3   398  C0T398     -0.2074
     14  C5       -22.4830   15.0380  -24.6120 C.3   398  C0T398      0.2050
     15  O5       -24.7670   11.5500  -25.6890 O.3   398  C0T398     -0.3137
     16  C6       -21.9800   15.1580  -23.1730 C.3   398  C0T398      0.1177
     17  O6       -26.9740    6.8040  -29.4150 O.3   398  C0T398     -0.1000
     18  C7       -23.7130   10.7580  -22.0600 C.2   398  C0T398      0.4256
     19  O7       -25.4040   10.4730  -27.6560 O.3   398  C0T398     -0.3294
     20  C8       -24.4130    8.4520  -21.3990 C.3   398  C0T398      0.2574
     21  O8       -25.7190    9.2990  -24.2120 O.3   398  C0T398     -0.2149
     22  C9       -21.3950   14.6230  -25.5060 C.1   398  C0T398     -0.0530
     23  O9       -27.6730    7.7010  -25.6670 O.3   398  C0T398     -0.2185
     24  C10      -20.6120   14.1050  -26.2170 C.1   398  C0T398     -0.0605
     25  C11      -19.8620   13.1990  -27.0220 C.2   398  C0T398      0.0582
     26  C12      -20.2500   11.9320  -27.1350 C.2   398  C0T398      0.0582
     27  C13      -21.4160   11.4800  -26.4490 C.1   398  C0T398     -0.0604
     28  C14      -22.3910   11.3790  -25.7920 C.1   398  C0T398     -0.0527
     29  C15      -23.5700   11.5010  -24.9220 C.3   398  C0T398      0.2051
     30  C16      -24.7370   14.4610  -25.3580 C.2   398  C0T398     -0.0147
     31  C17      -25.9580   13.5990  -25.5570 C.3   398  C0T398      0.0951
     32  C18      -27.7590   14.1600  -29.6610 C.3   398  C0T398      0.0820
     33  C19      -25.0200   10.2860  -26.2980 C.3   398  C0T398      0.2704
     34  C20      -26.1310    9.5550  -25.5520 C.3   398  C0T398      0.2395
     35  C21      -26.4710    8.2340  -26.2320 C.3   398  C0T398      0.2081
     36  C22      -26.6580    8.4140  -27.7340 C.3   398  C0T398      0.1661
     37  C23      -25.5220    9.2300  -28.3410 C.3   398  C0T398      0.1391
     38  C24      -25.7710    9.4910  -29.8200 C.3   398  C0T398      0.0338
@<TRIPOS>BOND
     1    38    37    1
     2    32    11    1
     3    17     6    1
     4    11     8    1
     5    37    36    1
     6    37    19    1
     7     6    36    1
     8    36    35    1
     9    19    33    1
    10    26    25    2
    11    26    27    1
    12     8     4    1
    13    25    24    1
    14    27    28    3
    15    33    15    1
    16    33    34    1
    17    35    23    1
    18    35    34    1
    19    24    22    3
    20    28    29    1
    21    15    29    1
    22    31     4    1
    23    31    30    1
    24    34    21    1
    25    22    14    1
    26    30    12    2
    27    13    14    1
    28    29     9    1
    29    12    14    1
    30    12     9    1
    31    14    16    1
    32     9     5    2
    33    16     1    1
    34     5     1    1
    35     5     2    1
    36     7    18    2
    37     1     3    2
    38     2    18   am
    39    18    10    1
    40    20    10    1
