@<TRIPOS>MOLECULE
3rsc_TYD_A_1.pdb
 25 26 0 0 0
SMALL
GASTEIGER

@<TRIPOS>ATOM
      1  PA       -31.0740   -0.0690  -31.4560 P.3   397  TYD397      0.2231
      2  O1A      -30.3390   -0.5810  -30.2410 O.3   397  TYD397     -0.4370
      3  O2A      -31.1970   -0.9770  -32.6570 O.2   397  TYD397     -0.5169
      4  O3A      -30.4730    1.3220  -32.0130 O.3   397  TYD397     -0.2261
      5  PB       -30.0380    2.6270  -31.1590 P.3   397  TYD397      0.5373
      6  O1B      -30.5330    2.4230  -29.7500 O.3   397  TYD397     -0.1143
      7  O2B      -28.5360    2.6820  -31.3190 O.3   397  TYD397     -0.1143
      8  O3B      -30.7630    3.7160  -31.9090 O.2   397  TYD397     -0.2221
      9  O5'      -32.5700    0.3520  -31.0270 O.3   397  TYD397     -0.3111
     10  C5'      -32.9100    0.4540  -29.6470 C.3   397  TYD397      0.1812
     11  C4'      -34.0510   -0.4940  -29.3210 C.3   397  TYD397      0.1773
     12  O4'      -35.1100   -0.3340  -30.2660 O.3   397  TYD397     -0.3339
     13  C3'      -33.5840   -1.9370  -29.4230 C.3   397  TYD397      0.1857
     14  O3'      -34.0270   -2.6400  -28.2610 O.3   397  TYD397     -0.2203
     15  C2'      -34.2650   -2.5070  -30.6570 C.3   397  TYD397      0.0874
     16  C1'      -35.4880   -1.6150  -30.7830 C.3   397  TYD397      0.2090
     17  N1       -35.9990   -1.4950  -32.1510 N.am  397  TYD397     -0.1794
     18  C2       -37.0750   -2.3140  -32.5790 C.1   397  TYD397      0.2844
     19  O2       -37.5660   -3.1630  -31.7970 O.2   397  TYD397     -0.1918
     20  N3       -37.5750   -2.2060  -33.8200 N.2   397  TYD397     -0.2455
     21  C4       -37.0740   -1.3230  -34.6850 C.1   397  TYD397      0.2134
     22  O4       -37.5460   -1.2260  -35.8360 O.2   397  TYD397     -0.2088
     23  C5       -35.9540   -0.4510  -34.2590 C.2   397  TYD397      0.0891
     24  C5M      -35.3730    0.5580  -35.2140 C.3   397  TYD397      0.0462
     25  C6       -35.4630   -0.5810  -32.9680 C.2   397  TYD397      0.0877
@<TRIPOS>BOND
     1    22    21    2
     2    24    23    1
     3    21    23    1
     4    21    20    2
     5    23    25    2
     6    20    18    2
     7    25    17    1
     8     3     1    2
     9    18    17   am
    10    18    19    2
    11    17    16    1
    12     4     1    1
    13     4     5    1
    14     8     5    2
    15     1     9    1
    16     1     2    1
    17     7     5    1
    18     5     6    1
    19     9    10    1
    20    16    15    1
    21    16    12    1
    22    15    13    1
    23    12    11    1
    24    10    11    1
    25    13    11    1
    26    13    14    1
