@<TRIPOS>MOLECULE
3rse_III_Z_1.pdb
 33 34 0 0 0
SMALL
GASTEIGER

@<TRIPOS>ATOM
      1  N         34.7550   16.1550   12.2430 N.3    52  GLU52      -0.1231
      2  CA        34.7230   14.9130   13.1060 C.3    52  GLU52       0.1699
      3  C         33.4440   14.7580   13.9670 C.2    52  GLU52       0.2592
      4  O         33.0020   13.6380   14.2190 O.2    52  GLU52      -0.2718
      5  CB        35.9910   14.7510   13.9850 C.3    52  GLU52       0.0402
      6  CG        35.9150   13.5260   14.9850 C.3    52  GLU52       0.1161
      7  CD        37.2870   12.9650   15.5010 C.2    52  GLU52       0.3649
      8  OE1       37.2860   11.9940   16.3110 O.co2  52  GLU52      -0.2457
      9  OE2       38.3650   13.4790   15.1030 O.co2  52  GLU52      -0.2457
     10  N         32.8560   15.8650   14.4230 N.am   53  TRP53      -0.1962
     11  CA        31.5950   15.7470   15.1480 C.3    53  TRP53       0.1768
     12  C         30.4730   15.6700   14.1430 C.2    53  TRP53       0.2620
     13  O         30.1810   14.5720   13.6480 O.2    53  TRP53      -0.2715
     14  CB        31.4050   16.7750   16.3010 C.3    53  TRP53       0.0553
     15  CG        31.9120   16.1610   17.6380 C.2    53  TRP53      -0.0136
     16  CD1       33.1970   16.1990   18.1230 C.2    53  TRP53       0.0907
     17  CD2       31.1650   15.3600   18.5750 C.3    53  TRP53       0.0819
     18  NE1       33.2800   15.5050   19.3010 N.2    53  TRP53      -0.2482
     19  CE2       32.0540   14.9720   19.5970 C.2    53  TRP53       0.0665
     20  CE3       29.8370   14.9510   18.6550 C.2    53  TRP53      -0.0164
     21  CZ2       31.6560   14.1860   20.6810 C.2    53  TRP53       0.0153
     22  CZ3       29.4430   14.1760   19.7410 C.2    53  TRP53      -0.0038
     23  CH2       30.3470   13.8070   20.7350 C.2    53  TRP53       0.0009
     24  N         29.8470   16.7890   13.8110 N.am   54  GLU54      -0.1941
     25  CA        28.8800   16.7330   12.7210 C.3    54  GLU54       0.1984
     26  C         29.4850   17.2760   11.4220 C.2    54  GLU54       0.3842
     27  O         28.9250   18.2200   10.8210 O.co2  54  GLU54      -0.2437
     28  CB        27.5300   17.3760   13.0860 C.3    54  GLU54       0.0451
     29  CG        26.3720   17.0990   12.0670 C.3    54  GLU54       0.1164
     30  CD        26.1440   15.5940   11.7320 C.2    54  GLU54       0.3649
     31  OE1       27.1250   14.9140   11.3110 O.co2  54  GLU54      -0.2457
     32  OE2       24.9800   15.1060   11.8590 O.co2  54  GLU54      -0.2457
     33  OXT       30.5220   16.7370   11.0320 O.co2  54  GLU54      -0.2437
@<TRIPOS>BOND
     1    27    26   ar
     2    33    26   ar
     3    31    30   ar
     4    26    25    1
     5    30    32   ar
     6    30    29    1
     7    29    28    1
     8     1     2    1
     9    25    28    1
    10    25    24    1
    11     2     3    1
    12     2     5    1
    13    13    12    2
    14    24    12   am
    15     3     4    2
    16     3    10   am
    17     5     6    1
    18    12    11    1
    19    10    11    1
    20     6     7    1
    21     9     7   ar
    22    11    14    1
    23     7     8   ar
    24    14    15    1
    25    15    16    2
    26    15    17    1
    27    16    18    1
    28    17    20    1
    29    17    19    1
    30    20    22    2
    31    18    19    2
    32    19    21    1
    33    22    23    1
    34    21    23    2
