@<TRIPOS>MOLECULE
3rsf_B4P_A_1.pdb
 35 37 0 0 0
SMALL
GASTEIGER

@<TRIPOS>ATOM
      1  PA        51.7640  -11.9790   62.2610 P.3   492  B4P492      0.2189
      2  O1A       51.5520  -12.0850   63.7680 O.3   492  B4P492     -0.4371
      3  O2A       50.5510  -11.8760   61.3900 O.2   492  B4P492     -0.5170
      4  O3A       52.5890  -10.7590   61.6950 O.3   492  B4P492     -0.2701
      5  PB        53.6250   -9.7770   62.3600 P.3   492  B4P492      0.2237
      6  O1B       54.2380  -10.4710   63.5260 O.3   492  B4P492     -0.4369
      7  O2B       52.9460   -8.4870   62.5910 O.2   492  B4P492     -0.5168
      8  O3B       54.7990   -9.5900   61.3070 O.3   492  B4P492     -0.2698
      9  PG        54.6240   -8.8930   59.8810 P.3   492  B4P492      0.2277
     10  O1G       53.2570   -8.2110   59.7650 O.3   492  B4P492     -0.4368
     11  O2G       54.9720   -9.9890   58.8770 O.2   492  B4P492     -0.5168
     12  O3G       55.7710   -7.7800   59.6250 O.3   492  B4P492     -0.2258
     13  PD        56.5690   -7.0030   60.7900 P.3   492  B4P492      0.5373
     14  O1D       57.5400   -6.0450   60.1260 O.2   492  B4P492     -0.2221
     15  O2D       57.3580   -7.9740   61.6620 O.3   492  B4P492     -0.1143
     16  O5E       52.4710  -13.3730   61.8310 O.3   492  B4P492     -0.3112
     17  C5E       53.8590  -13.3700   61.6280 C.3   492  B4P492      0.1813
     18  C4E       54.4610  -14.7540   61.3490 C.3   492  B4P492      0.1821
     19  O4E       53.5750  -15.8600   61.1870 O.3   492  B4P492     -0.3135
     20  C3E       55.2320  -14.7200   60.0140 C.3   492  B4P492      0.2184
     21  O3E       56.4170  -13.9660   59.9880 O.3   492  B4P492     -0.2174
     22  C2E       55.5130  -16.1820   59.7820 C.3   492  B4P492      0.2570
     23  O2E       56.6740  -16.5590   60.4510 O.3   492  B4P492     -0.2130
     24  C1E       54.2400  -16.8200   60.3370 C.3   492  B4P492      0.3186
     25  N9A       53.5320  -17.1490   59.0810 N.pl3 492  B4P492     -0.1439
     26  C8A       53.0970  -16.2170   58.1260 C.3   492  B4P492      0.3377
     27  N7A       52.5100  -16.9150   57.1310 N.2   492  B4P492     -0.2095
     28  C5A       52.5690  -18.2460   57.4140 C.2   492  B4P492      0.2526
     29  C6A       52.1300  -19.3390   56.7120 C.2   492  B4P492      0.4393
     30  N6A       51.3180  -19.1410   55.6660 N.pl3 492  B4P492      0.2180
     31  N1A       52.3070  -20.5910   57.2350 N.2   492  B4P492      0.0021
     32  C2A       52.9350  -20.7450   58.4500 C.3   492  B4P492      0.5254
     33  N3A       53.3830  -19.6380   59.1330 N.2   492  B4P492     -0.0055
     34  C4A       53.2150  -18.4150   58.6210 C.2   492  B4P492      0.3518
     35  O5F       55.3650   -6.2130   61.5690 O.3   492  B4P492     -0.1143
@<TRIPOS>BOND
     1    30    29    1
     2    29    31    2
     3    29    28    1
     4    27    28    2
     5    27    26    1
     6    31    32    1
     7    28    34    1
     8    26    25    1
     9    32    33    1
    10    34    25    1
    11    34    33    2
    12    11     9    2
    13    25    24    1
    14    12     9    1
    15    12    13    1
    16    10     9    1
    17    22    20    1
    18    22    24    1
    19    22    23    1
    20     9     8    1
    21    21    20    1
    22    20    18    1
    23    14    13    2
    24    24    19    1
    25    13    35    1
    26    13    15    1
    27    19    18    1
    28     8     5    1
    29    18    17    1
    30     3     1    2
    31    17    16    1
    32     4     1    1
    33     4     5    1
    34    16     1    1
    35     1     2    1
    36     5     7    2
    37     5     6    1
