@<TRIPOS>MOLECULE
3rsg_APR_A_1.pdb
 36 39 0 0 0
SMALL
GASTEIGER

@<TRIPOS>ATOM
      1  N1        24.6950    7.4930   30.1370 N.2   494  APR494      0.0021
      2  C2        24.7180    6.1600   30.3060 C.3   494  APR494      0.5254
      3  N3        24.5080    5.5800   31.5000 N.2   494  APR494     -0.0055
      4  C4        24.2520    6.3340   32.5970 C.2   494  APR494      0.3518
      5  C5        24.2080    7.7940   32.4790 C.2   494  APR494      0.2526
      6  C6        24.4520    8.3570   31.1420 C.2   494  APR494      0.4393
      7  N6        24.4380    9.6910   30.9470 N.pl3 494  APR494      0.2180
      8  N7        23.9390    8.2780   33.6930 N.2   494  APR494     -0.2095
      9  C8        23.8130    7.2280   34.5290 C.3   494  APR494      0.3377
     10  N9        24.0070    6.0750   33.8720 N.pl3 494  APR494     -0.1439
     11  C1'       23.9240    4.7200   34.4480 C.3   494  APR494      0.3186
     12  C2'       25.1550    4.3470   35.2350 C.3   494  APR494      0.2570
     13  O2'       26.1930    3.7810   34.4420 O.3   494  APR494     -0.2130
     14  C3'       24.5620    3.3560   36.1970 C.3   494  APR494      0.2184
     15  O3'       24.5040    2.0960   35.5520 O.3   494  APR494     -0.2174
     16  O4'       22.8290    4.6390   35.3640 O.3   494  APR494     -0.3135
     17  C4'       23.1730    3.8820   36.5040 C.3   494  APR494      0.1821
     18  C5'       23.1580    4.8110   37.7150 C.3   494  APR494      0.1813
     19  O5'       23.5640    4.1160   38.8880 O.3   494  APR494     -0.3112
     20  PA        23.8350    4.8990   40.2500 P.3   494  APR494      0.2189
     21  O1A       24.8670    5.9200   39.9830 O.2   494  APR494     -0.5170
     22  O2A       24.0320    3.9280   41.3450 O.3   494  APR494     -0.4371
     23  O3A       22.5540    5.8390   40.4090 O.3   494  APR494     -0.2703
     24  PB        21.2080    5.6490   41.2560 P.3   494  APR494      0.2189
     25  O1B       20.7070    7.0220   41.4350 O.3   494  APR494     -0.4371
     26  O2B       20.2970    4.6470   40.6650 O.2   494  APR494     -0.5170
     27  O5D       21.6180    5.1210   42.7040 O.3   494  APR494     -0.3112
     28  C5D       20.5850    4.9020   43.6650 C.3   494  APR494      0.1813
     29  O4D       21.9850    4.1660   45.5320 O.3   494  APR494     -0.3237
     30  O1D       24.1860    4.8190   45.0200 O.3   494  APR494     -0.1869
     31  C1D       23.1790    4.7750   46.0250 C.3   494  APR494      0.3023
     32  O2D       22.2320    6.1770   47.6750 O.3   494  APR494     -0.2148
     33  C2D       22.7970    6.1920   46.3650 C.3   494  APR494      0.2433
     34  O3D       20.8810    7.5430   45.6780 O.3   494  APR494     -0.2175
     35  C3D       21.7810    6.5080   45.2850 C.3   494  APR494      0.2168
     36  C4D       21.0650    5.1730   45.0920 C.3   494  APR494      0.1807
@<TRIPOS>BOND
     1     1     2    1
     2     1     6    2
     3     2     3    1
     4     7     6    1
     5     6     5    1
     6     3     4    2
     7     5     4    1
     8     5     8    2
     9     4    10    1
    10     8     9    1
    11    10    11    1
    12    10     9    1
    13    13    12    1
    14    11    12    1
    15    11    16    1
    16    12    14    1
    17    16    17    1
    18    15    14    1
    19    14    17    1
    20    17    18    1
    21    18    19    1
    22    19    20    1
    23    21    20    2
    24    20    23    1
    25    20    22    1
    26    23    24    1
    27    26    24    2
    28    24    25    1
    29    24    27    1
    30    27    28    1
    31    28    36    1
    32    30    31    1
    33    36    35    1
    34    36    29    1
    35    35    34    1
    36    35    33    1
    37    29    31    1
    38    31    33    1
    39    33    32    1
