@<TRIPOS>MOLECULE
3rsg_NAD_A_1.pdb
 36 39 0 0 0
SMALL
GASTEIGER

@<TRIPOS>ATOM
      1  PA        51.6330   11.7450   15.6200 P.3   493  NAD493      0.2189
      2  O1A       51.5690   12.0060   14.1640 O.2   493  NAD493     -0.5170
      3  O2A       50.3760   11.3400   16.2850 O.3   493  NAD493     -0.4371
      4  O5B       52.0830   13.1150   16.2620 O.3   493  NAD493     -0.3112
      5  C5B       53.4230   13.3990   16.5750 C.3   493  NAD493      0.1813
      6  C4B       53.7580   14.7290   15.9220 C.3   493  NAD493      0.1821
      7  O4B       53.1010   15.8140   16.5560 O.3   493  NAD493     -0.3135
      8  C3B       55.2280   15.0600   16.0360 C.3   493  NAD493      0.2184
      9  O3B       55.5590   15.9250   14.9570 O.3   493  NAD493     -0.2174
     10  C2B       55.2630   15.7550   17.3860 C.3   493  NAD493      0.2570
     11  O2B       56.3890   16.5640   17.5520 O.3   493  NAD493     -0.2130
     12  C1B       53.9930   16.5880   17.3180 C.3   493  NAD493      0.3186
     13  N9A       53.3650   16.8940   18.6200 N.pl3 493  NAD493     -0.1439
     14  C8A       52.9540   15.9860   19.5560 C.3   493  NAD493      0.3377
     15  N7A       52.4030   16.6600   20.5770 N.2   493  NAD493     -0.2095
     16  C5A       52.4470   17.9720   20.3020 C.2   493  NAD493      0.2526
     17  C6A       52.0280   19.0740   21.0190 C.2   493  NAD493      0.4393
     18  N6A       51.3110   18.8920   22.1350 N.pl3 493  NAD493      0.2180
     19  N1A       52.2110   20.3210   20.4790 N.2   493  NAD493      0.0021
     20  C2A       52.8010   20.4670   19.2450 C.3   493  NAD493      0.5254
     21  N3A       53.2160   19.3630   18.5540 N.2   493  NAD493     -0.0055
     22  C4A       53.0500   18.1370   19.0720 C.2   493  NAD493      0.3518
     23  O3        52.7130   10.6950   16.0890 O.3   493  NAD493     -0.2703
     24  PN        53.3380    9.5110   15.2470 P.3   493  NAD493      0.2189
     25  O1N       53.6890    8.4970   16.2170 O.3   493  NAD493     -0.4371
     26  O2N       54.2200   10.1420   14.2640 O.2   493  NAD493     -0.5170
     27  O5D       52.1320    8.9170   14.3740 O.3   493  NAD493     -0.3112
     28  C5D       51.1210    8.1060   14.9130 C.3   493  NAD493      0.1813
     29  C4D       49.9860    8.1250   13.8850 C.3   493  NAD493      0.1797
     30  O4D       50.4030    7.5470   12.6480 O.3   493  NAD493     -0.3336
     31  C3D       48.7540    7.3570   14.3500 C.3   493  NAD493      0.2156
     32  O3D       47.8620    8.1990   15.0310 O.3   493  NAD493     -0.2176
     33  C2D       48.2240    6.8300   13.0340 C.3   493  NAD493      0.2298
     34  O2D       47.5040    7.8380   12.3820 O.3   493  NAD493     -0.2160
     35  C1D       49.4880    6.5680   12.2170 C.3   493  NAD493      0.2397
     36  N1N       49.9920    5.2170   12.4570 N.3   493  NAD493     -0.0972
@<TRIPOS>BOND
     1    35    36    1
     2    35    30    1
     3    35    33    1
     4    34    33    1
     5    30    29    1
     6    33    31    1
     7    29    31    1
     8    29    28    1
     9     2     1    2
    10    26    24    2
    11    31    32    1
    12    27    28    1
    13    27    24    1
    14     9     8    1
    15    24    23    1
    16    24    25    1
    17     1    23    1
    18     1     4    1
    19     1     3    1
    20     6     8    1
    21     6     7    1
    22     6     5    1
    23     8    10    1
    24     4     5    1
    25     7    12    1
    26    12    10    1
    27    12    13    1
    28    10    11    1
    29    21    22    2
    30    21    20    1
    31    13    22    1
    32    13    14    1
    33    22    16    1
    34    20    19    1
    35    14    15    1
    36    16    15    2
    37    16    17    1
    38    19    17    2
    39    17    18    1
