@<TRIPOS>MOLECULE
3rsh_NAP_A_1.pdb
 48 52 0 0 0
SMALL
GASTEIGER

@<TRIPOS>ATOM
      1  PA         8.5630    8.8550   -3.7010 P.3   254  NAP254      0.2189
      2  O1A        8.2020    7.5320   -3.0710 O.3   254  NAP254     -0.4371
      3  O2A        9.6820    8.9740   -4.7070 O.2   254  NAP254     -0.5170
      4  O5B        7.2750    9.4990   -4.4090 O.3   254  NAP254     -0.3112
      5  C5B        7.4110   10.7390   -5.1070 C.3   254  NAP254      0.1813
      6  C4B        6.0630   11.1790   -5.6580 C.3   254  NAP254      0.1820
      7  O4B        6.2400   12.4170   -6.3430 O.3   254  NAP254     -0.3136
      8  C3B        5.5160   10.1800   -6.6730 C.3   254  NAP254      0.2157
      9  O3B        4.0860   10.0590   -6.6080 O.3   254  NAP254     -0.2175
     10  C2B        5.9270   10.7860   -7.9930 C.3   254  NAP254      0.2314
     11  O2B        5.0540   10.3720   -9.0340 O.3   254  NAP254     -0.2630
     12  C1B        5.8330   12.2660   -7.7010 C.3   254  NAP254      0.3158
     13  N9A        6.6680   13.0840   -8.5970 N.pl3 254  NAP254     -0.1439
     14  C8A        7.9950   12.9820   -8.7910 C.3   254  NAP254      0.3377
     15  N7A        8.3520   13.9130   -9.6940 N.2   254  NAP254     -0.2095
     16  C5A        7.2570   14.6030  -10.0530 C.2   254  NAP254      0.2526
     17  C6A        7.0250   15.6620  -10.9230 C.2   254  NAP254      0.4393
     18  N6A        8.0240   16.2210  -11.6400 N.pl3 254  NAP254      0.2180
     19  N1A        5.7700   16.1340  -11.0610 N.2   254  NAP254      0.0021
     20  C2A        4.7530   15.5980  -10.3660 C.3   254  NAP254      0.5254
     21  N3A        4.9410   14.5710   -9.5260 N.2   254  NAP254     -0.0055
     22  C4A        6.1900   14.0610   -9.3650 C.2   254  NAP254      0.3518
     23  O3         8.8900    9.9750   -2.5660 O.3   254  NAP254     -0.2703
     24  PN         8.5520    9.9340   -0.9940 P.3   254  NAP254      0.2189
     25  O1N        7.1400    9.4440   -0.7280 O.2   254  NAP254     -0.5170
     26  O2N        9.7090    9.3590   -0.2260 O.3   254  NAP254     -0.4371
     27  O5D        8.5810   11.4920   -0.6180 O.3   254  NAP254     -0.3112
     28  C5D        7.5320   12.3970   -0.9200 C.3   254  NAP254      0.1813
     29  C4D        7.9640   13.7340   -0.3310 C.3   254  NAP254      0.1799
     30  O4D        8.4980   13.5240    0.9770 O.3   254  NAP254     -0.3327
     31  C3D        9.0760   14.3760   -1.1410 C.3   254  NAP254      0.2158
     32  O3D        8.8250   15.7840   -1.2450 O.3   254  NAP254     -0.2175
     33  C2D       10.3340   14.0850   -0.3500 C.3   254  NAP254      0.2309
     34  O2D       11.3540   15.0610   -0.5950 O.3   254  NAP254     -0.2158
     35  C1D        9.7990   14.1000    1.0760 C.3   254  NAP254      0.2263
     36  N1N       10.6170   13.3690    2.0490 N.pl3 254  NAP254     -0.2787
     37  C2N       10.7490   12.0210    2.0140 C.3   254  NAP254      0.1244
     38  C3N       11.5390   11.3680    2.9660 C.2   254  NAP254      0.0544
     39  C7N       11.7430    9.8780    2.9980 C.2   254  NAP254      0.2818
     40  O7N       12.6570    9.3820    3.8310 O.2   254  NAP254     -0.2670
     41  N7N       11.0660    9.0950    2.2740 N.am  254  NAP254     -0.0839
     42  C4N       12.1670   12.1200    3.9490 C.2   254  NAP254      0.0033
     43  C5N       12.0090   13.4930    3.9740 C.2   254  NAP254      0.0157
     44  C6N       11.2200   14.0890    3.0010 C.2   254  NAP254      0.0633
     45  P2B        5.2980    9.0050   -9.8390 P.3   254  NAP254      0.5328
     46  O1X        4.6590    7.9710   -8.9590 O.3   254  NAP254     -0.1145
     47  O2X        6.7980    8.8750   -9.9600 O.3   254  NAP254     -0.1145
     48  O3X        4.5780    9.2470  -11.1380 O.2   254  NAP254     -0.2224
@<TRIPOS>BOND
     1    18    17    1
     2    48    45    2
     3    19    17    2
     4    19    20    1
     5    17    16    1
     6    20    21    1
     7    16    15    2
     8    16    22    1
     9    47    45    1
    10    45    11    1
    11    45    46    1
    12    15    14    1
    13    21    22    2
    14    22    13    1
    15    11    10    1
    16    14    13    1
    17    13    12    1
    18    10    12    1
    19    10     8    1
    20    12     7    1
    21     8     9    1
    22     8     6    1
    23     7     6    1
    24     6     5    1
    25     5     4    1
    26     3     1    2
    27     4     1    1
    28     1     2    1
    29     1    23    1
    30    23    24    1
    31    32    31    1
    32    31    33    1
    33    31    29    1
    34    24    25    2
    35    24    27    1
    36    24    26    1
    37    28    27    1
    38    28    29    1
    39    34    33    1
    40    33    35    1
    41    29    30    1
    42    30    35    1
    43    35    36    1
    44    37    36    1
    45    37    38    1
    46    36    44    1
    47    41    39   am
    48    38    39    1
    49    38    42    2
    50    39    40    2
    51    44    43    2
    52    42    43    1
