@<TRIPOS>MOLECULE
3rsj_GAL_A_1.pdb
 11 11 0 0 0
SMALL
GASTEIGER

@<TRIPOS>ATOM
      1  C1        14.7770  -14.5290   25.3080 C.3     4  GAL4        0.2997
      2  C2        16.0300  -13.6650   25.5930 C.3     4  GAL4        0.2134
      3  C3        15.8180  -12.2760   24.9330 C.3     4  GAL4        0.0738
      4  C4        15.5900  -12.4750   23.4330 C.3     4  GAL4        0.1843
      5  C5        14.3900  -13.3860   23.2170 C.3     4  GAL4        0.1810
      6  C6        14.2010  -13.6080   21.7260 C.3     4  GAL4        0.2141
      7  O1        14.9590  -15.8170   25.8800 O.3     4  GAL4       -0.1870
      8  O2        16.2450  -13.4900   26.9790 O.3     4  GAL4       -0.2175
      9  O4        16.7580  -13.0420   22.8410 O.3     4  GAL4       -0.2204
     10  O5        14.6040  -14.6350   23.8910 O.3     4  GAL4       -0.3238
     11  O6        13.2370  -14.6230   21.5180 O.3     4  GAL4       -0.2176
@<TRIPOS>BOND
     1    11     6    1
     2     6     5    1
     3     9     4    1
     4     5     4    1
     5     5    10    1
     6     4     3    1
     7    10     1    1
     8     3     2    1
     9     1     2    1
    10     1     7    1
    11     2     8    1
