@<TRIPOS>MOLECULE
3rsj_SIA_A_1.pdb
 21 21 0 0 0
SMALL
GASTEIGER

@<TRIPOS>ATOM
      1  C1        15.8940   -9.4870   25.5560 C.2     5  SIA5        0.4179
      2  C2        16.9010  -10.3330   26.0350 C.3     5  SIA5        0.3155
      3  C3        18.2430   -9.6240   25.9340 C.3     5  SIA5        0.1056
      4  C4        18.2230   -8.5030   26.9990 C.3     5  SIA5        0.1798
      5  C5        18.0300   -9.1090   28.3920 C.3     5  SIA5        0.1554
      6  C6        16.6620   -9.8450   28.4370 C.3     5  SIA5        0.1734
      7  C7        16.3400  -10.5230   29.7960 C.3     5  SIA5        0.2135
      8  C8        14.9820  -11.2300   29.8250 C.3     5  SIA5        0.2173
      9  C9        14.4700  -11.6230   31.2120 C.3     5  SIA5        0.2175
     10  C10       19.0150   -7.9720   30.3740 C.2     5  SIA5        0.2420
     11  C11       18.9180   -6.8060   31.3130 C.3     5  SIA5        0.0964
     12  N5        18.0780   -8.0340   29.3960 N.am    5  SIA5       -0.2020
     13  O1A       16.0210   -8.9990   24.4380 O.co2   5  SIA5       -0.2401
     14  O1B       14.8840   -9.2440   26.2320 O.co2   5  SIA5       -0.2401
     15  O2        16.9820  -11.4620   25.0750 O.3     5  SIA5       -0.1830
     16  O4        19.4560   -7.8200   26.9770 O.3     5  SIA5       -0.2210
     17  O6        16.6280  -10.8720   27.3870 O.3     5  SIA5       -0.3220
     18  O7        17.3050  -11.5220   30.0900 O.3     5  SIA5       -0.2176
     19  O8        13.9590  -10.3910   29.2630 O.3     5  SIA5       -0.2175
     20  O9        13.5920  -12.7790   31.1180 O.3     5  SIA5       -0.2175
     21  O10       19.9060   -8.7950   30.5180 O.2     5  SIA5       -0.2733
@<TRIPOS>BOND
     1    13     1   ar
     2    15     2    1
     3     1     2    1
     4     1    14   ar
     5     3     2    1
     6     3     4    1
     7     2    17    1
     8    16     4    1
     9     4     5    1
    10    17     6    1
    11     5     6    1
    12     5    12    1
    13     6     7    1
    14    19     8    1
    15    12    10   am
    16     7     8    1
    17     7    18    1
    18     8     9    1
    19    10    21    2
    20    10    11    1
    21    20     9    1
