@<TRIPOS>MOLECULE
3rsl_GNP_A_1.pdb
 32 34 0 0 0
SMALL
GASTEIGER

@<TRIPOS>ATOM
      1  PG        -9.9060   64.9360  -66.4350 P.3   190  GNP190      0.4884
      2  O1G       -8.9320   64.5980  -65.3270 O.3   190  GNP190     -0.1240
      3  O2G      -10.8480   65.9910  -65.9660 O.3   190  GNP190     -0.1240
      4  O3G      -10.5680   63.6510  -66.8570 O.2   190  GNP190     -0.2331
      5  N3B       -9.0240   65.5460  -67.6580 N.3   190  GNP190     -0.0163
      6  PB        -9.5640   66.1850  -69.0410 P.3   190  GNP190      0.4669
      7  O1B       -9.9070   65.1290  -70.0330 O.2   190  GNP190     -0.2351
      8  O2B      -10.6390   67.1610  -68.7860 O.3   190  GNP190     -0.1253
      9  O3A       -8.3560   66.9610  -69.6500 O.3   190  GNP190     -0.2360
     10  PA        -8.0550   68.5180  -69.6340 P.3   190  GNP190      0.2220
     11  O1A       -9.0110   69.2290  -70.4880 O.2   190  GNP190     -0.5170
     12  O2A       -7.9310   68.9690  -68.2290 O.3   190  GNP190     -0.4370
     13  O5'       -6.6490   68.6610  -70.3300 O.3   190  GNP190     -0.3111
     14  C5'       -5.5150   67.9920  -69.7880 C.3   190  GNP190      0.1813
     15  C4'       -4.2290   68.5790  -70.3260 C.3   190  GNP190      0.1799
     16  O4'       -4.1630   68.3520  -71.7570 O.3   190  GNP190     -0.3326
     17  C3'       -4.1040   70.0930  -70.1160 C.3   190  GNP190      0.2158
     18  O3'       -2.7560   70.4180  -69.8370 O.3   190  GNP190     -0.2175
     19  C2'       -4.5480   70.6560  -71.4660 C.3   190  GNP190      0.2310
     20  O2'       -3.9710   71.9160  -71.7830 O.3   190  GNP190     -0.2158
     21  C1'       -4.0120   69.5810  -72.4210 C.3   190  GNP190      0.2293
     22  N9        -4.7980   69.5240  -73.6410 N.pl3 190  GNP190     -0.2354
     23  C8        -6.1510   69.3510  -73.7400 C.3   190  GNP190      0.2246
     24  N7        -6.5760   69.3720  -74.9660 N.2   190  GNP190     -0.2322
     25  C5        -5.4360   69.5590  -75.7320 C.2   190  GNP190      0.2182
     26  C6        -5.2720   69.6790  -77.1350 C.1   190  GNP190      0.2372
     27  O6        -6.1290   69.5960  -78.0370 O.2   190  GNP190     -0.2069
     28  N1        -3.9300   69.8710  -77.4910 N.2   190  GNP190     -0.2485
     29  C2        -2.8900   69.9690  -76.5970 C.1   190  GNP190      0.2531
     30  N2        -1.6680   70.1740  -77.1170 N.pl3 190  GNP190     -0.0226
     31  N3        -3.0340   69.8610  -75.2870 N.2   190  GNP190     -0.3074
     32  C4        -4.3270   69.6640  -74.9260 C.2   190  GNP190      0.2300
@<TRIPOS>BOND
     1    27    26    2
     2    28    26    2
     3    28    29    2
     4    26    25    1
     5    30    29    1
     6    29    31    2
     7    25    24    2
     8    25    32    1
     9    31    32    2
    10    24    23    1
    11    32    22    1
    12    23    22    1
    13    22    21    1
    14    21    16    1
    15    21    19    1
    16    20    19    1
    17    16    15    1
    18    19    17    1
    19    11    10    2
    20    13    14    1
    21    13    10    1
    22    15    17    1
    23    15    14    1
    24    17    18    1
    25     7     6    2
    26     9    10    1
    27     9     6    1
    28    10    12    1
    29     6     8    1
    30     6     5    1
    31     5     1    1
    32     4     1    2
    33     1     3    1
    34     1     2    1
