@<TRIPOS>MOLECULE
3rso_GNP_A_1.pdb
 32 34 0 0 0
SMALL
GASTEIGER

@<TRIPOS>ATOM
      1  PG        -9.8280   64.4850  -66.9920 P.3   190  GNP190      0.4884
      2  O1G       -8.8730   64.1050  -65.8730 O.3   190  GNP190     -0.1240
      3  O2G      -10.7700   65.5470  -66.5470 O.3   190  GNP190     -0.1240
      4  O3G      -10.5120   63.2380  -67.4760 O.2   190  GNP190     -0.2331
      5  N3B       -8.9520   65.0690  -68.2280 N.3   190  GNP190     -0.0163
      6  PB        -9.4430   65.7200  -69.6340 P.3   190  GNP190      0.4669
      7  O1B       -9.8190   64.6750  -70.6300 O.2   190  GNP190     -0.2351
      8  O2B      -10.5010   66.7310  -69.4040 O.3   190  GNP190     -0.1253
      9  O3A       -8.2060   66.4650  -70.2310 O.3   190  GNP190     -0.2360
     10  PA        -7.8730   67.9970  -70.2370 P.3   190  GNP190      0.2220
     11  O1A       -8.8040   68.7360  -71.1120 O.2   190  GNP190     -0.5170
     12  O2A       -7.6760   68.4520  -68.8370 O.3   190  GNP190     -0.4370
     13  O5'       -6.4810   68.0420  -70.9860 O.3   190  GNP190     -0.3111
     14  C5'       -5.3560   67.3480  -70.4330 C.3   190  GNP190      0.1813
     15  C4'       -4.0880   67.9720  -70.9680 C.3   190  GNP190      0.1799
     16  O4'       -4.0490   67.8080  -72.4130 O.3   190  GNP190     -0.3326
     17  C3'       -3.9270   69.4740  -70.7180 C.3   190  GNP190      0.2158
     18  O3'       -2.5580   69.7650  -70.4500 O.3   190  GNP190     -0.2175
     19  C2'       -4.3770   70.1000  -72.0400 C.3   190  GNP190      0.2310
     20  O2'       -3.7930   71.3560  -72.3490 O.3   190  GNP190     -0.2158
     21  C1'       -3.9110   69.0590  -73.0490 C.3   190  GNP190      0.2293
     22  N9        -4.6990   69.0200  -74.2730 N.pl3 190  GNP190     -0.2354
     23  C8        -6.0610   68.8190  -74.3660 C.3   190  GNP190      0.2246
     24  N7        -6.4930   68.8400  -75.5940 N.2   190  GNP190     -0.2322
     25  C5        -5.3590   69.0670  -76.3600 C.2   190  GNP190      0.2182
     26  C6        -5.2130   69.1800  -77.7660 C.1   190  GNP190      0.2372
     27  O6        -6.0870   69.1110  -78.6300 O.2   190  GNP190     -0.2069
     28  N1        -3.8930   69.4120  -78.1430 N.2   190  GNP190     -0.2485
     29  C2        -2.8430   69.5240  -77.2630 C.1   190  GNP190      0.2531
     30  N2        -1.6400   69.7410  -77.8130 N.pl3 190  GNP190     -0.0226
     31  N3        -2.9630   69.4050  -75.9420 N.2   190  GNP190     -0.3074
     32  C4        -4.2450   69.1830  -75.5640 C.2   190  GNP190      0.2300
@<TRIPOS>BOND
     1    27    26    2
     2    28    26    2
     3    28    29    2
     4    30    29    1
     5    26    25    1
     6    29    31    2
     7    25    24    2
     8    25    32    1
     9    31    32    2
    10    24    23    1
    11    32    22    1
    12    23    22    1
    13    22    21    1
    14    21    16    1
    15    21    19    1
    16    16    15    1
    17    20    19    1
    18    19    17    1
    19    11    10    2
    20    13    14    1
    21    13    10    1
    22    15    17    1
    23    15    14    1
    24    17    18    1
    25     7     6    2
    26    10     9    1
    27    10    12    1
    28     9     6    1
    29     6     8    1
    30     6     5    1
    31     5     1    1
    32     4     1    2
    33     1     3    1
    34     1     2    1
