@<TRIPOS>MOLECULE
3rsq_NAI_A_1.pdb
 36 39 0 0 0
SMALL
GASTEIGER

@<TRIPOS>ATOM
      1  PA        11.7750   51.5940   62.1490 P.3   492  NAI492      0.2189
      2  O1A       11.4800   50.3320   61.3730 O.2   492  NAI492     -0.5170
      3  O2A       12.0680   51.6070   63.6720 O.3   492  NAI492     -0.4371
      4  O5B       13.1320   52.0640   61.5060 O.3   492  NAI492     -0.3112
      5  C5B       13.3900   53.4370   61.2150 C.3   492  NAI492      0.1813
      6  C4B       14.7670   53.7140   61.7960 C.3   492  NAI492      0.1821
      7  O4B       15.8390   53.0720   61.0880 O.3   492  NAI492     -0.3135
      8  C3B       15.1380   55.1760   61.7140 C.3   492  NAI492      0.2184
      9  O3B       16.1150   55.3690   62.7590 O.3   492  NAI492     -0.2174
     10  C2B       15.7940   55.2760   60.3400 C.3   492  NAI492      0.2570
     11  O2B       16.6790   56.3740   60.3040 O.3   492  NAI492     -0.2130
     12  C1B       16.6180   54.0120   60.3260 C.3   492  NAI492      0.3186
     13  N9A       16.9480   53.3690   59.0130 N.pl3 492  NAI492     -0.1439
     14  C8A       16.0700   52.8950   58.0930 C.3   492  NAI492      0.3377
     15  N7A       16.7150   52.2630   57.0670 N.2   492  NAI492     -0.2095
     16  C5A       18.0190   52.3360   57.3510 C.2   492  NAI492      0.2526
     17  C6A       19.2290   51.8910   56.6730 C.2   492  NAI492      0.4393
     18  N6A       19.0700   51.2400   55.4910 N.pl3 492  NAI492      0.2180
     19  N1A       20.4210   52.1530   57.2610 N.2   492  NAI492      0.0021
     20  C2A       20.5150   52.7850   58.4410 C.3   492  NAI492      0.5254
     21  N3A       19.4370   53.2260   59.1060 N.2   492  NAI492     -0.0055
     22  C4A       18.1900   53.0580   58.6190 C.2   492  NAI492      0.3518
     23  O3        10.6410   52.6060   61.6240 O.3   492  NAI492     -0.2703
     24  PN         9.5120   53.3950   62.4650 P.3   492  NAI492      0.2189
     25  O1N        8.5110   53.6580   61.4320 O.2   492  NAI492     -0.5170
     26  O2N       10.1970   54.2670   63.4910 O.3   492  NAI492     -0.4371
     27  O5D        8.9030   52.1470   63.3180 O.3   492  NAI492     -0.3112
     28  C5D        8.1470   51.0620   62.7340 C.3   492  NAI492      0.1813
     29  C4D        8.1420   49.9330   63.7860 C.3   492  NAI492      0.1797
     30  O4D        7.5390   50.3600   65.0430 O.3   492  NAI492     -0.3336
     31  C3D        7.3450   48.6940   63.3450 C.3   492  NAI492      0.2156
     32  O3D        8.2350   47.8010   62.6560 O.3   492  NAI492     -0.2176
     33  C2D        6.8150   48.1610   64.6720 C.3   492  NAI492      0.2298
     34  O2D        7.9490   47.5490   65.3110 O.3   492  NAI492     -0.2160
     35  C1D        6.4580   49.4570   65.4570 C.3   492  NAI492      0.2397
     36  N1N        5.1790   50.0020   65.0570 N.3   492  NAI492     -0.0972
@<TRIPOS>BOND
     1    18    17    1
     2    17    19    2
     3    17    16    1
     4    15    16    2
     5    15    14    1
     6    19    20    1
     7    16    22    1
     8    14    13    1
     9    20    21    1
    10    22    13    1
    11    22    21    2
    12    13    12    1
    13    11    10    1
    14    12    10    1
    15    12     7    1
    16    10     8    1
    17     7     6    1
    18     5     4    1
    19     5     6    1
    20     2     1    2
    21    25    24    2
    22     4     1    1
    23    23     1    1
    24    23    24    1
    25     8     6    1
    26     8     9    1
    27     1     3    1
    28    24    27    1
    29    24    26    1
    30    32    31    1
    31    28    27    1
    32    28    29    1
    33    31    29    1
    34    31    33    1
    35    29    30    1
    36    33    34    1
    37    33    35    1
    38    30    35    1
    39    36    35    1
