@<TRIPOS>MOLECULE
3rsq_NAX_A_1.pdb
 45 49 0 0 0
SMALL
GASTEIGER

@<TRIPOS>ATOM
      1  PA         7.9920   25.7140   29.7000 P.3   493  NAX493      0.2189
      2  O1A        8.4150   25.8700   28.2770 O.2   493  NAX493     -0.5170
      3  O2A        6.5030   25.9390   30.0420 O.3   493  NAX493     -0.4371
      4  O5B        8.8430   26.6650   30.6480 O.3   493  NAX493     -0.3112
      5  C5B        9.4370   27.9160   30.2930 C.3   493  NAX493      0.1813
      6  C4B       10.8650   27.8460   30.8300 C.3   493  NAX493      0.1821
      7  O4B       10.9910   28.1490   32.2120 O.3   493  NAX493     -0.3135
      8  C3B       11.4700   26.4530   30.7190 C.3   493  NAX493      0.2184
      9  O3B       12.0650   26.3510   29.4430 O.3   493  NAX493     -0.2174
     10  C2B       12.4830   26.3250   31.8270 C.3   493  NAX493      0.2570
     11  O2B       13.7630   26.7290   31.3870 O.3   493  NAX493     -0.2130
     12  C1B       12.0080   27.3560   32.8460 C.3   493  NAX493      0.3186
     13  N9A       11.2980   26.7690   33.9810 N.pl3 493  NAX493     -0.1439
     14  C8A       10.7050   25.5510   34.1170 C.3   493  NAX493      0.3377
     15  N7A       10.0690   25.4830   35.3380 N.2   493  NAX493     -0.2095
     16  C5A       10.2550   26.6710   35.9410 C.2   493  NAX493      0.2526
     17  C6A        9.8590   27.2940   37.2040 C.2   493  NAX493      0.4393
     18  N6A        9.1400   26.5830   38.0800 N.pl3 493  NAX493      0.2180
     19  N1A       10.2520   28.5560   37.4340 N.2   493  NAX493      0.0021
     20  C2A       10.9740   29.2550   36.5450 C.3   493  NAX493      0.5254
     21  N3A       11.3510   28.7550   35.3670 N.2   493  NAX493     -0.0055
     22  C4A       11.0310   27.5140   35.0400 C.2   493  NAX493      0.3518
     23  O3         8.6460   24.3320   30.1730 O.3   493  NAX493     -0.2703
     24  PN         8.0130   23.2460   31.2170 P.3   493  NAX493      0.2189
     25  O1N        7.5900   24.0040   32.4420 O.3   493  NAX493     -0.4371
     26  O2N        9.0400   22.1390   31.3520 O.2   493  NAX493     -0.5170
     27  O5D        6.7280   22.7070   30.4480 O.3   493  NAX493     -0.3112
     28  C5D        6.7950   22.2730   29.0820 C.3   493  NAX493      0.1813
     29  C4D        5.7360   21.1850   28.9010 C.3   493  NAX493      0.1799
     30  O4D        6.1120   20.0230   29.6900 O.3   493  NAX493     -0.3326
     31  C3D        4.3270   21.5780   29.3640 C.3   493  NAX493      0.2158
     32  O3D        3.3400   21.2530   28.3610 O.3   493  NAX493     -0.2175
     33  C2D        4.1060   20.7090   30.6250 C.3   493  NAX493      0.2310
     34  O2D        2.7210   20.3720   30.8380 O.3   493  NAX493     -0.2158
     35  C1D        4.8990   19.4750   30.1690 C.3   493  NAX493      0.2278
     36  N1N        5.1900   18.5410   31.2480 N.pl3 493  NAX493     -0.2585
     37  C2N        5.0470   17.2890   31.0110 C.2   493  NAX493      0.0652
     38  C3N        5.2810   16.3020   31.8880 C.2   493  NAX493      0.0492
     39  C7N        4.8160   14.9250   31.6020 C.2   493  NAX493      0.2814
     40  O7N        4.1730   14.6350   30.5710 O.2   493  NAX493     -0.2670
     41  N7N        5.0220   13.9930   32.5390 N.am  493  NAX493     -0.0839
     42  C4N        5.9040   16.6720   33.2220 C.3   493  NAX493      0.0368
     43  C5N        6.5370   18.0620   33.1760 C.3   493  NAX493      0.0591
     44  C6N        5.6540   19.1040   32.5280 C.3   493  NAX493      0.2302
     45  O6N        4.5230   19.4430   33.3520 O.3   493  NAX493     -0.2006
@<TRIPOS>BOND
     1     2     1    2
     2    32    31    1
     3    29    28    1
     4    29    31    1
     5    29    30    1
     6    28    27    1
     7    31    33    1
     8     9     8    1
     9    30    35    1
    10     1     3    1
    11     1    23    1
    12     1     4    1
    13    35    33    1
    14    35    36    1
    15    23    24    1
    16     5     4    1
    17     5     6    1
    18    27    24    1
    19    40    39    2
    20    33    34    1
    21     8     6    1
    22     8    10    1
    23     6     7    1
    24    37    36    1
    25    37    38    2
    26    24    26    2
    27    24    25    1
    28    36    44    1
    29    11    10    1
    30    39    38    1
    31    39    41   am
    32    10    12    1
    33    38    42    1
    34     7    12    1
    35    44    43    1
    36    44    45    1
    37    12    13    1
    38    43    42    1
    39    13    14    1
    40    13    22    1
    41    14    15    1
    42    22    21    2
    43    22    16    1
    44    15    16    2
    45    21    20    1
    46    16    17    1
    47    20    19    1
    48    17    19    2
    49    17    18    1
