@<TRIPOS>MOLECULE
3rsr_N5P_A_1.pdb
 32 34 0 0 0
SMALL
GASTEIGER

@<TRIPOS>ATOM
      1  OR2      -13.5820   52.8600   19.4180 O.2   841  N5P841     -0.1261
      2  NRO      -13.1080   51.9510   20.3590 N.pl3 841  N5P841      0.0577
      3  OR1      -13.6590   51.7890   21.4440 O.2   841  N5P841     -0.1261
      4  CZ3      -11.9930   51.1770   20.0720 C.ar  841  N5P841      0.1430
      5  CE3      -11.3160   51.3320   18.8630 C.ar  841  N5P841      0.0256
      6  CD2      -10.2230   50.5130   18.6400 C.ar  841  N5P841      0.0190
      7  CH2      -11.6200   50.2540   21.0440 C.ar  841  N5P841      0.0256
      8  CZ2      -10.5360   49.4270   20.8480 C.ar  841  N5P841      0.0189
      9  CE2       -9.8320   49.5420   19.6640 C.ar  841  N5P841      0.0619
     10  NE1       -8.7650   48.9150   19.1510 N.ar  841  N5P841     -0.3040
     11  CD1       -8.4630   49.4170   17.9190 C.ar  841  N5P841      0.0777
     12  CG        -9.3360   50.4300   17.5250 C.ar  841  N5P841      0.0202
     13  C1'       -8.0350   47.8360   19.8700 C.3   841  N5P841      0.2073
     14  O4'       -8.9440   46.9990   20.5890 O.3   841  N5P841     -0.3327
     15  C4'       -8.2660   46.4070   21.7040 C.3   841  N5P841      0.1775
     16  C3'       -6.8870   47.0620   21.7380 C.3   841  N5P841      0.1859
     17  O3'       -5.9470   46.1790   21.0960 O.3   841  N5P841     -0.2203
     18  C2'       -7.0530   48.3350   20.9210 C.3   841  N5P841      0.0893
     19  C5'       -9.0350   46.5980   23.0120 C.3   841  N5P841      0.1812
     20  O5'       -8.9650   47.9590   23.4280 O.3   841  N5P841     -0.3112
     21  PA        -9.7380   48.4710   24.7570 P.3   841  N5P841      0.2189
     22  O1A       -9.6180   47.4490   25.8670 O.3   841  N5P841     -0.4371
     23  O2A       -9.3290   49.8810   25.0770 O.2   841  N5P841     -0.5170
     24  O3A      -11.2150   48.5140   24.1070 O.3   841  N5P841     -0.2700
     25  PB       -12.5920   48.4900   24.9490 P.3   841  N5P841      0.2277
     26  O1B      -12.3650   49.3280   26.1810 O.3   841  N5P841     -0.4368
     27  O2B      -13.6010   49.0380   23.9760 O.2   841  N5P841     -0.5168
     28  O3B      -12.8900   46.8550   25.1150 O.3   841  N5P841     -0.2258
     29  PG       -12.3170   45.7640   26.2130 P.3   841  N5P841      0.5373
     30  O3G      -12.6710   44.2690   25.9630 O.2   841  N5P841     -0.2221
     31  O2G      -12.8960   46.6180   27.3350 O.3   841  N5P841     -0.1143
     32  O1G      -10.8050   45.6250   26.0380 O.3   841  N5P841     -0.1143
@<TRIPOS>BOND
     1    12    11   ar
     2    12     6   ar
     3    11    10   ar
     4     6     5   ar
     5     6     9   ar
     6     5     4   ar
     7    10     9   ar
     8    10    13    1
     9     1     2    2
    10     9     8   ar
    11    13    14    1
    12    13    18    1
    13     4     2    1
    14     4     7   ar
    15     2     3    2
    16    14    15    1
    17     8     7   ar
    18    18    16    1
    19    17    16    1
    20    15    16    1
    21    15    19    1
    22    19    20    1
    23    20    21    1
    24    27    25    2
    25    24    21    1
    26    24    25    1
    27    21    23    2
    28    21    22    1
    29    25    28    1
    30    25    26    1
    31    28    29    1
    32    30    29    2
    33    32    29    1
    34    29    31    1
