@<TRIPOS>MOLECULE
3rss_NAP_A_1.pdb
 40 43 0 0 0
SMALL
GASTEIGER

@<TRIPOS>ATOM
      1  PA       -11.9250   51.6360   15.6110 P.3   492  NAP492      0.2189
      2  O1A      -11.5600   50.2960   16.1460 O.3   492  NAP492     -0.4371
      3  O2A      -12.2290   51.6210   14.1160 O.2   492  NAP492     -0.5170
      4  O5B      -13.1790   52.1900   16.4160 O.3   492  NAP492     -0.3112
      5  C5B      -13.5040   53.5650   16.3490 C.3   492  NAP492      0.1813
      6  C4B      -14.9250   53.7230   15.8150 C.3   492  NAP492      0.1820
      7  O4B      -15.8770   53.0260   16.6230 O.3   492  NAP492     -0.3136
      8  C3B      -15.4470   55.1500   15.7990 C.3   492  NAP492      0.2157
      9  O3B      -16.4030   55.1750   14.7420 O.3   492  NAP492     -0.2175
     10  C2B      -16.1120   55.2590   17.1800 C.3   492  NAP492      0.2314
     11  O2B      -17.1200   56.2210   17.2420 O.3   492  NAP492     -0.2630
     12  C1B      -16.7780   53.9110   17.2860 C.3   492  NAP492      0.3158
     13  N9A      -17.0280   53.3630   18.6390 N.pl3 492  NAP492     -0.1439
     14  C8A      -16.1020   52.9740   19.5750 C.3   492  NAP492      0.3377
     15  N7A      -16.7660   52.4260   20.6240 N.2   492  NAP492     -0.2095
     16  C5A      -18.0980   52.4510   20.3390 C.2   492  NAP492      0.2526
     17  C6A      -19.2160   52.0360   21.0420 C.2   492  NAP492      0.4393
     18  N6A      -19.1300   51.4690   22.2710 N.pl3 492  NAP492      0.2180
     19  N1A      -20.4270   52.1990   20.4870 N.2   492  NAP492      0.0021
     20  C2A      -20.6040   52.7700   19.2450 C.3   492  NAP492      0.5254
     21  N3A      -19.4960   53.1740   18.5470 N.2   492  NAP492     -0.0055
     22  C4A      -18.2690   53.0480   19.1010 C.2   492  NAP492      0.3518
     23  O3       -10.7130   52.5960   16.0100 O.3   492  NAP492     -0.2703
     24  PN        -9.5800   53.4150   15.2450 P.3   492  NAP492      0.2189
     25  O1N      -10.1890   54.3330   14.2650 O.2   492  NAP492     -0.5170
     26  O2N       -8.6360   53.7060   16.2850 O.3   492  NAP492     -0.4371
     27  O5D       -8.9550   52.1480   14.4040 O.3   492  NAP492     -0.3112
     28  C5D       -8.2740   51.0460   14.9940 C.3   492  NAP492      0.1813
     29  C4D       -8.2780   49.9400   13.9590 C.3   492  NAP492      0.1797
     30  O4D       -7.6900   50.4520   12.7480 O.3   492  NAP492     -0.3336
     31  C3D       -7.4750   48.7000   14.3710 C.3   492  NAP492      0.2156
     32  O3D       -8.3240   47.7770   15.0000 O.3   492  NAP492     -0.2176
     33  C2D       -6.9670   48.2430   13.0180 C.3   492  NAP492      0.2298
     34  O2D       -8.0470   47.5900   12.3800 O.3   492  NAP492     -0.2160
     35  C1D       -6.6720   49.5620   12.2750 C.3   492  NAP492      0.2397
     36  N1N       -5.3270   50.0600   12.6020 N.3   492  NAP492     -0.0972
     37  P2B      -16.6560   57.6710   17.7720 P.3   492  NAP492      0.5328
     38  O1X      -17.7150   58.5720   17.2220 O.3   492  NAP492     -0.1145
     39  O2X      -15.3200   58.0450   17.1520 O.2   492  NAP492     -0.2224
     40  O3X      -16.4790   57.6580   19.2440 O.3   492  NAP492     -0.1145
@<TRIPOS>BOND
     1    35    36    1
     2    35    30    1
     3    35    33    1
     4    34    33    1
     5    30    29    1
     6    33    31    1
     7    29    31    1
     8    29    28    1
     9     3     1    2
    10    25    24    2
    11    31    32    1
    12    27    28    1
    13    27    24    1
    14     9     8    1
    15    24    23    1
    16    24    26    1
    17     1    23    1
    18     1     2    1
    19     1     4    1
    20     8     6    1
    21     8    10    1
    22     6     5    1
    23     6     7    1
    24     5     4    1
    25     7    12    1
    26    39    37    2
    27    10    11    1
    28    10    12    1
    29    38    37    1
    30    11    37    1
    31    12    13    1
    32    37    40    1
    33    21    22    2
    34    21    20    1
    35    13    22    1
    36    13    14    1
    37    22    16    1
    38    20    19    1
    39    14    15    1
    40    16    15    2
    41    16    17    1
    42    19    17    2
    43    17    18    1
