@<TRIPOS>MOLECULE
3rsv_3RS_A_1.pdb
 32 35 0 0 0
SMALL
GASTEIGER

@<TRIPOS>ATOM
      1  C26       13.3440  -40.0090   11.6280 C.3   400  3RS400      0.0489
      2  C27       13.3210  -39.0620   12.8280 C.3   400  3RS400      0.0946
      3  C31       12.7680  -39.7660   14.0870 C.3   400  3RS400      0.0297
      4  C32       14.7450  -38.5810   13.0740 C.3   400  3RS400      0.0297
      5  O28       12.5320  -37.8720   12.5010 O.3   400  3RS400     -0.3584
      6  C29       11.1650  -38.1240   12.0340 C.3   400  3RS400      0.1437
      7  C30       11.1870  -39.0210   10.7910 C.3   400  3RS400      0.0538
      8  C25       11.9500  -40.3160   11.0670 C.3   400  3RS400      0.1001
      9  N15       12.1620  -41.0320    9.8010 N.am  400  3RS400     -0.2070
     10  C14       12.4110  -42.3390    9.7410 C.2   400  3RS400      0.2409
     11  O16       12.4580  -43.0730   10.7230 O.2   400  3RS400     -0.2734
     12  C13       12.6630  -42.9000    8.3350 C.3   400  3RS400      0.0790
     13  C17       11.7340  -44.0980    8.1050 C.3   400  3RS400      0.0096
     14  C12       14.1780  -43.2350    8.1380 C.3   400  3RS400      0.0220
     15  C9        15.0050  -41.9540    8.4020 C.3   400  3RS400      0.0925
     16  C8        14.9760  -40.8110    7.5820 C.2   400  3RS400      0.2001
     17  N7        15.6950  -39.7150    7.8810 N.2   400  3RS400     -0.3881
     18  N11       14.2470  -40.7750    6.4780 N.pl3 400  3RS400     -0.0977
     19  C10       15.8160  -41.9030    9.5450 C.2   400  3RS400     -0.0154
     20  C5        16.5660  -40.7510    9.8340 C.ar  400  3RS400      0.0258
     21  C6        17.3910  -40.6690   10.9700 C.ar  400  3RS400      0.0022
     22  C4        16.4760  -39.6540    8.9680 C.ar  400  3RS400      0.1324
     23  C3        17.2000  -38.4880    9.2190 C.ar  400  3RS400      0.0321
     24  C2        18.0200  -38.4130   10.3420 C.ar  400  3RS400      0.0026
     25  C1        18.1270  -39.5000   11.2190 C.ar  400  3RS400     -0.0001
     26  C18       18.9710  -39.3650   12.3280 C.ar  400  3RS400     -0.0040
     27  C19       18.6330  -38.4410   13.3210 C.ar  400  3RS400     -0.0003
     28  C20       19.4540  -38.2690   14.4290 C.ar  400  3RS400     -0.0000
     29  C21       20.6250  -39.0170   14.5500 C.ar  400  3RS400     -0.0003
     30  C22       20.9830  -39.9380   13.5700 C.ar  400  3RS400     -0.0043
     31  C23       20.1630  -40.1090   12.4540 C.ar  400  3RS400     -0.0218
     32  C24       20.6200  -41.1470   11.4130 C.3   400  3RS400      0.0310
@<TRIPOS>BOND
     1    18    16    1
     2    16    17    2
     3    16    15    1
     4    17    22    2
     5    13    12    1
     6    14    12    1
     7    14    15    1
     8    12    10    1
     9    15    19    1
    10    22    23   ar
    11    22    20   ar
    12    23    24   ar
    13    19    20    2
    14    10     9   am
    15    10    11    2
    16     9     8    1
    17    20    21   ar
    18    24    25   ar
    19     7     8    1
    20     7     6    1
    21    21    25   ar
    22     8     1    1
    23    25    26    1
    24    32    31    1
    25     1     2    1
    26     6     5    1
    27    26    31   ar
    28    26    27   ar
    29    31    30   ar
    30     5     2    1
    31     2     4    1
    32     2     3    1
    33    27    28   ar
    34    30    29   ar
    35    28    29   ar
