@<TRIPOS>MOLECULE
3rsx_RSV_A_1.pdb
 16 18 0 0 0
SMALL
GASTEIGER

@<TRIPOS>ATOM
      1  C4        68.7880   50.1600    8.6480 C.2   397  RSV397      0.1325
      2  C5        69.2030   49.0520    9.3910 C.2   397  RSV397      0.0261
      3  C6        69.9150   49.2400   10.5760 C.2   397  RSV397     -0.0151
      4  C7        70.9380   50.7340   12.2170 C.ar  397  RSV397     -0.0074
      5  C8        70.5800   51.7230   13.0850 C.ar  397  RSV397      0.0039
      6  C10       71.9660   49.9850   12.6560 C.ar  397  RSV397      0.0318
      7  N12       68.0850   50.0010    7.5150 N.2   397  RSV397     -0.3839
      8  C13       67.7600   48.7740    7.0550 C.2   397  RSV397      0.2192
      9  C15       68.8890   47.7690    8.9420 C.2   397  RSV397      0.0063
     10  C14       68.1580   47.6280    7.7560 C.2   397  RSV397      0.0509
     11  N16       67.0760   48.6570    5.9170 N.pl3 397  RSV397     -0.0932
     12  C3        69.0880   51.4450    9.0980 C.2   397  RSV397      0.0282
     13  C2        69.8070   51.6330   10.2810 C.2   397  RSV397     -0.0150
     14  C1        70.2390   50.5320   11.0220 C.3   397  RSV397      0.0668
     15  C11       71.2760   51.8560   14.2250 C.ar  397  RSV397      0.0351
     16  S9        72.4190   50.6350   14.1680 S.2   397  RSV397     -0.0862
@<TRIPOS>BOND
     1    11     8    1
     2     8     7    2
     3     8    10    1
     4     7     1    2
     5    10     9    2
     6     1    12    1
     7     1     2    1
     8     9     2    1
     9    12    13    2
    10     2     3    2
    11    13    14    1
    12     3    14    1
    13    14     4    1
    14     4     6   ar
    15     4     5   ar
    16     6    16   ar
    17     5    15   ar
    18    16    15   ar
