@<TRIPOS>MOLECULE
3rsy_GOL_A_1.pdb
 14 13 0 0 0
SMALL
GASTEIGER

@<TRIPOS>ATOM
      1  C1       -22.9200  -15.6540  -31.5590 C.3   825  GOL825      0.0723
      2  O1       -22.7580  -14.4210  -30.8940 O.3   825  GOL825     -0.3924
      3  C2       -22.2670  -16.7270  -30.6830 C.3   825  GOL825      0.1012
      4  O2       -21.3100  -16.1250  -29.8070 O.3   825  GOL825     -0.3873
      5  C3       -23.3320  -17.4500  -29.8790 C.3   825  GOL825      0.0723
      6  O3       -22.7480  -18.5550  -29.2080 O.3   825  GOL825     -0.3924
      7  H11      -22.4400  -15.6220  -32.5370 H     825  GOL825      0.0583
      8  H12      -23.9790  -15.8730  -31.6970 H     825  GOL825      0.0583
      9  HO1      -23.1060  -13.6980  -31.4570 H     825  GOL825      0.2095
     10  H2       -21.7700  -17.4490  -31.3300 H     825  GOL825      0.0639
     11  HO2      -21.7630  -15.4910  -29.2140 H     825  GOL825      0.2100
     12  H31      -24.1230  -17.7970  -30.5440 H     825  GOL825      0.0583
     13  H32      -23.7730  -16.7670  -29.1520 H     825  GOL825      0.0583
     14  HO3      -22.1370  -19.0210  -29.8170 H     825  GOL825      0.2095
@<TRIPOS>BOND
     1     7     1    1
     2     8     1    1
     3     1     2    1
     4     1     3    1
     5     9     2    1
     6    10     3    1
     7     3     5    1
     8     3     4    1
     9    12     5    1
    10     5     6    1
    11     5    13    1
    12    14     6    1
    13     4    11    1
