@<TRIPOS>MOLECULE
3rsz_GLC_A_1.pdb
 11 11 0 0 0
SMALL
GASTEIGER

@<TRIPOS>ATOM
      1  C1        65.4530  -53.8580    4.3710 C.3   901  GLC901      0.1777
      2  C2        66.0790  -54.4760    3.1040 C.3   901  GLC901      0.2141
      3  C3        66.2690  -55.9730    3.2730 C.3   901  GLC901      0.2173
      4  C4        67.2610  -56.1180    4.4000 C.3   901  GLC901      0.2142
      5  C5        66.6860  -55.4960    5.6330 C.3   901  GLC901      0.1810
      6  C6        67.8760  -55.5150    6.5860 C.3   901  GLC901      0.2141
      7  O2        65.1470  -54.1250    2.0760 O.3   901  GLC901     -0.2176
      8  O3        66.7090  -56.5920    2.0740 O.3   901  GLC901     -0.2175
      9  O4        67.5510  -57.5220    4.6940 O.3   901  GLC901     -0.2176
     10  O5        66.4090  -54.0920    5.4790 O.3   901  GLC901     -0.3481
     11  O6        67.6400  -54.9790    7.8860 O.3   901  GLC901     -0.2176
@<TRIPOS>BOND
     1     8     3    1
     2     7     2    1
     3     2     3    1
     4     2     1    1
     5     3     4    1
     6     1    10    1
     7     4     9    1
     8     4     5    1
     9    10     5    1
    10     5     6    1
    11     6    11    1
