@<TRIPOS>MOLECULE
3rsz_III_E_1.pdb
 10 9 0 0 0
SMALL
GASTEIGER

@<TRIPOS>ATOM
      1  N         20.4460   17.1880    0.6260 N.3     3  UNK3       -0.1231
      2  CA        19.3860   17.5050   -0.3350 C.3     3  UNK3        0.1694
      3  C         18.5170   18.6940    0.1070 C.2     3  UNK3        0.2591
      4  O         17.4820   18.9850   -0.5040 O.2     3  UNK3       -0.2718
      5  CB        18.5120   16.2710   -0.6000 C.3     3  UNK3        0.0304
      6  N         18.9400   19.3730    1.1700 N.am    4  UNK4       -0.1980
      7  CA        18.1990   20.5210    1.6970 C.3     4  UNK4        0.1597
      8  C         18.9490   21.8290    1.4530 C.2     4  UNK4        0.2287
      9  O         18.8800   22.3860    0.3600 O.2     4  UNK4       -0.2864
     10  CB        17.8840   20.3350    3.2050 C.3     4  UNK4        0.0319
@<TRIPOS>BOND
     1     5     2    1
     2     4     3    2
     3     2     3    1
     4     2     1    1
     5     3     6   am
     6     9     8    2
     7     6     7    1
     8     8     7    1
     9     7    10    1
