@<TRIPOS>MOLECULE
3rt1_GLC_A_1.pdb
 11 11 0 0 0
SMALL
GASTEIGER

@<TRIPOS>ATOM
      1  C1         5.7980   70.4940   69.4890 C.3   801  GLC801      0.1777
      2  C2         5.3130   71.6160   70.4180 C.3   801  GLC801      0.2141
      3  C3         5.1480   72.9460   69.6620 C.3   801  GLC801      0.2173
      4  C4         6.3510   73.3240   68.7800 C.3   801  GLC801      0.2142
      5  C5         7.0190   72.0930   68.1230 C.3   801  GLC801      0.1810
      6  C6         8.4670   72.4520   67.7810 C.3   801  GLC801      0.2141
      7  O2         4.0640   71.2600   71.0450 O.3   801  GLC801     -0.2176
      8  O3         4.8970   74.0070   70.6010 O.3   801  GLC801     -0.2175
      9  O4         5.9760   74.2980   67.7620 O.3   801  GLC801     -0.2176
     10  O5         7.0560   70.8960   68.9340 O.3   801  GLC801     -0.3481
     11  O6         8.6920   72.3800   66.3700 O.3   801  GLC801     -0.2176
@<TRIPOS>BOND
     1    11     6    1
     2     9     4    1
     3     6     5    1
     4     5     4    1
     5     5    10    1
     6     4     3    1
     7    10     1    1
     8     1     2    1
     9     3     2    1
    10     3     8    1
    11     2     7    1
