@<TRIPOS>MOLECULE
3rt1_G6P_A_1.pdb
 16 16 0 0 0
SMALL
GASTEIGER

@<TRIPOS>ATOM
      1  C1        38.4470   60.8180   77.9440 C.3   901  G6P901      0.3024
      2  C2        39.3770   59.9770   78.7880 C.3   901  G6P901      0.2434
      3  C3        39.5730   58.6730   78.0610 C.3   901  G6P901      0.2199
      4  C4        38.2430   57.9590   77.9570 C.3   901  G6P901      0.2143
      5  C5        37.2560   58.8360   77.1990 C.3   901  G6P901      0.1808
      6  C6        35.8420   58.2770   77.2180 C.3   901  G6P901      0.1859
      7  O1        39.0880   61.0250   76.6960 O.3   901  G6P901     -0.1869
      8  O2        40.6440   60.6230   78.9250 O.3   901  G6P901     -0.2148
      9  O3        40.5180   57.8800   78.7820 O.3   901  G6P901     -0.2174
     10  O4        38.4810   56.7530   77.2410 O.3   901  G6P901     -0.2176
     11  O5        37.1910   60.1480   77.7640 O.3   901  G6P901     -0.3237
     12  O6        35.0210   59.1340   76.4200 O.3   901  G6P901     -0.2675
     13  P         33.4180   58.9980   76.3570 P.3   901  G6P901      0.5327
     14  O1P       33.1000   57.5560   76.0670 O.3   901  G6P901     -0.1145
     15  O2P       33.0330   59.9400   75.2580 O.2   901  G6P901     -0.2224
     16  O3P       32.9520   59.4660   77.7060 O.3   901  G6P901     -0.1145
@<TRIPOS>BOND
     1    15    13    2
     2    14    13    1
     3    13    12    1
     4    13    16    1
     5    12     6    1
     6     7     1    1
     7     5     6    1
     8     5    11    1
     9     5     4    1
    10    10     4    1
    11    11     1    1
    12     1     2    1
    13     4     3    1
    14     3     9    1
    15     3     2    1
    16     2     8    1
