@<TRIPOS>MOLECULE
3rt4_LP5_C_1.pdb
 48 48 0 0 0
SMALL
GASTEIGER

@<TRIPOS>ATOM
      1  O48      -21.2460  -30.9190  -21.3980 O.3   501  LP5501     -0.1145
      2  P45      -21.1710  -29.5890  -20.6730 P.3   501  LP5501      0.5345
      3  O46      -20.1310  -29.5760  -19.5710 O.3   501  LP5501     -0.1145
      4  O47      -21.0640  -28.4150  -21.6270 O.2   501  LP5501     -0.2223
      5  O1       -22.6030  -29.3730  -19.9240 O.3   501  LP5501     -0.2424
      6  C1       -23.7940  -29.5520  -20.7050 C.3   501  LP5501      0.2686
      7  C2       -25.0840  -28.7210  -20.4300 C.3   501  LP5501      0.1942
      8  N2       -25.4340  -28.3150  -19.0500 N.am  501  LP5501     -0.1981
      9  C7       -25.8130  -29.0430  -17.9940 C.2   501  LP5501      0.2442
     10  C8       -26.1580  -28.2730  -16.7320 C.3   501  LP5501      0.1196
     11  C16      -27.4880  -28.7010  -16.1020 C.3   501  LP5501      0.1611
     12  O44      -28.4330  -29.0520  -17.1210 O.3   501  LP5501     -0.2226
     13  C17      -28.0360  -27.5330  -15.2830 C.3   501  LP5501      0.0334
     14  C18      -29.3230  -27.8630  -14.5290 C.3   501  LP5501      0.0026
     15  C19      -30.3760  -26.7880  -14.7900 C.3   501  LP5501      0.0001
     16  C20      -30.7290  -25.9660  -13.5440 C.3   501  LP5501      0.0000
     17  C21      -29.5320  -25.1910  -12.9780 C.3   501  LP5501      0.0000
     18  C22      -29.4610  -23.7610  -13.5200 C.3   501  LP5501      0.0000
     19  C23      -28.5110  -23.6910  -14.7220 C.3   501  LP5501      0.0000
     20  C24      -28.2680  -22.2510  -15.1650 C.3   501  LP5501      0.0000
     21  C25      -27.7480  -22.1880  -16.5980 C.3   501  LP5501      0.0000
     22  C26      -26.3280  -21.6370  -16.6490 C.3   501  LP5501      0.0000
     23  C27      -25.7890  -21.6250  -18.0620 C.3   501  LP5501      0.0000
     24  O7       -25.8620  -30.2560  -17.9970 O.2   501  LP5501     -0.2733
     25  C3       -26.3610  -29.4490  -20.9160 C.3   501  LP5501      0.2262
     26  C4       -26.1840  -30.5570  -21.9770 C.3   501  LP5501      0.2231
     27  C5       -24.8250  -31.2530  -22.0110 C.3   501  LP5501      0.1845
     28  O5       -24.0960  -30.9400  -20.8160 O.3   501  LP5501     -0.3258
     29  C6       -24.0470  -30.9550  -23.3050 C.3   501  LP5501      0.2142
     30  O6       -23.8770  -29.7380  -24.0530 O.3   501  LP5501     -0.2176
     31  O4       -27.1900  -31.5550  -21.7760 O.3   501  LP5501     -0.2165
     32  O3       -27.3270  -28.4630  -21.3290 O.3   501  LP5501     -0.4475
     33  C28      -27.6640  -28.4250  -22.7530 C.2   501  LP5501      0.3196
     34  O42      -26.9120  -27.8430  -23.5240 O.2   501  LP5501     -0.2500
     35  C29      -28.9240  -29.0960  -23.2660 C.3   501  LP5501      0.1423
     36  C30      -30.1060  -28.1340  -23.3110 C.3   501  LP5501      0.1631
     37  O43      -30.2960  -27.5240  -22.0310 O.3   501  LP5501     -0.2225
     38  C31      -31.3600  -28.9070  -23.7020 C.3   501  LP5501      0.0335
     39  C32      -31.5070  -28.9750  -25.2220 C.3   501  LP5501      0.0026
     40  C33      -32.9050  -29.3730  -25.6900 C.3   501  LP5501      0.0001
     41  C34      -34.0250  -28.7940  -24.8310 C.3   501  LP5501      0.0000
     42  C35      -35.3680  -29.4020  -25.2070 C.3   501  LP5501      0.0000
     43  C36      -36.3320  -28.3090  -25.6430 C.3   501  LP5501      0.0000
     44  C37      -37.2790  -28.8230  -26.7160 C.3   501  LP5501      0.0000
     45  C38      -37.7680  -27.6680  -27.5770 C.3   501  LP5501      0.0000
     46  C39      -37.4750  -27.9160  -29.0500 C.3   501  LP5501      0.0000
     47  C40      -36.5290  -26.8550  -29.5950 C.3   501  LP5501      0.0000
     48  C41      -36.5080  -26.8710  -31.1070 C.3   501  LP5501      0.0000
@<TRIPOS>BOND
     1    48    47    1
     2    47    46    1
     3    46    45    1
     4    45    44    1
     5    44    43    1
     6    40    39    1
     7    40    41    1
     8    43    42    1
     9    39    38    1
    10    42    41    1
    11    30    29    1
    12    38    36    1
    13    34    33    2
    14    36    35    1
    15    36    37    1
    16    29    27    1
    17    35    33    1
    18    33    32    1
    19    27    26    1
    20    27    28    1
    21    26    31    1
    22    26    25    1
    23     4     2    2
    24     1     2    1
    25    32    25    1
    26    25     7    1
    27    28     6    1
    28     6     7    1
    29     6     5    1
    30     2     5    1
    31     2     3    1
    32     7     8    1
    33     8     9   am
    34    23    22    1
    35    24     9    2
    36     9    10    1
    37    12    11    1
    38    10    11    1
    39    22    21    1
    40    21    20    1
    41    11    13    1
    42    13    14    1
    43    20    19    1
    44    15    14    1
    45    15    16    1
    46    19    18    1
    47    16    17    1
    48    18    17    1
