@<TRIPOS>MOLECULE
3rt6_FWD_B_1.pdb
 15 15 0 0 0
SMALL
GASTEIGER

@<TRIPOS>ATOM
      1  N1        22.6250   19.2340   15.7320 N.am  401  FWD401     -0.1993
      2  C2        23.1020   17.9990   15.5230 C.1   401  FWD401      0.2828
      3  O2        22.3680   17.0880   15.3680 O.2   401  FWD401     -0.1919
      4  N3        24.4570   17.7820   15.5140 N.2   401  FWD401     -0.2430
      5  C4        25.3100   18.8350   15.7220 C.1   401  FWD401      0.2454
      6  O4        26.6910   18.6030   15.6860 O.2   401  FWD401     -0.2062
      7  C5        24.8240   20.1140   15.9410 C.2   401  FWD401      0.2498
      8  F5        25.6960   21.1420   16.1530 F     401  FWD401     -0.1891
      9  C6        23.5000   20.3270   15.9390 C.2   401  FWD401      0.1197
     10  C7        21.2000   19.4480   15.6730 C.3   401  FWD401      0.1362
     11  C8        20.7400   19.5900   14.2370 C.3   401  FWD401      0.2043
     12  N8        20.8810   20.9230   13.7090 N.3   401  FWD401     -0.1227
     13  C9        19.4460   18.8860   13.8760 C.3   401  FWD401      0.4447
     14  O91       18.4330   19.7760   13.5170 O.2   401  FWD401     -0.2653
     15  O92       19.0340   17.9860   14.8550 O.2   401  FWD401     -0.2653
@<TRIPOS>BOND
     1    14    13    1
     2    12    11    1
     3    13    11    1
     4    13    15    1
     5    11    10    1
     6     3     2    2
     7     4     2    2
     8     4     5    2
     9     2     1   am
    10    10     1    1
    11     6     5    2
    12     5     7    1
    13     1     9    1
    14     9     7    2
    15     7     8    1
