@<TRIPOS>MOLECULE
3rt7_ADQ_A_1.pdb
 27 29 0 0 0
SMALL
GASTEIGER

@<TRIPOS>ATOM
      1  PB       -53.2510   -9.3240  -62.4690 P.3   493  ADQ493      0.5373
      2  O1B      -52.0120   -8.6140  -63.0100 O.3   493  ADQ493     -0.1143
      3  O2B      -54.2320   -9.9090  -63.4840 O.2   493  ADQ493     -0.2221
      4  O3B      -53.7520   -8.3480  -61.2860 O.3   493  ADQ493     -0.1143
      5  PA       -51.6260  -11.5850  -62.1300 P.3   493  ADQ493      0.2231
      6  O1A      -51.4230  -11.7240  -63.6390 O.2   493  ADQ493     -0.5169
      7  O2A      -50.4750  -11.5470  -61.1430 O.3   493  ADQ493     -0.4370
      8  O3A      -52.7970  -10.6160  -61.6530 O.3   493  ADQ493     -0.2261
      9  O5D      -52.3140  -13.0120  -61.8770 O.3   493  ADQ493     -0.3111
     10  C5D      -53.5010  -13.1910  -61.0990 C.3   493  ADQ493      0.1813
     11  C4D      -54.0770  -14.5200  -61.5640 C.3   493  ADQ493      0.1821
     12  O4D      -53.4100  -15.6750  -61.0300 O.3   493  ADQ493     -0.3135
     13  C3D      -55.5180  -14.6850  -61.1660 C.3   493  ADQ493      0.2184
     14  O3D      -56.1350  -15.4430  -62.2330 O.3   493  ADQ493     -0.2174
     15  C2D      -55.4900  -15.5630  -59.9460 C.3   493  ADQ493      0.2570
     16  O2D      -56.6970  -16.2940  -59.9440 O.3   493  ADQ493     -0.2130
     17  C1D      -54.2720  -16.4650  -60.1950 C.3   493  ADQ493      0.3186
     18  N9       -53.5550  -16.8640  -58.9380 N.pl3 493  ADQ493     -0.1439
     19  C8       -53.1050  -15.9430  -58.0380 C.3   493  ADQ493      0.3377
     20  N7       -52.4760  -16.5560  -57.0100 N.2   493  ADQ493     -0.2095
     21  C5       -52.5170  -17.8810  -57.2440 C.2   493  ADQ493      0.2526
     22  C6       -52.0330  -19.0670  -56.5260 C.2   493  ADQ493      0.4393
     23  N6       -51.3810  -18.8580  -55.3470 N.pl3 493  ADQ493      0.2180
     24  N1       -52.2500  -20.2960  -57.0700 N.2   493  ADQ493      0.0021
     25  C2       -52.8900  -20.4440  -58.2500 C.3   493  ADQ493      0.5254
     26  N3       -53.3680  -19.3910  -58.9430 N.2   493  ADQ493     -0.0055
     27  C4       -53.2320  -18.1040  -58.5110 C.2   493  ADQ493      0.3518
@<TRIPOS>BOND
     1     6     5    2
     2     3     1    2
     3     2     1    1
     4     1     8    1
     5     1     4    1
     6    14    13    1
     7     5     9    1
     8     5     8    1
     9     5     7    1
    10     9    10    1
    11    11    13    1
    12    11    10    1
    13    11    12    1
    14    13    15    1
    15    12    17    1
    16    17    15    1
    17    17    18    1
    18    15    16    1
    19    26    27    2
    20    26    25    1
    21    18    27    1
    22    18    19    1
    23    27    21    1
    24    25    24    1
    25    19    20    1
    26    21    20    2
    27    21    22    1
    28    24    22    2
    29    22    23    1
