@<TRIPOS>MOLECULE
3rt8_CWD_A_1.pdb
 15 15 0 0 0
SMALL
GASTEIGER

@<TRIPOS>ATOM
      1  N1       -19.9490   -1.1050  -19.3070 N.am  401  CWD401     -0.2005
      2  C2       -18.7100   -0.6520  -19.5120 C.1   401  CWD401      0.2827
      3  O2       -17.8150   -1.4220  -19.6540 O.2   401  CWD401     -0.1919
      4  N3       -18.4560    0.7020  -19.5210 N.2   401  CWD401     -0.2444
      5  C4       -19.4780    1.5920  -19.3260 C.1   401  CWD401      0.2282
      6  O4       -19.2000    2.9510  -19.3700 O.2   401  CWD401     -0.2076
      7  C5       -20.7740    1.1330  -19.1140 C.2   401  CWD401      0.1680
      8 CL5       -22.1790    2.2360  -18.8900 Cl    401  CWD401     -0.0672
      9  C6       -21.0010   -0.1940  -19.1070 C.2   401  CWD401      0.1013
     10  C7       -20.1870   -2.5310  -19.3610 C.3   401  CWD401      0.1396
     11  C8       -20.1940   -3.1210  -20.7740 C.3   401  CWD401      0.2151
     12  N8       -21.3320   -2.7120  -21.5770 N.3   401  CWD401     -0.1189
     13  C9       -19.7830   -4.5920  -20.8810 C.2   401  CWD401      0.3836
     14  O91      -20.5380   -5.3750  -21.3560 O.co2 401  CWD401     -0.2440
     15  O92      -18.6850   -5.0160  -20.1220 O.co2 401  CWD401     -0.2440
@<TRIPOS>BOND
     1    12    11    1
     2    14    13   ar
     3    13    11    1
     4    13    15   ar
     5    11    10    1
     6     3     2    2
     7     4     2    2
     8     4     5    2
     9     2     1   am
    10     6     5    2
    11    10     1    1
    12     5     7    1
    13     1     9    1
    14     7     9    2
    15     7     8    1
