@<TRIPOS>MOLECULE
3rt9_COA_A_1.pdb
 48 50 0 0 0
SMALL
GASTEIGER

@<TRIPOS>ATOM
      1  N1A       20.6720   52.5790   56.7840 N.2   492  COA492      0.0021
      2  C2A       20.8040   52.9420   58.1170 C.3   492  COA492      0.5254
      3  N3A       19.6870   53.2300   58.8850 N.2   492  COA492     -0.0055
      4  C4A       18.4510   53.1520   58.3260 C.2   492  COA492      0.3518
      5  C5A       18.2950   52.7830   56.9850 C.2   492  COA492      0.2526
      6  C6A       19.4160   52.4920   56.2010 C.2   492  COA492      0.4393
      7  N6A       19.2420   51.7110   55.1340 N.pl3 492  COA492      0.2180
      8  N7A       16.9570   52.7930   56.7090 N.2   492  COA492     -0.2095
      9  C8A       16.2720   53.1390   57.8320 C.3   492  COA492      0.3377
     10  N9A       17.1860   53.3440   58.8440 N.pl3 492  COA492     -0.1439
     11  C1B       16.9350   53.2020   60.2930 C.3   492  COA492      0.3185
     12  C2B       17.1060   54.5860   60.8020 C.3   492  COA492      0.2543
     13  O2B       17.7530   54.5250   62.0690 O.3   492  COA492     -0.2131
     14  C3B       15.6310   54.9960   60.7710 C.3   492  COA492      0.1928
     15  O3B       15.4850   56.2720   61.3160 O.3   492  COA492     -0.2673
     16  P3B       16.4230   57.3880   60.6080 P.3   492  COA492      0.5327
     17  O7A       16.4370   57.1110   59.1200 O.2   492  COA492     -0.2224
     18  O8A       15.8690   58.7810   60.8860 O.3   492  COA492     -0.1145
     19  O9A       17.8310   57.2790   61.1840 O.3   492  COA492     -0.1145
     20  C4B       15.0110   53.8020   61.4720 C.3   492  COA492      0.1795
     21  O4B       15.6410   52.7770   60.7230 O.3   492  COA492     -0.3136
     22  C5B       13.4950   53.6180   61.4380 C.3   492  COA492      0.1812
     23  O5B       13.3410   52.2140   61.5910 O.3   492  COA492     -0.3112
     24  P1A       12.0130   51.5310   62.1220 P.3   492  COA492      0.2189
     25  O1A       12.1000   51.4350   63.6320 O.3   492  COA492     -0.4371
     26  O2A       11.8900   50.2640   61.3560 O.2   492  COA492     -0.5170
     27  O3A       10.8600   52.5460   61.6570 O.3   492  COA492     -0.2703
     28  P2A        9.5970   53.2040   62.4360 P.3   492  COA492      0.2188
     29  O4A       10.1860   54.1830   63.4400 O.3   492  COA492     -0.4371
     30  O5A        8.8200   52.1190   63.1360 O.2   492  COA492     -0.5170
     31  O6A        8.6970   53.8530   61.2450 O.3   492  COA492     -0.3138
     32  CBP        6.2970   53.1650   61.6390 C.3   492  COA492      0.0645
     33  CCP        7.5530   53.2050   60.7020 C.3   492  COA492      0.1519
     34  CDP        5.1830   53.9810   60.9910 C.3   492  COA492      0.0056
     35  CEP        6.4570   53.8040   63.0180 C.3   492  COA492      0.0056
     36  CAP        5.7810   51.7200   61.8520 C.3   492  COA492      0.2312
     37  OAP        5.5460   51.1070   60.5850 O.3   492  COA492     -0.2131
     38  C9P        6.6360   50.7780   62.6940 C.2   492  COA492      0.2719
     39  O9P        7.9000   50.2650   62.2710 O.2   492  COA492     -0.2706
     40  N8P        6.0950   50.3610   63.8400 N.am  492  COA492     -0.2028
     41  C7P        5.4660   49.0460   63.8050 C.3   492  COA492      0.1248
     42  C6P        4.3550   48.9030   64.8340 C.3   492  COA492      0.1102
     43  C5P        4.9210   48.7770   66.2090 C.2   492  COA492      0.2432
     44  O5P        6.1520   48.6670   66.3130 O.2   492  COA492     -0.2733
     45  N4P        4.0300   48.7450   67.2070 N.am  492  COA492     -0.2044
     46  C3P        3.7160   49.8750   68.0680 C.3   492  COA492      0.1276
     47  C2P        4.8000   50.9220   68.2240 C.3   492  COA492      0.0920
     48  S1P        4.4590   52.4460   67.2780 S.3   492  COA492     -0.0802
@<TRIPOS>BOND
     1     7     6    1
     2     6     1    2
     3     6     5    1
     4     8     5    2
     5     8     9    1
     6     1     2    1
     7     5     4    1
     8     9    10    1
     9     2     3    1
    10     4    10    1
    11     4     3    2
    12    10    11    1
    13    17    16    2
    14    11    21    1
    15    11    12    1
    16    37    36    1
    17    16    18    1
    18    16    19    1
    19    16    15    1
    20    33    31    1
    21    33    32    1
    22    21    20    1
    23    14    12    1
    24    14    15    1
    25    14    20    1
    26    12    13    1
    27    34    32    1
    28    31    28    1
    29    26    24    2
    30    22    20    1
    31    22    23    1
    32    23    24    1
    33    32    36    1
    34    32    35    1
    35    27    24    1
    36    27    28    1
    37    36    38    1
    38    24    25    1
    39    39    38    2
    40    28    30    2
    41    28    29    1
    42    38    40   am
    43    41    40    1
    44    41    42    1
    45    42    43    1
    46    43    44    2
    47    43    45   am
    48    45    46    1
    49    48    47    1
    50    46    47    1
