@<TRIPOS>MOLECULE
3rta_ACO_A_2.pdb
 31 33 0 0 0
SMALL
GASTEIGER

@<TRIPOS>ATOM
      1  N1A      -11.4730  -30.7170  -37.2010 N.2   493  ACO493      0.0021
      2  C2A      -12.3190  -31.2370  -38.1460 C.3   493  ACO493      0.5254
      3  N3A      -12.2840  -30.8230  -39.4320 N.2   493  ACO493     -0.0055
      4  C4A      -11.4140  -29.8650  -39.8290 C.2   493  ACO493      0.3518
      5  C5A      -10.5000  -29.2610  -38.8630 C.2   493  ACO493      0.2526
      6  C6A      -10.5730  -29.7540  -37.4840 C.2   493  ACO493      0.4393
      7  N6A       -9.7690  -29.2470  -36.5230 N.pl3 493  ACO493      0.2180
      8  N7A       -9.7740  -28.3290  -39.5430 N.2   493  ACO493     -0.2095
      9  C8A      -10.1950  -28.3600  -40.8360 C.3   493  ACO493      0.3377
     10  N9A      -11.1820  -29.2630  -40.9980 N.pl3 493  ACO493     -0.1439
     11  C1B      -11.8470  -29.6980  -42.2520 C.3   493  ACO493      0.3185
     12  C2B      -13.2720  -29.4750  -42.5740 C.3   493  ACO493      0.2543
     13  O2B      -14.1850  -30.4830  -42.8250 O.3   493  ACO493     -0.2131
     14  C3B      -13.4370  -28.2050  -43.2390 C.3   493  ACO493      0.1928
     15  O3B      -14.6520  -27.7490  -43.6860 O.3   493  ACO493     -0.2673
     16  P3B      -15.5570  -26.5800  -43.0670 P.3   493  ACO493      0.5327
     17  O7A      -16.6650  -26.5830  -44.0600 O.2   493  ACO493     -0.2224
     18  O8A      -15.9400  -27.0990  -41.6920 O.3   493  ACO493     -0.1145
     19  O9A      -14.6390  -25.3630  -43.1610 O.3   493  ACO493     -0.1145
     20  C4B      -12.0580  -27.9990  -43.7110 C.3   493  ACO493      0.1795
     21  O4B      -11.2060  -29.0860  -43.3740 O.3   493  ACO493     -0.3136
     22  C5B      -11.6590  -26.7620  -44.5050 C.3   493  ACO493      0.1812
     23  O5B      -10.6220  -27.1610  -45.4100 O.3   493  ACO493     -0.3111
     24  P1A       -9.9400  -26.0800  -46.3560 P.3   493  ACO493      0.2231
     25  O1A       -9.0440  -26.8110  -47.3100 O.2   493  ACO493     -0.5169
     26  O2A       -9.3390  -24.9140  -45.6090 O.3   493  ACO493     -0.4370
     27  O3A      -11.2630  -25.4960  -47.0190 O.3   493  ACO493     -0.2261
     28  P2A      -11.8850  -26.1690  -48.3570 P.3   493  ACO493      0.5373
     29  O4A      -10.9000  -25.5740  -49.5070 O.2   493  ACO493     -0.2221
     30  O5A      -13.2750  -25.5790  -48.5210 O.3   493  ACO493     -0.1143
     31  O6A      -11.7220  -27.6730  -48.2570 O.3   493  ACO493     -0.1143
@<TRIPOS>BOND
     1    29    28    2
     2    30    28    1
     3    28    31    1
     4    28    27    1
     5    25    24    2
     6    27    24    1
     7    24    26    1
     8    24    23    1
     9    23    22    1
    10    22    20    1
    11    17    16    2
    12    20    21    1
    13    20    14    1
    14    15    14    1
    15    15    16    1
    16    21    11    1
    17    14    12    1
    18    19    16    1
    19    16    18    1
    20    13    12    1
    21    12    11    1
    22    11    10    1
    23    10     9    1
    24    10     4    1
    25     9     8    1
    26     4     3    2
    27     4     5    1
    28     8     5    2
    29     3     2    1
    30     5     6    1
    31     2     1    1
    32     6     1    2
    33     6     7    1
