@<TRIPOS>MOLECULE
3rtb_A3P_A_1.pdb
 27 29 0 0 0
SMALL
GASTEIGER

@<TRIPOS>ATOM
      1  P1       -30.2020   15.1760  -45.8760 P.3   492  A3P492      0.5327
      2  O1P      -29.8240   14.5620  -47.1830 O.2   492  A3P492     -0.2224
      3  O2P      -29.3680   16.3920  -45.5580 O.3   492  A3P492     -0.1145
      4  O3P      -31.6760   15.3780  -45.7340 O.3   492  A3P492     -0.1145
      5  P2       -25.1190   12.3630  -42.4040 P.3   492  A3P492      0.5327
      6  O4P      -25.0470   13.7890  -42.8940 O.3   492  A3P492     -0.1145
      7  O5P      -25.2030   12.1620  -40.9540 O.3   492  A3P492     -0.1145
      8  O6P      -24.2250   11.4120  -43.0800 O.2   492  A3P492     -0.2224
      9  O5'      -26.5360   11.8150  -42.9440 O.3   492  A3P492     -0.2675
     10  C5'      -26.9760   11.9110  -44.2880 C.3   492  A3P492      0.1859
     11  C4'      -28.4430   12.2750  -44.3280 C.3   492  A3P492      0.1796
     12  O4'      -29.1290   11.4370  -43.4420 O.3   492  A3P492     -0.3136
     13  C3'      -28.7820   13.7110  -43.9490 C.3   492  A3P492      0.1928
     14  O3'      -29.9540   14.0460  -44.7300 O.3   492  A3P492     -0.2673
     15  C2'      -29.2570   13.5670  -42.5150 C.3   492  A3P492      0.2543
     16  O2'      -30.4420   14.3100  -42.4040 O.3   492  A3P492     -0.2131
     17  C1'      -29.6990   12.1420  -42.3800 C.3   492  A3P492      0.3185
     18  N9       -29.3500   11.4360  -41.1490 N.pl3 492  A3P492     -0.1439
     19  C8       -28.4980   10.4340  -41.0550 C.3   492  A3P492      0.3377
     20  N7       -28.4160    9.9710  -39.8040 N.2   492  A3P492     -0.2095
     21  C5       -29.2520   10.6680  -39.0680 C.2   492  A3P492      0.2526
     22  C6       -29.6760   10.6880  -37.6670 C.2   492  A3P492      0.4393
     23  N6       -29.1850    9.8520  -36.7280 N.pl3 492  A3P492      0.2180
     24  N1       -30.5750   11.6090  -37.3490 N.2   492  A3P492      0.0021
     25  C2       -31.0960   12.4520  -38.2150 C.3   492  A3P492      0.5254
     26  N3       -30.7480   12.4690  -39.4810 N.2   492  A3P492     -0.0055
     27  C4       -29.8610   11.6240  -39.9680 C.2   492  A3P492      0.3518
@<TRIPOS>BOND
     1     2     1    2
     2     1     4    1
     3     1     3    1
     4     1    14    1
     5    14    13    1
     6    11    10    1
     7    11    13    1
     8    11    12    1
     9    10     9    1
    10    13    15    1
    11    12    17    1
    12     8     5    2
    13     9     5    1
    14     6     5    1
    15    15    16    1
    16    15    17    1
    17     5     7    1
    18    17    18    1
    19    18    19    1
    20    18    27    1
    21    19    20    1
    22    27    26    2
    23    27    21    1
    24    20    21    2
    25    26    25    1
    26    21    22    1
    27    25    24    1
    28    22    24    2
    29    22    23    1
