@<TRIPOS>MOLECULE
3rtc_NAD_A_1.pdb
 36 39 0 0 0
SMALL
GASTEIGER

@<TRIPOS>ATOM
      1  PA       -51.7040   11.7560  -15.5900 P.3   493  NAD493      0.2189
      2  O1A      -51.6590   12.1530  -14.1310 O.3   493  NAD493     -0.4371
      3  O2A      -50.4340   11.4080  -16.2750 O.2   493  NAD493     -0.5170
      4  O5B      -52.1680   13.1080  -16.2980 O.3   493  NAD493     -0.3112
      5  C5B      -53.5570   13.3970  -16.4880 C.3   493  NAD493      0.1813
      6  C4B      -53.8550   14.7680  -15.8900 C.3   493  NAD493      0.1821
      7  O4B      -53.2200   15.8390  -16.5840 O.3   493  NAD493     -0.3135
      8  C3B      -55.3160   15.1410  -15.9630 C.3   493  NAD493      0.2184
      9  O3B      -55.5040   16.0910  -14.9120 O.3   493  NAD493     -0.2174
     10  C2B      -55.4110   15.7780  -17.3480 C.3   493  NAD493      0.2570
     11  O2B      -56.4760   16.6800  -17.4940 O.3   493  NAD493     -0.2130
     12  C1B      -54.1330   16.6070  -17.3420 C.3   493  NAD493      0.3186
     13  N9A      -53.5170   16.9160  -18.6520 N.pl3 493  NAD493     -0.1439
     14  C8A      -53.0860   16.0050  -19.5960 C.3   493  NAD493      0.3377
     15  N7A      -52.5080   16.7060  -20.6100 N.2   493  NAD493     -0.2095
     16  C5A      -52.5770   18.0250  -20.3190 C.2   493  NAD493      0.2526
     17  C6A      -52.1530   19.1360  -21.0260 C.2   493  NAD493      0.4393
     18  N6A      -51.4600   18.9510  -22.1670 N.pl3 493  NAD493      0.2180
     19  N1A      -52.3490   20.3770  -20.4750 N.2   493  NAD493      0.0021
     20  C2A      -52.9600   20.5300  -19.2420 C.3   493  NAD493      0.5254
     21  N3A      -53.3750   19.4030  -18.5630 N.2   493  NAD493     -0.0055
     22  C4A      -53.2120   18.1760  -19.0990 C.2   493  NAD493      0.3518
     23  O3       -52.7590   10.6710  -16.0620 O.3   493  NAD493     -0.2703
     24  PN       -53.4840    9.5190  -15.2260 P.3   493  NAD493      0.2189
     25  O1N      -53.7320    8.5230  -16.2500 O.2   493  NAD493     -0.5170
     26  O2N      -54.3550   10.1780  -14.2310 O.3   493  NAD493     -0.4371
     27  O5D      -52.2550    8.9010  -14.3470 O.3   493  NAD493     -0.3112
     28  C5D      -51.1530    8.2270  -14.9480 C.3   493  NAD493      0.1813
     29  C4D      -50.0300    8.1680  -13.8900 C.3   493  NAD493      0.1797
     30  O4D      -50.5050    7.5240  -12.6860 O.3   493  NAD493     -0.3336
     31  C3D      -48.7850    7.3900  -14.3380 C.3   493  NAD493      0.2156
     32  O3D      -47.8550    8.2030  -15.0380 O.3   493  NAD493     -0.2176
     33  C2D      -48.2570    6.9140  -12.9960 C.3   493  NAD493      0.2298
     34  O2D      -47.6320    8.0190  -12.3740 O.3   493  NAD493     -0.2160
     35  C1D      -49.5310    6.5990  -12.1840 C.3   493  NAD493      0.2397
     36  N1N      -49.9380    5.2060  -12.3320 N.3   493  NAD493     -0.0972
@<TRIPOS>BOND
     1    18    17    1
     2    17    19    2
     3    17    16    1
     4    15    16    2
     5    15    14    1
     6    19    20    1
     7    16    22    1
     8    14    13    1
     9    20    21    1
    10    22    13    1
    11    22    21    2
    12    13    12    1
    13    11    10    1
    14    10    12    1
    15    10     8    1
    16    12     7    1
    17     7     6    1
    18     5     4    1
    19     5     6    1
    20     4     1    1
    21     3     1    2
    22    25    24    2
    23    23     1    1
    24    23    24    1
    25     8     6    1
    26     8     9    1
    27     1     2    1
    28    24    27    1
    29    24    26    1
    30    32    31    1
    31    28    27    1
    32    28    29    1
    33    31    29    1
    34    31    33    1
    35    29    30    1
    36    33    34    1
    37    33    35    1
    38    30    35    1
    39    36    35    1
