@<TRIPOS>MOLECULE
3rtc_ATP_A_1.pdb
 31 33 0 0 0
SMALL
GASTEIGER

@<TRIPOS>ATOM
      1  PG       -19.8420    4.0910  -42.2050 P.3   494  ATP494      0.5373
      2  O1G      -18.8370    5.0700  -42.8230 O.3   494  ATP494     -0.1143
      3  O2G      -20.9460    3.7860  -43.2250 O.2   494  ATP494     -0.2221
      4  O3G      -19.2380    2.8840  -41.5400 O.3   494  ATP494     -0.1143
      5  PB       -21.4920    5.9770  -41.2480 P.3   494  ATP494      0.2277
      6  O1B      -22.1340    5.6010  -42.5700 O.2   494  ATP494     -0.5168
      7  O2B      -20.7260    7.2590  -41.2380 O.3   494  ATP494     -0.4368
      8  O3B      -20.4900    4.8230  -40.8810 O.3   494  ATP494     -0.2258
      9  PA       -23.9310    4.9370  -40.1290 P.3   494  ATP494      0.2189
     10  O1A      -24.0990    3.8940  -41.1950 O.2   494  ATP494     -0.5170
     11  O2A      -25.0620    5.8270  -39.6580 O.3   494  ATP494     -0.4371
     12  O3A      -22.7220    6.0220  -40.2140 O.3   494  ATP494     -0.2700
     13  O5'      -23.5330    4.0990  -38.8120 O.3   494  ATP494     -0.3112
     14  C5'      -23.2510    4.8200  -37.5990 C.3   494  ATP494      0.1813
     15  C4'      -23.2180    3.8320  -36.4160 C.3   494  ATP494      0.1821
     16  O4'      -22.8520    4.5460  -35.2430 O.3   494  ATP494     -0.3135
     17  C3'      -24.6200    3.3010  -36.0830 C.3   494  ATP494      0.2184
     18  O3'      -24.5890    2.0880  -35.3630 O.3   494  ATP494     -0.2174
     19  C2'      -25.2340    4.3060  -35.1520 C.3   494  ATP494      0.2570
     20  O2'      -26.2830    3.7260  -34.3660 O.3   494  ATP494     -0.2130
     21  C1'      -23.9860    4.6740  -34.3520 C.3   494  ATP494      0.3186
     22  N9       -24.0860    6.0290  -33.7540 N.pl3 494  ATP494     -0.1439
     23  C8       -23.8990    7.1970  -34.4110 C.3   494  ATP494      0.3377
     24  N7       -24.0250    8.2500  -33.5710 N.2   494  ATP494     -0.2095
     25  C5       -24.2920    7.7360  -32.3590 C.2   494  ATP494      0.2526
     26  C6       -24.5480    8.3200  -31.0470 C.2   494  ATP494      0.4393
     27  N6       -24.5300    9.6840  -30.9460 N.pl3 494  ATP494      0.2180
     28  N1       -24.7840    7.4650  -30.0160 N.2   494  ATP494      0.0021
     29  C2       -24.8130    6.1070  -30.1460 C.3   494  ATP494      0.5254
     30  N3       -24.6150    5.5000  -31.3510 N.2   494  ATP494     -0.0055
     31  C4       -24.3360    6.2620  -32.4640 C.2   494  ATP494      0.3518
@<TRIPOS>BOND
     1     3     1    2
     2     2     1    1
     3     6     5    2
     4     1     4    1
     5     1     8    1
     6     5     7    1
     7     5     8    1
     8     5    12    1
     9    10     9    2
    10    12     9    1
    11     9    11    1
    12     9    13    1
    13    13    14    1
    14    14    15    1
    15    15    17    1
    16    15    16    1
    17    17    18    1
    18    17    19    1
    19    16    21    1
    20    19    20    1
    21    19    21    1
    22    23    22    1
    23    23    24    1
    24    21    22    1
    25    22    31    1
    26    24    25    2
    27    31    25    1
    28    31    30    2
    29    25    26    1
    30    30    29    1
    31    26    27    1
    32    26    28    2
    33    29    28    1
