@<TRIPOS>MOLECULE
3rtd_ADP_A_1.pdb
 27 29 0 0 0
SMALL
GASTEIGER

@<TRIPOS>ATOM
      1  PB        -5.2350   21.0680   41.3980 P.3   494  ADP494      0.5373
      2  O1B       -4.8030   21.4970   42.8130 O.3   494  ADP494     -0.1143
      3  O2B       -4.1970   20.1840   40.8800 O.2   494  ADP494     -0.2221
      4  O3B       -6.6260   20.6020   41.2380 O.3   494  ADP494     -0.1143
      5  PA        -4.8030   23.7250   40.2450 P.3   494  ADP494      0.2231
      6  O1A       -3.6950   24.0490   41.2050 O.3   494  ADP494     -0.4370
      7  O2A       -5.9520   24.5950   39.9000 O.2   494  ADP494     -0.5169
      8  O3A       -5.5950   22.3720   40.5180 O.3   494  ADP494     -0.2261
      9  O5'       -4.1000   23.5840   38.7920 O.3   494  ADP494     -0.3111
     10  C5'       -4.8750   23.3270   37.6070 C.3   494  ADP494      0.1813
     11  C4'       -3.8890   23.1890   36.4590 C.3   494  ADP494      0.1821
     12  O4'       -4.6020   22.7870   35.2920 O.3   494  ADP494     -0.3135
     13  C3'       -3.2610   24.5410   36.0960 C.3   494  ADP494      0.2184
     14  O3'       -2.0430   24.4000   35.4220 O.3   494  ADP494     -0.2174
     15  C2'       -4.2540   25.1390   35.1370 C.3   494  ADP494      0.2570
     16  O2'       -3.7640   26.2830   34.4490 O.3   494  ADP494     -0.2130
     17  C1'       -4.5920   23.8790   34.3470 C.3   494  ADP494      0.3186
     18  N9        -5.9660   23.9380   33.7960 N.pl3 494  ADP494     -0.1439
     19  C8        -7.1260   23.7490   34.4610 C.3   494  ADP494      0.3377
     20  N7        -8.1770   23.8680   33.6110 N.2   494  ADP494     -0.2095
     21  C5        -7.6710   24.1560   32.4080 C.2   494  ADP494      0.2526
     22  C6        -8.2200   24.4440   31.0810 C.2   494  ADP494      0.4393
     23  N6        -9.5530   24.4300   30.8730 N.pl3 494  ADP494      0.2180
     24  N1        -7.3670   24.6950   30.0860 N.2   494  ADP494      0.0021
     25  C2        -6.0340   24.7150   30.2470 C.3   494  ADP494      0.5254
     26  N3        -5.4600   24.5140   31.4470 N.2   494  ADP494     -0.0055
     27  C4        -6.2290   24.1920   32.5260 C.2   494  ADP494      0.3518
@<TRIPOS>BOND
     1    24    25    1
     2    24    22    2
     3    25    26    1
     4    23    22    1
     5    22    21    1
     6    26    27    2
     7    21    27    1
     8    21    20    2
     9    27    18    1
    10    20    19    1
    11    18    17    1
    12    18    19    1
    13    17    15    1
    14    17    12    1
    15    16    15    1
    16    15    13    1
    17    12    11    1
    18    14    13    1
    19    13    11    1
    20    11    10    1
    21    10     9    1
    22     9     5    1
    23     7     5    2
    24     5     8    1
    25     5     6    1
    26     8     1    1
    27     3     1    2
    28     4     1    1
    29     1     2    1
