@<TRIPOS>MOLECULE
3rtd_NAX_A_1.pdb
 45 49 0 0 0
SMALL
GASTEIGER

@<TRIPOS>ATOM
      1  PA        -8.0600   25.7620   47.8180 P.3   495  NAX495      0.2189
      2  O1A       -8.6250   25.9000   49.1950 O.3   495  NAX495     -0.4371
      3  O2A       -6.5270   25.9560   47.7440 O.2   495  NAX495     -0.5170
      4  O5B       -8.8420   26.6960   46.8160 O.3   495  NAX495     -0.3112
      5  C5B       -9.7910   27.6510   47.2920 C.3   495  NAX495      0.1813
      6  C4B      -11.0890   27.5540   46.4930 C.3   495  NAX495      0.1821
      7  O4B      -10.9180   28.1860   45.2360 O.3   495  NAX495     -0.3135
      8  C3B      -11.5470   26.1310   46.1970 C.3   495  NAX495      0.2184
      9  O3B      -12.6010   25.8140   47.1130 O.3   495  NAX495     -0.2174
     10  C2B      -12.0930   26.1550   44.7900 C.3   495  NAX495      0.2570
     11  O2B      -13.5390   26.1020   44.6970 O.3   495  NAX495     -0.2130
     12  C1B      -11.7000   27.5170   44.2610 C.3   495  NAX495      0.3186
     13  N9A      -10.9670   27.3590   43.0030 N.pl3 495  NAX495     -0.1439
     14  C8A      -10.1390   26.3470   42.6430 C.3   495  NAX495      0.3377
     15  N7A       -9.6550   26.5670   41.3990 N.2   495  NAX495     -0.2095
     16  C5A      -10.1890   27.7140   40.9720 C.2   495  NAX495      0.2526
     17  C6A      -10.1070   28.4810   39.7570 C.2   495  NAX495      0.4393
     18  N6A       -9.3200   28.0340   38.7660 N.pl3 495  NAX495      0.2180
     19  N1A      -10.8270   29.6120   39.6670 N.2   495  NAX495      0.0021
     20  C2A      -11.6030   30.0390   40.6770 C.3   495  NAX495      0.5254
     21  N3A      -11.7200   29.3810   41.8330 N.2   495  NAX495     -0.0055
     22  C4A      -11.0480   28.2360   42.0190 C.2   495  NAX495      0.3518
     23  O3        -8.6630   24.3950   47.2590 O.3   495  NAX495     -0.2703
     24  PN        -7.9670   23.3160   46.2940 P.3   495  NAX495      0.2189
     25  O1N       -7.5520   23.9490   44.9860 O.2   495  NAX495     -0.5170
     26  O2N       -9.0470   22.2840   46.1980 O.3   495  NAX495     -0.4371
     27  O5D       -6.6900   22.7770   47.0910 O.3   495  NAX495     -0.3112
     28  C5D       -6.7880   22.3130   48.4520 C.3   495  NAX495      0.1813
     29  C4D       -5.7520   21.2020   48.7060 C.3   495  NAX495      0.1799
     30  O4D       -6.1140   19.9960   47.9470 O.3   495  NAX495     -0.3326
     31  C3D       -4.3290   21.5720   48.2720 C.3   495  NAX495      0.2158
     32  O3D       -3.3870   21.1900   49.3120 O.3   495  NAX495     -0.2175
     33  C2D       -4.0920   20.7410   46.9860 C.3   495  NAX495      0.2310
     34  O2D       -2.7110   20.3560   46.7620 O.3   495  NAX495     -0.2158
     35  C1D       -4.9170   19.5150   47.3440 C.3   495  NAX495      0.2278
     36  N1N       -5.2230   18.6590   46.2360 N.pl3 495  NAX495     -0.2585
     37  C2N       -5.0520   17.3860   46.4680 C.2   495  NAX495      0.0652
     38  C3N       -5.2210   16.4260   45.5440 C.2   495  NAX495      0.0492
     39  C7N       -4.7780   15.0370   45.8100 C.2   495  NAX495      0.2814
     40  O7N       -4.2300   14.7120   46.8580 O.2   495  NAX495     -0.2670
     41  N7N       -4.9410   14.1070   44.8720 N.am  495  NAX495     -0.0839
     42  C4N       -5.8180   16.8290   44.2060 C.3   495  NAX495      0.0368
     43  C5N       -6.5350   18.2060   44.3450 C.3   495  NAX495      0.0591
     44  C6N       -5.6280   19.2230   44.9420 C.3   495  NAX495      0.2302
     45  O6N       -4.3990   19.3810   44.1800 O.3   495  NAX495     -0.2006
@<TRIPOS>BOND
     1    18    17    1
     2    19    17    2
     3    19    20    1
     4    17    16    1
     5    20    21    1
     6    16    15    2
     7    16    22    1
     8    15    14    1
     9    21    22    2
    10    22    13    1
    11    14    13    1
    12    13    12    1
    13    45    44    1
    14    42    43    1
    15    42    38    1
    16    12    10    1
    17    12     7    1
    18    43    44    1
    19    11    10    1
    20    10     8    1
    21    41    39   am
    22    44    36    1
    23    25    24    2
    24     7     6    1
    25    38    39    1
    26    38    37    2
    27    39    40    2
    28     8     6    1
    29     8     9    1
    30    26    24    1
    31    36    37    1
    32    36    35    1
    33    24    27    1
    34    24    23    1
    35     6     5    1
    36    34    33    1
    37     4     5    1
    38     4     1    1
    39    33    35    1
    40    33    31    1
    41    27    28    1
    42    23     1    1
    43    35    30    1
    44     3     1    2
    45     1     2    1
    46    30    29    1
    47    31    29    1
    48    31    32    1
    49    28    29    1
