@<TRIPOS>MOLECULE
3rtd_NAI_A_1.pdb
 36 39 0 0 0
SMALL
GASTEIGER

@<TRIPOS>ATOM
      1  PA       -11.8280   51.4890   15.4150 P.3   493  NAI493      0.2189
      2  O1A      -11.5330   50.2460   16.2260 O.3   493  NAI493     -0.4371
      3  O2A      -12.1160   51.4860   13.9050 O.2   493  NAI493     -0.5170
      4  O5B      -13.1970   51.9790   16.0570 O.3   493  NAI493     -0.3112
      5  C5B      -13.4100   53.3730   16.2130 C.3   493  NAI493      0.1813
      6  C4B      -14.8370   53.6230   15.7830 C.3   493  NAI493      0.1821
      7  O4B      -15.7530   52.9810   16.6470 O.3   493  NAI493     -0.3135
      8  C3B      -15.1940   55.0860   15.8260 C.3   493  NAI493      0.2184
      9  O3B      -15.9440   55.3110   14.6030 O.3   493  NAI493     -0.2174
     10  C2B      -16.0160   55.2210   17.1210 C.3   493  NAI493      0.2570
     11  O2B      -16.9770   56.2740   17.0910 O.3   493  NAI493     -0.2130
     12  C1B      -16.7070   53.8700   17.1510 C.3   493  NAI493      0.3186
     13  N9A      -16.9930   53.3180   18.4990 N.pl3 493  NAI493     -0.1439
     14  C8A      -16.0380   53.0110   19.4150 C.3   493  NAI493      0.3377
     15  N7A      -16.6140   52.4780   20.5210 N.2   493  NAI493     -0.2095
     16  C5A      -17.9490   52.4430   20.2820 C.2   493  NAI493      0.2526
     17  C6A      -19.1100   52.0290   21.0740 C.2   493  NAI493      0.4393
     18  N6A      -18.8800   51.5230   22.3150 N.pl3 493  NAI493      0.2180
     19  N1A      -20.3250   52.1500   20.5050 N.2   493  NAI493      0.0021
     20  C2A      -20.4890   52.6480   19.2450 C.3   493  NAI493      0.5254
     21  N3A      -19.4700   53.0690   18.4740 N.2   493  NAI493     -0.0055
     22  C4A      -18.2070   52.9900   18.9580 C.2   493  NAI493      0.3518
     23  O3       -10.7940   52.5620   15.9670 O.3   493  NAI493     -0.2703
     24  PN        -9.6340   53.2170   15.1300 P.3   493  NAI493      0.2189
     25  O1N       -8.6280   53.5530   16.1320 O.3   493  NAI493     -0.4371
     26  O2N      -10.2520   54.1430   14.0820 O.2   493  NAI493     -0.5170
     27  O5D       -8.9940   51.9810   14.3070 O.3   493  NAI493     -0.3112
     28  C5D       -8.1260   50.9720   14.8810 C.3   493  NAI493      0.1813
     29  C4D       -8.1690   49.8050   13.8870 C.3   493  NAI493      0.1797
     30  O4D       -7.5870   50.1630   12.5940 O.3   493  NAI493     -0.3336
     31  C3D       -7.4030   48.5760   14.3820 C.3   493  NAI493      0.2156
     32  O3D       -8.2930   47.6630   15.0090 O.3   493  NAI493     -0.2176
     33  C2D       -6.8590   48.0330   13.0720 C.3   493  NAI493      0.2298
     34  O2D       -7.9260   47.3340   12.4100 O.3   493  NAI493     -0.2160
     35  C1D       -6.5120   49.2880   12.2720 C.3   493  NAI493      0.2397
     36  N1N       -5.2530   49.8490   12.7230 N.3   493  NAI493     -0.0972
@<TRIPOS>BOND
     1    35    30    1
     2    35    36    1
     3    35    33    1
     4    34    33    1
     5    30    29    1
     6    33    31    1
     7    29    31    1
     8    29    28    1
     9     3     1    2
    10    26    24    2
    11    27    28    1
    12    27    24    1
    13    31    32    1
    14     9     8    1
    15    24    23    1
    16    24    25    1
    17     1    23    1
    18     1     4    1
    19     1     2    1
    20     6     8    1
    21     6     5    1
    22     6     7    1
    23     8    10    1
    24     4     5    1
    25     7    12    1
    26    11    10    1
    27    10    12    1
    28    12    13    1
    29    21    22    2
    30    21    20    1
    31    13    22    1
    32    13    14    1
    33    22    16    1
    34    20    19    1
    35    14    15    1
    36    16    15    2
    37    16    17    1
    38    19    17    2
    39    17    18    1
