@<TRIPOS>MOLECULE
3rte_NAP_A_1.pdb
 40 43 0 0 0
SMALL
GASTEIGER

@<TRIPOS>ATOM
      1  PA        51.7010   11.8400   15.6300 P.3   493  NAP493      0.2189
      2  O1A       50.3700   11.4830   16.1820 O.3   493  NAP493     -0.4371
      3  O2A       51.7740   12.1750   14.1410 O.2   493  NAP493     -0.5170
      4  O5B       52.2120   13.1150   16.4620 O.3   493  NAP493     -0.3112
      5  C5B       53.5870   13.4950   16.4360 C.3   493  NAP493      0.1813
      6  C4B       53.7050   14.9110   15.8820 C.3   493  NAP493      0.1820
      7  O4B       53.0610   15.8740   16.7180 O.3   493  NAP493     -0.3136
      8  C3B       55.1510   15.4320   15.7760 C.3   493  NAP493      0.2157
      9  O3B       55.1660   16.3910   14.7130 O.3   493  NAP493     -0.2175
     10  C2B       55.3630   16.1100   17.1270 C.3   493  NAP493      0.2314
     11  O2B       56.3540   17.1240   17.1990 O.3   493  NAP493     -0.2630
     12  C1B       54.0050   16.7530   17.3330 C.3   493  NAP493      0.3158
     13  N9A       53.4760   16.9720   18.7020 N.pl3 493  NAP493     -0.1439
     14  C8A       53.0510   16.0330   19.6260 C.3   493  NAP493      0.3377
     15  N7A       52.4970   16.6800   20.6740 N.2   493  NAP493     -0.2095
     16  C5A       52.5410   18.0160   20.4110 C.2   493  NAP493      0.2526
     17  C6A       52.1290   19.1370   21.1000 C.2   493  NAP493      0.4393
     18  N6A       51.5640   19.0160   22.3110 N.pl3 493  NAP493      0.2180
     19  N1A       52.3230   20.3830   20.5430 N.2   493  NAP493      0.0021
     20  C2A       52.8900   20.5330   19.3030 C.3   493  NAP493      0.5254
     21  N3A       53.2840   19.4090   18.6330 N.2   493  NAP493     -0.0055
     22  C4A       53.1460   18.2020   19.1770 C.2   493  NAP493      0.3518
     23  O3        52.7150   10.7030   16.0370 O.3   493  NAP493     -0.2703
     24  PN        53.5410    9.5540   15.3150 P.3   493  NAP493      0.2189
     25  O1N       54.4060   10.0880   14.2060 O.2   493  NAP493     -0.5170
     26  O2N       53.8110    8.5110   16.3050 O.3   493  NAP493     -0.4371
     27  O5D       52.2860    8.9570   14.4600 O.3   493  NAP493     -0.3112
     28  C5D       51.2870    8.0510   14.9110 C.3   493  NAP493      0.1813
     29  C4D       50.1070    8.1700   13.9350 C.3   493  NAP493      0.1797
     30  O4D       50.4920    7.6710   12.6350 O.3   493  NAP493     -0.3336
     31  C3D       48.8260    7.4070   14.3360 C.3   493  NAP493      0.2156
     32  O3D       47.8900    8.2130   15.0220 O.3   493  NAP493     -0.2176
     33  C2D       48.3150    6.9750   12.9660 C.3   493  NAP493      0.2298
     34  O2D       47.7250    8.1130   12.3810 O.3   493  NAP493     -0.2160
     35  C1D       49.6120    6.6390   12.2250 C.3   493  NAP493      0.2397
     36  N1N       50.1040    5.2990   12.6400 N.3   493  NAP493     -0.0972
     37  P2B       57.7980   16.6380   17.7400 P.3   493  NAP493      0.5328
     38  O1X       58.8010   17.6270   17.2120 O.2   493  NAP493     -0.2224
     39  O2X       58.1480   15.2600   17.2280 O.3   493  NAP493     -0.1145
     40  O3X       57.7580   16.5410   19.2090 O.3   493  NAP493     -0.1145
@<TRIPOS>BOND
     1    35    30    1
     2    35    36    1
     3    35    33    1
     4    34    33    1
     5    30    29    1
     6    33    31    1
     7    29    31    1
     8    29    28    1
     9     3     1    2
    10    25    24    2
    11    31    32    1
    12    27    28    1
    13    27    24    1
    14     9     8    1
    15    24    23    1
    16    24    26    1
    17     1    23    1
    18     1     2    1
    19     1     4    1
    20     8     6    1
    21     8    10    1
    22     6     5    1
    23     6     7    1
    24     5     4    1
    25     7    12    1
    26    10    11    1
    27    10    12    1
    28    11    37    1
    29    38    37    2
    30    39    37    1
    31    12    13    1
    32    37    40    1
    33    21    22    2
    34    21    20    1
    35    13    22    1
    36    13    14    1
    37    22    16    1
    38    20    19    1
    39    14    15    1
    40    16    15    2
    41    16    17    1
    42    19    17    2
    43    17    18    1
