@<TRIPOS>MOLECULE
3rte_ATP_A_1.pdb
 31 33 0 0 0
SMALL
GASTEIGER

@<TRIPOS>ATOM
      1  PG        19.9880    4.3920   42.6980 P.3   494  ATP494      0.5373
      2  O1G       19.1080    5.6380   42.9290 O.3   494  ATP494     -0.1143
      3  O2G       20.4840    3.7470   43.9920 O.3   494  ATP494     -0.1143
      4  O3G       19.4630    3.4050   41.6640 O.2   494  ATP494     -0.2221
      5  PB        21.2040    6.0370   40.8140 P.3   494  ATP494      0.2277
      6  O1B       20.6990    7.3190   41.4190 O.3   494  ATP494     -0.4368
      7  O2B       20.3950    5.3160   39.7820 O.2   494  ATP494     -0.5168
      8  O3B       21.3430    5.0210   42.0500 O.3   494  ATP494     -0.2258
      9  PA        23.8180    5.0920   39.9340 P.3   494  ATP494      0.2189
     10  O1A       23.9670    4.0510   40.9940 O.3   494  ATP494     -0.4371
     11  O2A       24.9120    6.0700   39.4910 O.2   494  ATP494     -0.5170
     12  O3A       22.7210    6.2620   40.2730 O.3   494  ATP494     -0.2700
     13  O5'       23.4260    4.1720   38.6400 O.3   494  ATP494     -0.3112
     14  C5'       23.1010    4.7660   37.3710 C.3   494  ATP494      0.1813
     15  C4'       23.1600    3.7720   36.2040 C.3   494  ATP494      0.1821
     16  O4'       22.7900    4.5230   35.0580 O.3   494  ATP494     -0.3135
     17  C3'       24.5850    3.3060   35.8550 C.3   494  ATP494      0.2184
     18  O3'       24.6780    2.1240   35.0950 O.3   494  ATP494     -0.2174
     19  C2'       25.1620    4.3110   34.9080 C.3   494  ATP494      0.2570
     20  O2'       26.1430    3.6930   34.0920 O.3   494  ATP494     -0.2130
     21  C1'       23.9160    4.6960   34.1440 C.3   494  ATP494      0.3186
     22  N9        24.0440    6.0730   33.5840 N.pl3 494  ATP494     -0.1439
     23  C8        23.9070    7.2500   34.2320 C.3   494  ATP494      0.3377
     24  N7        24.0700    8.3030   33.3820 N.2   494  ATP494     -0.2095
     25  C5        24.2930    7.7940   32.1640 C.2   494  ATP494      0.2526
     26  C6        24.5460    8.3310   30.8190 C.2   494  ATP494      0.4393
     27  N6        24.5900    9.6740   30.6210 N.pl3 494  ATP494      0.2180
     28  N1        24.7390    7.4330   29.8170 N.2   494  ATP494      0.0021
     29  C2        24.7150    6.0850   29.9820 C.3   494  ATP494      0.5254
     30  N3        24.4960    5.5200   31.1890 N.2   494  ATP494     -0.0055
     31  C4        24.2890    6.3110   32.2930 C.2   494  ATP494      0.3518
@<TRIPOS>BOND
     1    28    29    1
     2    28    26    2
     3    29    30    1
     4    27    26    1
     5    26    25    1
     6    30    31    2
     7    25    31    1
     8    25    24    2
     9    31    22    1
    10    24    23    1
    11    22    21    1
    12    22    23    1
    13    20    19    1
    14    21    19    1
    15    21    16    1
    16    19    17    1
    17    16    15    1
    18    18    17    1
    19    17    15    1
    20    15    14    1
    21    14    13    1
    22    13     9    1
    23    11     9    2
    24     7     5    2
    25     9    12    1
    26     9    10    1
    27    12     5    1
    28     5     6    1
    29     5     8    1
    30     4     1    2
    31     8     1    1
    32     1     2    1
    33     1     3    1
