@<TRIPOS>MOLECULE
3rtf_CWD_B_1.pdb
 15 15 0 0 0
SMALL
GASTEIGER

@<TRIPOS>ATOM
      1  N1        18.5280  -21.0040  -26.5690 N.am  800  CWD800     -0.2005
      2  C2        17.9970  -21.1010  -25.3400 C.1   800  CWD800      0.2827
      3  O2        18.6740  -21.2090  -24.3450 O.2   800  CWD800     -0.1919
      4  N3        16.6400  -21.1380  -25.1890 N.2   800  CWD800     -0.2444
      5  C4        15.8930  -21.0890  -26.3080 C.1   800  CWD800      0.2282
      6  O4        14.5290  -21.0740  -26.1190 O.2   800  CWD800     -0.2076
      7  C5        16.4530  -20.9900  -27.5530 C.2   800  CWD800      0.1680
      8 CL5        15.4590  -20.9630  -29.0170 Cl    800  CWD800     -0.0672
      9  C6        17.7780  -20.9540  -27.7360 C.2   800  CWD800      0.1013
     10  C7        19.9870  -20.8740  -26.6860 C.3   800  CWD800      0.1396
     11  C8        20.4570  -19.4870  -26.2690 C.3   800  CWD800      0.2151
     12  N8        20.2030  -18.4580  -27.2750 N.3   800  CWD800     -0.1189
     13  C9        21.9490  -19.5100  -25.9660 C.2   800  CWD800      0.3836
     14  O91       22.7370  -18.8270  -26.5700 O.co2 800  CWD800     -0.2440
     15  O92       22.3280  -20.4470  -25.0520 O.co2 800  CWD800     -0.2440
@<TRIPOS>BOND
     1     8     7    1
     2     9     7    2
     3     9     1    1
     4     7     5    1
     5    12    11    1
     6    10     1    1
     7    10    11    1
     8    14    13   ar
     9     1     2   am
    10     5     6    2
    11     5     4    2
    12    11    13    1
    13    13    15   ar
    14     2     4    2
    15     2     3    2
