@<TRIPOS>MOLECULE
3rtg_COA_A_1.pdb
 48 50 0 0 0
SMALL
GASTEIGER

@<TRIPOS>ATOM
      1  N1A       52.4030   20.4350   21.0560 N.2   493  COA493      0.0021
      2  C2A       52.7730   20.6350   19.7410 C.3   493  COA493      0.5254
      3  N3A       53.1030   19.5600   18.9360 N.2   493  COA493     -0.0055
      4  C4A       53.0640   18.3030   19.4230 C.2   493  COA493      0.3518
      5  C5A       52.6880   18.0790   20.7480 C.2   493  COA493      0.2526
      6  C6A       52.3610   19.1590   21.5720 C.2   493  COA493      0.4393
      7  N6A       51.8150   18.9410   22.7690 N.pl3 493  COA493      0.2180
      8  N7A       52.7500   16.7350   20.9700 N.2   493  COA493     -0.2095
      9  C8A       53.1290   16.1050   19.8220 C.3   493  COA493      0.3377
     10  N9A       53.3050   17.0680   18.8440 N.pl3 493  COA493     -0.1439
     11  C1B       53.7290   16.8620   17.4440 C.3   493  COA493      0.3185
     12  C2B       55.2030   16.6760   17.6360 C.3   493  COA493      0.2543
     13  O2B       55.8870   17.3710   16.6140 O.3   493  COA493     -0.2131
     14  C3B       55.3680   15.1690   17.5630 C.3   493  COA493      0.1928
     15  O3B       56.7430   14.9320   17.3870 O.3   493  COA493     -0.2673
     16  P3B       57.8280   16.0600   17.8640 P.3   493  COA493      0.5327
     17  O7A       57.7090   16.4410   19.3310 O.3   493  COA493     -0.1145
     18  O8A       59.2140   15.5100   17.5530 O.3   493  COA493     -0.1145
     19  O9A       57.6450   17.3560   17.0970 O.2   493  COA493     -0.2224
     20  C4B       54.3550   14.8320   16.4560 C.3   493  COA493      0.1795
     21  O4B       53.2670   15.7040   16.7590 O.3   493  COA493     -0.3136
     22  C5B       53.8550   13.3780   16.3610 C.3   493  COA493      0.1812
     23  O5B       52.4420   13.3760   16.1830 O.3   493  COA493     -0.3112
     24  P1A       51.6310   12.0660   15.7150 P.3   493  COA493      0.2189
     25  O1A       51.4750   12.0750   14.1920 O.2   493  COA493     -0.5170
     26  O2A       50.3810   12.0130   16.5130 O.3   493  COA493     -0.4371
     27  O3A       52.6200   10.8980   16.1360 O.3   493  COA493     -0.2703
     28  P2A       53.1530    9.6760   15.2610 P.3   493  COA493      0.2188
     29  O4A       54.2100   10.1820   14.2820 O.2   493  COA493     -0.5170
     30  O5A       51.9650    8.9450   14.6350 O.3   493  COA493     -0.4371
     31  O6A       53.7990    8.6800   16.3370 O.3   493  COA493     -0.3138
     32  CBP       53.0800    6.6760   17.4330 C.3   493  COA493      0.0645
     33  CCP       53.0690    8.2090   17.4360 C.3   493  COA493      0.1519
     34  CDP       52.8990    6.2920   18.8990 C.3   493  COA493      0.0056
     35  CEP       54.4660    6.1910   16.9950 C.3   493  COA493      0.0056
     36  CAP       51.9080    6.0850   16.5820 C.3   493  COA493      0.2312
     37  OAP       51.5000    4.8520   17.1630 O.3   493  COA493     -0.2131
     38  C9P       52.1830    5.9020   15.0970 C.2   493  COA493      0.2719
     39  O9P       53.5230    6.0110   14.6910 O.2   493  COA493     -0.2706
     40  N8P       51.2180    5.6480   14.1680 N.am  493  COA493     -0.2028
     41  C7P       49.7650    5.5930   14.3330 C.3   493  COA493      0.1248
     42  C6P       49.0360    4.6250   13.3680 C.3   493  COA493      0.1102
     43  C5P       49.0300    5.0100   11.9040 C.2   493  COA493      0.2432
     44  O5P       48.8710    6.2140   11.6360 O.2   493  COA493     -0.2733
     45  N4P       49.1490    4.0310   10.9640 N.am  493  COA493     -0.2044
     46  C3P       49.9240    4.2190    9.7100 C.3   493  COA493      0.1276
     47  C2P       51.3330    3.6140    9.7330 C.3   493  COA493      0.0920
     48  S1P       52.5900    4.6210   10.5910 S.3   493  COA493     -0.0802
@<TRIPOS>BOND
     1    46    47    1
     2    46    45    1
     3    47    48    1
     4    45    43   am
     5    44    43    2
     6    43    42    1
     7    42    41    1
     8    40    41    1
     9    40    38   am
    10    25    24    2
    11    29    28    2
    12    30    28    1
    13    39    38    2
    14    38    36    1
    15    28    27    1
    16    28    31    1
    17    24    27    1
    18    24    23    1
    19    24    26    1
    20    23    22    1
    21    31    33    1
    22    22    20    1
    23    20    21    1
    24    20    14    1
    25    36    37    1
    26    36    32    1
    27    13    12    1
    28    21    11    1
    29    35    32    1
    30    19    16    2
    31    15    14    1
    32    15    16    1
    33    32    33    1
    34    32    34    1
    35    11    12    1
    36    11    10    1
    37    18    16    1
    38    14    12    1
    39    16    17    1
    40    10     4    1
    41    10     9    1
    42     3     4    2
    43     3     2    1
    44     4     5    1
    45     2     1    1
    46     9     8    1
    47     5     8    2
    48     5     6    1
    49     1     6    2
    50     6     7    1
