@<TRIPOS>MOLECULE
3rtg_ATP_A_1.pdb
 31 33 0 0 0
SMALL
GASTEIGER

@<TRIPOS>ATOM
      1  PG        20.1550    4.4190   42.2890 P.3   494  ATP494      0.5373
      2  O1G       19.3240    5.5690   42.8960 O.3   494  ATP494     -0.1143
      3  O2G       21.3020    4.0450   43.2290 O.3   494  ATP494     -0.1143
      4  O3G       19.3700    3.2270   41.7910 O.2   494  ATP494     -0.2221
      5  PB        21.8320    6.1630   41.2720 P.3   494  ATP494      0.2277
      6  O1B       22.4910    5.7920   42.5960 O.3   494  ATP494     -0.4368
      7  O2B       21.0530    7.4450   41.2600 O.2   494  ATP494     -0.5168
      8  O3B       20.7980    5.0210   40.9200 O.3   494  ATP494     -0.2258
      9  PA        24.0340    4.7580   40.1000 P.3   494  ATP494      0.2189
     10  O1A       23.9260    3.7540   41.1960 O.3   494  ATP494     -0.4371
     11  O2A       25.4190    5.1420   39.6140 O.2   494  ATP494     -0.5170
     12  O3A       23.1290    6.1120   40.2600 O.3   494  ATP494     -0.2700
     13  O5'       23.4240    4.0490   38.7940 O.3   494  ATP494     -0.3112
     14  C5'       23.2710    4.7740   37.5760 C.3   494  ATP494      0.1813
     15  C4'       23.1960    3.7870   36.4130 C.3   494  ATP494      0.1821
     16  O4'       22.8380    4.4880   35.2330 O.3   494  ATP494     -0.3135
     17  C3'       24.5700    3.1950   36.0800 C.3   494  ATP494      0.2184
     18  O3'       24.5010    1.9780   35.3450 O.3   494  ATP494     -0.2174
     19  C2'       25.2120    4.1760   35.1600 C.3   494  ATP494      0.2570
     20  O2'       26.2720    3.5560   34.4580 O.3   494  ATP494     -0.2130
     21  C1'       23.9980    4.5780   34.3440 C.3   494  ATP494      0.3186
     22  N9        24.1140    5.9520   33.8000 N.pl3 494  ATP494     -0.1439
     23  C8        23.9460    7.0980   34.4660 C.3   494  ATP494      0.3377
     24  N7        24.0820    8.1810   33.6340 N.2   494  ATP494     -0.2095
     25  C5        24.3110    7.6940   32.4010 C.2   494  ATP494      0.2526
     26  C6        24.5860    8.2550   31.0700 C.2   494  ATP494      0.4393
     27  N6        24.5920    9.6030   30.8850 N.pl3 494  ATP494      0.2180
     28  N1        24.7970    7.3800   30.0540 N.2   494  ATP494      0.0021
     29  C2        24.7950    6.0420   30.2290 C.3   494  ATP494      0.5254
     30  N3        24.5930    5.4480   31.4180 N.2   494  ATP494     -0.0055
     31  C4        24.3520    6.2170   32.5180 C.2   494  ATP494      0.3518
@<TRIPOS>BOND
     1    28    29    1
     2    28    26    2
     3    29    30    1
     4    27    26    1
     5    26    25    1
     6    30    31    2
     7    25    31    1
     8    25    24    2
     9    31    22    1
    10    24    23    1
    11    22    21    1
    12    22    23    1
    13    21    19    1
    14    21    16    1
    15    20    19    1
    16    19    17    1
    17    16    15    1
    18    18    17    1
    19    17    15    1
    20    15    14    1
    21    14    13    1
    22    13     9    1
    23    11     9    2
    24     9    12    1
    25     9    10    1
    26    12     5    1
    27     8     5    1
    28     8     1    1
    29     7     5    2
    30     5     6    1
    31     4     1    2
    32     1     2    1
    33     1     3    1
