@<TRIPOS>MOLECULE
3rth_RTH_A_1.pdb
 23 25 0 0 0
SMALL
GASTEIGER

@<TRIPOS>ATOM
      1  C4        69.2350   48.9800   10.2750 C.2   397  RTH397     -0.0151
      2  C5        68.5080   48.8100    9.1120 C.2   397  RTH397      0.0261
      3  C6        68.2040   49.9150    8.3220 C.2   397  RTH397      0.1325
      4  C8        67.0100   48.5600    6.8110 C.2   397  RTH397      0.2192
      5  C10       68.0460   47.5470    8.7340 C.2   397  RTH397      0.0063
      6  C13       72.5580   49.8580   12.9710 C.ar  397  RTH397      0.0079
      7  C15       70.8070   51.1000   14.1010 C.ar  397  RTH397     -0.0003
      8  C20       72.7870   47.9170    8.2250 C.3   397  RTH397      0.0544
      9  C21       72.2340   48.7550    7.0540 C.3   397  RTH397      0.0130
     10  C22       72.1570   46.5290    8.1700 C.3   397  RTH397      0.0130
     11  C23       74.3220   47.8770    8.1900 C.3   397  RTH397      0.0130
     12  C19       72.4120   48.5780    9.5040 C.1   397  RTH397     -0.0884
     13  C18       72.1220   49.1350   10.6040 C.1   397  RTH397     -0.0647
     14  C12       71.7420   49.7790   11.8360 C.ar  397  RTH397      0.0383
     15  C14       72.0790   50.5200   14.1060 C.ar  397  RTH397      0.0006
     16  C16       69.9920   51.0320   12.9670 C.ar  397  RTH397     -0.0030
     17  C11       70.4670   50.3640   11.8290 C.ar  397  RTH397     -0.0067
     18  C1        69.7010   50.2390   10.6590 C.3   397  RTH397      0.0668
     19  C9        67.2850   47.4170    7.5700 C.2   397  RTH397      0.0509
     20  N17       66.2950   48.4540    5.6920 N.pl3 397  RTH397     -0.0932
     21  N7        67.4760   49.7720    7.1950 N.2   397  RTH397     -0.3839
     22  C3        68.6510   51.1710    8.7090 C.2   397  RTH397      0.0282
     23  C2        69.4030   51.3430    9.8700 C.2   397  RTH397     -0.0150
@<TRIPOS>BOND
     1    20     4    1
     2     4    21    2
     3     4    19    1
     4     9     8    1
     5    21     3    2
     6    19     5    2
     7    10     8    1
     8    11     8    1
     9     8    12    1
    10     3    22    1
    11     3     2    1
    12    22    23    2
    13     5     2    1
    14     2     1    2
    15    12    13    3
    16    23    18    1
    17     1    18    1
    18    13    14    1
    19    18    17    1
    20    17    14   ar
    21    17    16   ar
    22    14     6   ar
    23    16     7   ar
    24     6    15   ar
    25     7    15   ar
