@<TRIPOS>MOLECULE
3rti_FMP_A_1.pdb
 23 25 0 0 0
SMALL
GASTEIGER

@<TRIPOS>ATOM
      1  P         25.1070   68.0050   50.0200 P.3   301  FMP301      0.5327
      2  O1P       24.2690   68.0560   48.8030 O.2   301  FMP301     -0.2224
      3  O2P       26.6660   68.2540   49.7070 O.3   301  FMP301     -0.1145
      4  O3P       24.6870   69.1010   51.1190 O.3   301  FMP301     -0.1145
      5  O5'       25.0370   66.5830   50.7660 O.3   301  FMP301     -0.2675
      6  C5'       25.9270   66.2880   51.8450 C.3   301  FMP301      0.1858
      7  C4'       25.6990   64.8620   52.3500 C.3   301  FMP301      0.1786
      8  O4'       26.5530   64.5050   53.4510 O.3   301  FMP301     -0.3447
      9  C3'       24.2850   64.6900   52.8990 C.3   301  FMP301      0.2143
     10  O3'       23.3730   64.5480   51.8070 O.3   301  FMP301     -0.2176
     11  C2'       24.5070   63.3370   53.5690 C.3   301  FMP301      0.2173
     12  O2'       24.7600   62.3380   52.5770 O.3   301  FMP301     -0.2173
     13  C1'       25.8010   63.6440   54.3280 C.3   301  FMP301      0.1910
     14  C9        25.5180   64.4210   55.6160 C.2   301  FMP301      0.1291
     15  N8        26.4350   65.0370   56.3560 N.2   301  FMP301     -0.1480
     16  N7        25.9040   65.5660   57.3380 N.2   301  FMP301     -0.1387
     17  C6        23.5450   65.7390   58.1780 C.2   301  FMP301      0.4334
     18  N6        23.7760   66.4740   59.2630 N.pl3 301  FMP301      0.2178
     19  C5        24.5890   65.3580   57.3440 C.2   301  FMP301      0.2111
     20  C4        24.2800   64.6160   56.2180 C.2   301  FMP301      0.1251
     21  N3        23.0140   64.2670   55.9610 N.2   301  FMP301     -0.2155
     22  C2        22.0490   64.6430   56.7870 C.3   301  FMP301      0.3922
     23  N1        22.2980   65.3730   57.8570 N.2   301  FMP301     -0.0278
@<TRIPOS>BOND
     1     2     1    2
     2     3     1    1
     3     1     5    1
     4     1     4    1
     5     5     6    1
     6    10     9    1
     7     6     7    1
     8     7     9    1
     9     7     8    1
    10    12    11    1
    11     9    11    1
    12     8    13    1
    13    11    13    1
    14    13    14    1
    15    14    20    1
    16    14    15    2
    17    21    20    2
    18    21    22    1
    19    20    19    1
    20    15    16    1
    21    22    23    1
    22    16    19    2
    23    19    17    1
    24    23    17    2
    25    17    18    1
