@<TRIPOS>MOLECULE
3rti_GAL_B_1.pdb
 11 11 0 0 0
SMALL
GASTEIGER

@<TRIPOS>ATOM
      1  C1        31.7210   41.4100   12.7010 C.3   264  GAL264      0.1777
      2  C2        31.3270   42.5610   13.6430 C.3   264  GAL264      0.2141
      3  C3        30.6910   42.0030   14.9120 C.3   264  GAL264      0.2173
      4  C4        29.5160   41.0890   14.5550 C.3   264  GAL264      0.2142
      5  C5        29.9940   39.9930   13.5940 C.3   264  GAL264      0.1810
      6  C6        28.8770   39.0710   13.1320 C.3   264  GAL264      0.2141
      7  O2        32.4740   43.3260   13.9870 O.3   264  GAL264     -0.2176
      8  O3        30.2460   43.0730   15.7240 O.3   264  GAL264     -0.2175
      9  O4        28.4850   41.8480   13.9440 O.3   264  GAL264     -0.2176
     10  O5        30.5750   40.5870   12.4110 O.3   264  GAL264     -0.3481
     11  O6        28.0990   39.6720   12.1090 O.3   264  GAL264     -0.2176
@<TRIPOS>BOND
     1    11     6    1
     2    10     1    1
     3    10     5    1
     4     1     2    1
     5     6     5    1
     6     5     4    1
     7     2     7    1
     8     2     3    1
     9     9     4    1
    10     4     3    1
    11     3     8    1
