@<TRIPOS>MOLECULE
3rtj_GAL_B_1.pdb
 11 11 0 0 0
SMALL
GASTEIGER

@<TRIPOS>ATOM
      1  C1        31.7280   41.4020   12.7500 C.3   264  GAL264      0.1777
      2  C2        31.2680   42.5510   13.6720 C.3   264  GAL264      0.2141
      3  C3        30.5090   42.0130   14.8830 C.3   264  GAL264      0.2173
      4  C4        29.3550   41.1140   14.4160 C.3   264  GAL264      0.2142
      5  C5        29.9170   39.9980   13.5210 C.3   264  GAL264      0.1810
      6  C6        28.8510   39.0510   12.9810 C.3   264  GAL264      0.2141
      7  O2        32.3890   43.3020   14.1130 O.3   264  GAL264     -0.2176
      8  O3        30.0090   43.1000   15.6470 O.3   264  GAL264     -0.2175
      9  O4        28.4030   41.8830   13.6910 O.3   264  GAL264     -0.2176
     10  O5        30.6090   40.5660   12.3820 O.3   264  GAL264     -0.3481
     11  O6        27.8610   39.7410   12.2340 O.3   264  GAL264     -0.2176
@<TRIPOS>BOND
     1    11     6    1
     2    10     1    1
     3    10     5    1
     4     1     2    1
     5     6     5    1
     6     5     4    1
     7     2     7    1
     8     2     3    1
     9     9     4    1
    10     4     3    1
    11     3     8    1
