@<TRIPOS>MOLECULE
3rtj_NUC_D_1.pdb
 42 47 0 0 0
SMALL
GASTEIGER

@<TRIPOS>ATOM
      1  O5'       23.7730   67.1160   51.8060 O.3   701  RA701      -0.2176
      2  C5'       23.9800   65.7430   51.4320 C.3   701  RA701       0.2142
      3  C4'       25.0160   65.0590   52.3050 C.3   701  RA701       0.1822
      4  O4'       24.9970   65.5650   53.6550 O.3   701  RA701      -0.3135
      5  C3'       24.9490   63.5340   52.4090 C.3   701  RA701       0.1885
      6  O3'       25.8740   62.9870   51.4460 O.3   701  RA701      -0.3111
      7  C2'       25.3120   63.1870   53.8690 C.3   701  RA701       0.2541
      8  O2'       26.4650   62.3880   54.0270 O.3   701  RA701      -0.2131
      9  C1'       25.5200   64.5690   54.5060 C.3   701  RA701       0.3185
     10  N9        25.1670   64.8810   55.8910 N.pl3 701  RA701      -0.1439
     11  C8        26.0650   65.3440   56.8190 C.3   701  RA701       0.3377
     12  N7        25.5200   65.7070   57.9450 N.2   701  RA701      -0.2095
     13  C5        24.1750   65.4340   57.7630 C.2   701  RA701       0.2526
     14  C6        23.0750   65.6340   58.5810 C.2   701  RA701       0.4393
     15  N6        23.1530   66.2130   59.7800 N.pl3 701  RA701       0.2180
     16  N1        21.8690   65.2350   58.1220 N.2   701  RA701       0.0021
     17  C2        21.7970   64.6900   56.9070 C.3   701  RA701       0.5254
     18  N3        22.7660   64.4710   56.0280 N.2   701  RA701      -0.0055
     19  C4        23.9480   64.8770   56.5210 C.2   701  RA701       0.3518
     20  P         27.4730   63.3620   51.5200 P.3   702  RG702       0.2141
     21  OP1       28.0920   62.8800   50.2480 O.2   702  RG702      -0.5172
     22  OP2       28.0720   62.9340   52.8260 O.3   702  RG702      -0.4373
     23  O5'       27.5280   64.9660   51.4980 O.3   702  RG702      -0.3114
     24  C5'       28.6410   65.6900   50.9260 C.3   702  RG702       0.1813
     25  C4'       29.7470   65.8790   51.9580 C.3   702  RG702       0.1799
     26  O4'       30.6940   66.8970   51.5060 O.3   702  RG702      -0.3326
     27  C3'       29.3150   66.3980   53.3270 C.3   702  RG702       0.2158
     28  O3'       28.6930   65.4150   54.1880 O.3   702  RG702      -0.2175
     29  C2'       30.6230   66.9380   53.8920 C.3   702  RG702       0.2310
     30  O2'       31.4480   65.9250   54.4370 O.3   702  RG702      -0.2158
     31  C1'       31.2460   67.5660   52.6420 C.3   702  RG702       0.2293
     32  N9        30.9760   69.0020   52.5430 N.pl3 702  RG702      -0.2354
     33  C8        31.6770   70.0140   53.1700 C.3   702  RG702       0.2246
     34  N7        31.1820   71.2030   52.9440 N.2   702  RG702      -0.2322
     35  C5        30.0920   70.9720   52.1050 C.2   702  RG702       0.2182
     36  C6        29.1550   71.8930   51.5150 C.1   702  RG702       0.2372
     37  O6        29.0980   73.1340   51.6360 O.2   702  RG702      -0.2069
     38  N1        28.2160   71.2290   50.7210 N.2   702  RG702      -0.2485
     39  C2        28.1700   69.8610   50.5180 C.1   702  RG702       0.2531
     40  N2        27.1860   69.4070   49.7130 N.pl3 702  RG702      -0.0226
     41  N3        29.0280   69.0000   51.0640 N.2   702  RG702      -0.3074
     42  C4        29.9550   69.6200   51.8390 C.2   702  RG702       0.2300
@<TRIPOS>BOND
     1    40    39    1
     2    21    20    2
     3    39    38    2
     4    39    41    2
     5    38    36    2
     6    24    23    1
     7    24    25    1
     8    41    42    2
     9     2     1    1
    10     2     3    1
    11     6    20    1
    12     6     5    1
    13    23    20    1
    14    26    25    1
    15    26    31    1
    16    36    37    2
    17    36    35    1
    18    20    22    1
    19    42    35    1
    20    42    32    1
    21    25    27    1
    22    35    34    2
    23     3     5    1
    24     3     4    1
    25     5     7    1
    26    32    31    1
    27    32    33    1
    28    31    29    1
    29    34    33    1
    30    27    29    1
    31    27    28    1
    32     4     9    1
    33     7     8    1
    34     7     9    1
    35    29    30    1
    36     9    10    1
    37    10    19    1
    38    10    11    1
    39    18    19    2
    40    18    17    1
    41    19    13    1
    42    11    12    1
    43    17    16    1
    44    13    12    2
    45    13    14    1
    46    16    14    2
    47    14    15    1
