@<TRIPOS>MOLECULE
3rtm_RTM_A_1.pdb
 23 25 0 0 0
SMALL
GASTEIGER

@<TRIPOS>ATOM
      1  N1        67.2290   50.0380    7.4130 N.2   395  RTM395     -0.3881
      2  N3        70.2560   46.5410    8.2130 N.am  395  RTM395     -0.2794
      3  C4        68.1130   49.8320   10.9440 C.ar  395  RTM395      0.0022
      4  C5        67.7430   49.4420    9.6500 C.ar  395  RTM395      0.0258
      5  C6        67.5850   50.4050    8.6490 C.ar  395  RTM395      0.1324
      6  C7        67.0030   48.7500    7.0910 C.2   395  RTM395      0.2001
      7  C8        67.1430   47.7100    8.0530 C.3   395  RTM395      0.0925
      8  C10       66.9080   46.1720    7.8280 C.3   395  RTM395      0.0225
      9  C13       70.3640   45.7820    9.4850 C.3   395  RTM395      0.1148
     10  C15       71.1300   48.7910    8.8520 C.3   395  RTM395      0.0198
     11  C17       72.4840   50.0120    7.0390 C.3   395  RTM395      0.0001
     12  C16       71.3550   50.1140    8.1030 C.3   395  RTM395      0.0017
     13  C18       72.6270   48.6580    6.2850 C.3   395  RTM395      0.0017
     14  C19       72.4290   47.4350    7.1920 C.3   395  RTM395      0.0198
     15  C14       71.0660   47.6920    7.7870 C.3   395  RTM395      0.0754
     16  C12       69.2630   46.2750    7.3670 C.2   395  RTM395      0.2256
     17  O1        69.1000   46.9130    6.3200 O.2   395  RTM395     -0.2749
     18  C11       68.1970   45.3010    7.7860 C.3   395  RTM395      0.0861
     19  C9        67.5210   48.1000    9.3470 C.2   395  RTM395     -0.0154
     20  C1        68.3300   51.1910   11.2220 C.ar  395  RTM395      0.0002
     21  C2        68.1740   52.1510   10.2210 C.ar  395  RTM395      0.0026
     22  C3        67.8070   51.7450    8.9400 C.ar  395  RTM395      0.0321
     23  N2        66.6510   48.5160    5.8250 N.pl3 395  RTM395     -0.0977
@<TRIPOS>BOND
     1    23     6    1
     2    13    11    1
     3    13    14    1
     4    17    16    2
     5    11    12    1
     6     6     1    2
     7     6     7    1
     8    14    15    1
     9    16    18    1
    10    16     2   am
    11     1     5    2
    12    18     8    1
    13    15     2    1
    14    15    10    1
    15     8     7    1
    16     7    19    1
    17    12    10    1
    18     2     9    1
    19     5    22   ar
    20     5     4   ar
    21    22    21   ar
    22    19     4    2
    23     4     3   ar
    24    21    20   ar
    25     3    20   ar
