@<TRIPOS>MOLECULE
3rtn_RTN_A_1.pdb
 29 32 0 0 0
SMALL
GASTEIGER

@<TRIPOS>ATOM
      1  C4        68.2660   49.4580    8.9700 C.ar  401  RTN401      0.1324
      2  C5        68.3570   48.3380    9.8160 C.ar  401  RTN401      0.0258
      3  C6        69.1840   48.3990   10.9570 C.ar  401  RTN401      0.0022
      4  C8        66.7800   48.3550    7.5360 C.2   401  RTN401      0.2001
      5  C10       67.6320   47.1810    9.4810 C.2   401  RTN401     -0.0154
      6  C13       71.0530   50.8320   14.4590 C.ar  401  RTN401     -0.0000
      7  C15       72.6270   49.1450   13.7630 C.ar  401  RTN401     -0.0043
      8  C17       72.4430   47.8850   11.6280 C.3   401  RTN401      0.0310
      9  C20       64.4060   46.8170    9.7580 C.2   401  RTN401      0.2413
     10  C22       64.3080   49.2000   10.6720 C.3   401  RTN401      0.0953
     11  C24       63.1430   51.0900   11.5940 C.3   401  RTN401      0.0018
     12  C26       65.3170   50.2600   12.7070 C.3   401  RTN401      0.0018
     13  C23       62.9310   49.6690   11.0700 C.3   401  RTN401      0.0217
     14  C25       64.0640   51.1210   12.8400 C.3   401  RTN401      0.0001
     15  C27       65.0620   48.9120   11.9700 C.3   401  RTN401      0.0217
     16  N21       64.3560   48.1400    9.6230 N.am  401  RTN401     -0.2072
     17  O29       64.3060   46.2170   10.8170 O.2   401  RTN401     -0.2733
     18  C19       64.5660   46.0460    8.4450 C.3   401  RTN401      0.0876
     19  C18       66.0270   45.9090    7.9980 C.3   401  RTN401      0.0225
     20  C9        66.8270   47.1830    8.3220 C.3   401  RTN401      0.0925
     21  N7        67.4950   49.4310    7.8780 N.2   401  RTN401     -0.3881
     22  N28       66.0450   48.4420    6.4240 N.pl3 401  RTN401     -0.0977
     23  C3        68.9670   50.6220    9.2550 C.ar  401  RTN401      0.0321
     24  C2        69.7770   50.6690   10.3830 C.ar  401  RTN401      0.0026
     25  C1        69.9090   49.5660   11.2300 C.ar  401  RTN401     -0.0001
     26  C11       70.7220   49.6940   12.3560 C.ar  401  RTN401     -0.0040
     27  C12       70.3150   50.6400   13.2970 C.ar  401  RTN401     -0.0003
     28  C14       72.2070   50.0900   14.6820 C.ar  401  RTN401     -0.0003
     29  C16       71.8940   48.9500   12.5950 C.ar  401  RTN401     -0.0218
@<TRIPOS>BOND
     1    22     4    1
     2     4    21    2
     3     4    20    1
     4    21     1    2
     5    19    20    1
     6    19    18    1
     7    20     5    1
     8    18     9    1
     9     1    23   ar
    10     1     2   ar
    11    23    24   ar
    12     5     2    2
    13    16     9   am
    14    16    10    1
    15     9    17    2
    16     2     3   ar
    17    24    25   ar
    18    10    13    1
    19    10    15    1
    20     3    25   ar
    21    13    11    1
    22    25    26    1
    23    11    14    1
    24     8    29    1
    25    15    12    1
    26    26    29   ar
    27    26    27   ar
    28    29     7   ar
    29    12    14    1
    30    27     6   ar
    31     7    28   ar
    32     6    28   ar
