@<TRIPOS>MOLECULE
3rtq_FUL_A_1.pdb
 10 10 0 0 0
SMALL
GASTEIGER

@<TRIPOS>ATOM
      1  C1        24.7010   10.3350   -9.8000 C.3   292  FUL292      0.1776
      2  C2        25.7900    9.2670   -9.9290 C.3   292  FUL292      0.2141
      3  O2        25.2110    7.9880  -10.0720 O.3   292  FUL292     -0.2176
      4  C3        26.6700    9.5960  -11.1410 C.3   292  FUL292      0.2172
      5  O3        27.7610    8.7020  -11.2250 O.3   292  FUL292     -0.2175
      6  C4        27.1740   11.0420  -11.0900 C.3   292  FUL292      0.2116
      7  O4        28.1860   11.1660  -10.1090 O.3   292  FUL292     -0.2177
      8  C5        26.0220   12.0130  -10.7960 C.3   292  FUL292      0.1483
      9  C6        26.5060   13.4470  -10.6020 C.3   292  FUL292      0.0349
     10  O5        25.3130   11.6010   -9.6400 O.3   292  FUL292     -0.3508
@<TRIPOS>BOND
     1     5     4    1
     2     4     6    1
     3     4     2    1
     4     6     8    1
     5     6     7    1
     6     8     9    1
     7     8    10    1
     8     3     2    1
     9     2     1    1
    10     1    10    1
