@<TRIPOS>MOLECULE
3rts_KLG_A_1.pdb
 17 17 0 0 0
SMALL
GASTEIGER

@<TRIPOS>ATOM
      1  O3         2.7750   -2.6060    3.8310 O.2     0  KLG0       -0.5380
      2  C10        1.6380   -2.6540    4.2900 C.2     0  KLG0        0.1064
      3  N1         1.2640   -2.0380    5.4060 N.am    0  KLG0       -0.2014
      4  O4         2.1930   -1.2600    6.0740 O.3     0  KLG0       -0.4026
      5  C9         0.5750   -3.4740    3.6340 C.3     0  KLG0        0.1658
      6  N2         0.9860   -4.8570    3.5250 N.3     0  KLG0       -0.0751
      7  S1         1.4700   -5.8850    4.6770 S.O2    0  KLG0        0.0580
      8  O1         0.8880   -7.1380    4.6440 O.2     0  KLG0       -0.1561
      9  O2         0.4000   -5.4900    5.5550 O.2     0  KLG0       -0.1561
     10  C8         2.5660   -5.3750    5.8380 C.3     0  KLG0        0.1752
     11  C7         2.7360   -6.3550    7.0060 C.3     0  KLG0        0.0534
     12  C6         4.1300   -6.4100    7.5870 C.ar    0  KLG0       -0.0204
     13  C3         5.2550   -6.3210    6.7680 C.ar    0  KLG0       -0.0042
     14  C1         6.5140   -6.4210    7.3350 C.ar    0  KLG0       -0.0003
     15  C5         4.2730   -6.6200    8.9670 C.ar    0  KLG0       -0.0042
     16  C4         5.5350   -6.7100    9.5430 C.ar    0  KLG0       -0.0003
     17  C2         6.6540   -6.6130    8.7190 C.ar    0  KLG0       -0.0000
@<TRIPOS>BOND
     1     6     5    1
     2     6     7    1
     3     5     2    1
     4     1     2    2
     5     2     3   am
     6     8     7    2
     7     7     9    2
     8     7    10    1
     9     3     4    1
    10    10    11    1
    11    13    14   ar
    12    13    12   ar
    13    11    12    1
    14    14    17   ar
    15    12    15   ar
    16    17    16   ar
    17    15    16   ar
