@<TRIPOS>MOLECULE
3rtt_KLH_A_1.pdb
 20 21 0 0 0
SMALL
GASTEIGER

@<TRIPOS>ATOM
      1  O4        -2.9450   -2.6550   -3.9010 O.2     0  KLH0       -0.5381
      2  C13       -1.7770   -2.7250   -4.2620 C.2     0  KLH0        0.1029
      3  N1        -1.2820   -2.0810   -5.3100 N.am    0  KLH0       -0.2016
      4  O2        -2.0420   -1.1410   -5.9570 O.3     0  KLH0       -0.4026
      5  C1        -0.7900   -3.6060   -3.5750 C.3     0  KLH0        0.1240
      6  N2        -1.2560   -4.9970   -3.6050 N.3     0  KLH0       -0.1548
      7  C4        -1.8880   -5.4110   -2.3750 C.3     0  KLH0        0.0959
      8  C6        -1.3570   -4.3870   -1.3760 C.3     0  KLH0        0.0210
      9  C3        -0.6230   -3.2520   -2.0930 C.3     0  KLH0        0.0257
     10  S1        -1.0050   -5.9160   -4.8200 S.O2    0  KLH0        0.0444
     11  O1        -0.0880   -5.2530   -5.7090 O.2     0  KLH0       -0.1573
     12  O3        -0.4220   -7.1020   -4.2640 O.2     0  KLH0       -0.1573
     13  C7        -2.3020   -6.4110   -5.7230 C.3     0  KLH0        0.1738
     14  C8        -3.5160   -5.5200   -5.6930 C.3     0  KLH0        0.0534
     15  C9        -4.3000   -5.9840   -6.8840 C.ar    0  KLH0       -0.0204
     16  C10       -5.6940   -6.0810   -6.8370 C.ar    0  KLH0       -0.0042
     17  C2        -6.4000   -6.4990   -7.9750 C.ar    0  KLH0       -0.0003
     18  C11       -3.5970   -6.3220   -8.0350 C.ar    0  KLH0       -0.0042
     19  C12       -4.3010   -6.7360   -9.1700 C.ar    0  KLH0       -0.0003
     20  C5        -5.7060   -6.8310   -9.1370 C.ar    0  KLH0       -0.0000
@<TRIPOS>BOND
     1    19    20   ar
     2    19    18   ar
     3    20    17   ar
     4    18    15   ar
     5    17    16   ar
     6    15    16   ar
     7    15    14    1
     8     4     3    1
     9    13    14    1
    10    13    10    1
    11    11    10    2
    12     3     2   am
    13    10    12    2
    14    10     6    1
    15     2     1    2
    16     2     5    1
    17     6     5    1
    18     6     7    1
    19     5     9    1
    20     7     8    1
    21     9     8    1
