@<TRIPOS>MOLECULE
3rtv_DCP_A_1.pdb
 28 29 0 0 0
SMALL
GASTEIGER

@<TRIPOS>ATOM
      1  N1        19.1190  -19.4540   -7.3520 N.am    1  DCP1       -0.1802
      2  C2        18.8480  -19.8020   -6.0220 C.1     1  DCP1        0.2756
      3  N3        19.0350  -18.8730   -4.9700 N.2     1  DCP1       -0.3024
      4  C4        19.4850  -17.6170   -5.2640 C.2     1  DCP1        0.2346
      5  C5        19.7740  -17.2090   -6.6120 C.2     1  DCP1        0.0687
      6  C6        19.5760  -18.1510   -7.6440 C.2     1  DCP1        0.0835
      7  O2        18.4140  -21.0560   -5.7260 O.2     1  DCP1       -0.1925
      8  N4        19.6700  -16.6920   -4.1810 N.pl3   1  DCP1       -0.0921
      9  C1'       18.8850  -20.4460   -8.4150 C.3     1  DCP1        0.2090
     10  C2'       17.4380  -20.3340   -8.8650 C.3     1  DCP1        0.0874
     11  C3'       17.6410  -19.3630  -10.0050 C.3     1  DCP1        0.1857
     12  C4'       18.8990  -19.8960  -10.6240 C.3     1  DCP1        0.1773
     13  O4'       19.6980  -20.2350   -9.5320 O.3     1  DCP1       -0.3339
     14  O3'       16.5350  -19.2990  -10.8780 O.3     1  DCP1       -0.2203
     15  C5'       19.5510  -18.9050  -11.5620 C.3     1  DCP1        0.1812
     16  O5'       19.9840  -17.7810  -10.8630 O.3     1  DCP1       -0.3112
     17  PA        19.7080  -16.3380  -11.4410 P.3     1  DCP1        0.2189
     18  O1A       20.1180  -16.1970  -12.8710 O.2     1  DCP1       -0.5170
     19  O2A       20.4740  -15.2880  -10.7180 O.3     1  DCP1       -0.4371
     20  O3A       18.2020  -16.0090  -11.1770 O.3     1  DCP1       -0.2700
     21  PB        17.0020  -16.0920  -12.1540 P.3     1  DCP1        0.2277
     22  O1B       15.8450  -16.7160  -11.4080 O.3     1  DCP1       -0.4368
     23  O2B       17.1900  -16.9980  -13.3160 O.2     1  DCP1       -0.5168
     24  O3B       16.5640  -14.6290  -12.4720 O.3     1  DCP1       -0.2258
     25  PG        17.1140  -13.7590  -13.6680 P.3     1  DCP1        0.5373
     26  O1G       15.9870  -13.3970  -14.5610 O.2     1  DCP1       -0.2221
     27  O2G       18.1920  -14.3890  -14.4910 O.3     1  DCP1       -0.1143
     28  O3G       17.7180  -12.4750  -13.1890 O.3     1  DCP1       -0.1143
@<TRIPOS>BOND
     1    26    25    2
     2    27    25    1
     3    25    28    1
     4    25    24    1
     5    23    21    2
     6    18    17    2
     7    24    21    1
     8    21    22    1
     9    21    20    1
    10    15    16    1
    11    15    12    1
    12    17    20    1
    13    17    16    1
    14    17    19    1
    15    14    11    1
    16    12    11    1
    17    12    13    1
    18    11    10    1
    19    13     9    1
    20    10     9    1
    21     9     1    1
    22     6     1    1
    23     6     5    2
    24     1     2   am
    25     5     4    1
    26     2     7    2
    27     2     3    2
    28     4     3    2
    29     4     8    1
