@<TRIPOS>MOLECULE
3rtw_NWD_B_1.pdb
 17 17 0 0 0
SMALL
GASTEIGER

@<TRIPOS>ATOM
      1  N1        18.5300  -20.9450  -26.7620 N.am  601  NWD601     -0.1996
      2  O1        15.9910  -21.6070  -30.0940 O.2   601  NWD601     -0.1253
      3  C2        17.9890  -20.9500  -25.4680 C.1   601  NWD601      0.2827
      4  N2        15.5130  -21.0330  -28.9170 N.pl3 601  NWD601      0.0713
      5  O2        18.8210  -20.9420  -24.3430 O.2   601  NWD601     -0.1919
      6  N3        16.5820  -20.9910  -25.2800 N.2   601  NWD601     -0.2436
      7  O3        14.3510  -20.2700  -28.9280 O.2   601  NWD601     -0.1253
      8  C4        15.7660  -21.0310  -26.3920 C.1   601  NWD601      0.2403
      9  O4        14.3390  -21.0530  -26.2460 O.2   601  NWD601     -0.2068
     10  C5        16.3390  -21.0230  -27.7450 C.2   601  NWD601      0.2526
     11  C6        17.6880  -20.9770  -27.9340 C.2   601  NWD601      0.1142
     12  C7        19.9810  -20.8070  -26.9880 C.3   601  NWD601      0.1396
     13  C8        20.5130  -19.3470  -26.7010 C.3   601  NWD601      0.2151
     14  N8        20.0790  -18.2660  -27.6070 N.3   601  NWD601     -0.1189
     15  C9        22.0250  -19.4280  -26.4600 C.2   601  NWD601      0.3836
     16  O91       22.7090  -18.5110  -26.7510 O.co2 601  NWD601     -0.2440
     17  O92       22.4230  -20.3590  -25.4420 O.co2 601  NWD601     -0.2440
@<TRIPOS>BOND
     1     2     4    2
     2     7     4    2
     3     4    10    1
     4    11    10    2
     5    11     1    1
     6    10     8    1
     7    14    13    1
     8    12     1    1
     9    12    13    1
    10     1     3   am
    11    16    15   ar
    12    13    15    1
    13    15    17   ar
    14     8     9    2
    15     8     6    2
    16     3     6    2
    17     3     5    2
