@<TRIPOS>MOLECULE
3ru0_SFG_A_1.pdb
 27 29 0 0 0
SMALL
GASTEIGER

@<TRIPOS>ATOM
      1  N         -9.6590   18.0490   27.9550 N.3   437  SFG437     -0.1208
      2  CA        -8.8260   18.9460   28.8060 C.3   437  SFG437      0.1944
      3  C         -8.9520   20.4700   28.5520 C.2   437  SFG437      0.3819
      4  O         -8.1700   21.2760   29.0710 O.co2 437  SFG437     -0.2441
      5  OXT       -9.8430   20.8990   27.8200 O.co2 437  SFG437     -0.2441
      6  CB        -7.3580   18.4150   28.7060 C.3   437  SFG437      0.0321
      7  CG        -6.9650   17.3330   29.7440 C.3   437  SFG437      0.0212
      8  CD        -7.0570   17.7090   31.2720 C.3   437  SFG437      0.0944
      9  NE        -5.6970   17.6050   31.8910 N.3   437  SFG437     -0.1328
     10  C5'       -7.9690   16.8530   32.1860 C.3   437  SFG437      0.0514
     11  C4'       -9.4870   16.7800   31.8750 C.3   437  SFG437      0.1537
     12  O4'       -9.8080   16.4290   30.5050 O.3   437  SFG437     -0.3161
     13  C3'      -10.2180   15.7080   32.6700 C.3   437  SFG437      0.2159
     14  O3'      -10.4520   16.1100   34.0000 O.3   437  SFG437     -0.2175
     15  C2'      -11.5200   15.5970   31.9090 C.3   437  SFG437      0.2569
     16  O2'      -12.2940   16.7840   32.1380 O.3   437  SFG437     -0.2130
     17  C1'      -10.9750   15.5910   30.4840 C.3   437  SFG437      0.3185
     18  N9       -10.6130   14.2660   29.9610 N.pl3 437  SFG437     -0.1439
     19  C8        -9.3390   13.7440   29.8580 C.3   437  SFG437      0.3377
     20  N7        -9.3430   12.5530   29.3460 N.2   437  SFG437     -0.2095
     21  C5       -10.6890   12.2790   29.0800 C.2   437  SFG437      0.2526
     22  C6       -11.3700   11.1600   28.5330 C.2   437  SFG437      0.4393
     23  N6       -10.7570   10.0260   28.0750 N.pl3 437  SFG437      0.2180
     24  N1       -12.7300   11.2130   28.4040 N.2   437  SFG437      0.0021
     25  C2       -13.3470   12.3270   28.8350 C.3   437  SFG437      0.5254
     26  N3       -12.8170   13.4420   29.3670 N.2   437  SFG437     -0.0055
     27  C4       -11.4750   13.3380   29.4660 C.2   437  SFG437      0.3518
@<TRIPOS>BOND
     1     5     3   ar
     2     1     2    1
     3    23    22    1
     4    24    22    2
     5    24    25    1
     6    22    21    1
     7     3     2    1
     8     3     4   ar
     9     6     2    1
    10     6     7    1
    11    25    26    1
    12    21    20    2
    13    21    27    1
    14    20    19    1
    15    26    27    2
    16    27    18    1
    17     7     8    1
    18    19    18    1
    19    18    17    1
    20    17    12    1
    21    17    15    1
    22    12    11    1
    23     8     9    1
    24     8    10    1
    25    11    10    1
    26    11    13    1
    27    15    16    1
    28    15    13    1
    29    13    14    1
