@<TRIPOS>MOLECULE
3ru1_3RU_A_1.pdb
 23 25 0 0 0
SMALL
GASTEIGER

@<TRIPOS>ATOM
      1  C4        68.3050   49.1390   11.2690 C.2   398  3RU398      0.0019
      2  C5        67.6540   48.9940   10.0480 C.2   398  3RU398      0.0256
      3  C6        67.8870   49.9060    9.0280 C.2   398  3RU398      0.1150
      4  C8        66.4110   48.7670    7.6130 C.2   398  3RU398      0.2148
      5  C10       66.7700   47.9430    9.8380 C.2   398  3RU398      0.0019
      6  C13       63.7440   47.1920    8.3830 C.3   398  3RU398      0.0916
      7  C17       62.4030   49.1250   11.3750 C.3   398  3RU398      0.1151
      8  C20       65.1770   51.0190   13.2230 C.3   398  3RU398      0.0001
      9  C21       65.4010   52.1570   12.2260 C.3   398  3RU398      0.0000
     10  C22       64.0930   52.5830   11.5690 C.3   398  3RU398      0.0001
     11  C19       64.4670   49.8440   12.5550 C.3   398  3RU398      0.0018
     12  C23       63.3630   51.3880   10.9430 C.3   398  3RU398      0.0018
     13  C18       63.1270   50.3110   11.9940 C.3   398  3RU398      0.0217
     14  N15       62.9330   48.7670   10.0520 N.am  398  3RU398     -0.2054
     15  C14       63.2410   47.5020    9.7970 C.2   398  3RU398      0.2417
     16  O16       63.1320   46.6100   10.6320 O.2   398  3RU398     -0.2733
     17  C12       65.1740   46.6560    8.4160 C.3   398  3RU398      0.0400
     18  C9        66.1380   47.8210    8.6040 C.2   398  3RU398      0.0253
     19  C1        69.1870   50.1960   11.4650 C.2   398  3RU398     -0.0041
     20  C2        69.4240   51.1100   10.4480 C.2   398  3RU398     -0.0187
     21  C3        68.7700   50.9600    9.2310 C.3   398  3RU398      0.0850
     22  N7        67.2690   49.7720    7.8460 N.2   398  3RU398     -0.3882
     23  N11       65.8220   48.6700    6.4180 N.pl3 398  3RU398     -0.0935
@<TRIPOS>BOND
     1    23     4    1
     2     4    22    2
     3     4    18    1
     4    22     3    2
     5     6    17    1
     6     6    15    1
     7    17    18    1
     8    18     5    2
     9     3    21    1
    10     3     2    1
    11    21    20    1
    12    15    14   am
    13    15    16    2
    14     5     2    1
    15     2     1    2
    16    14     7    1
    17    20    19    2
    18    12    10    1
    19    12    13    1
    20     1    19    1
    21     7    13    1
    22    10     9    1
    23    13    11    1
    24     9     8    1
    25    11     8    1
