@<TRIPOS>MOLECULE
3ru2_NDP_A_1.pdb
 40 43 0 0 0
SMALL
GASTEIGER

@<TRIPOS>ATOM
      1  PA        51.6530  -11.8700  -15.6260 P.3   492  NDP492      0.2189
      2  O1A       50.3760  -11.5310  -16.2960 O.2   492  NDP492     -0.5170
      3  O2A       51.6270  -12.1960  -14.1570 O.3   492  NDP492     -0.4371
      4  O5B       52.1010  -13.1760  -16.4030 O.3   492  NDP492     -0.3112
      5  C5B       53.4630  -13.5120  -16.4310 C.3   492  NDP492      0.1813
      6  C4B       53.6180  -14.9440  -15.9420 C.3   492  NDP492      0.1820
      7  O4B       53.0220  -15.9130  -16.8160 O.3   492  NDP492     -0.3136
      8  C3B       55.0890  -15.3100  -15.8980 C.3   492  NDP492      0.2157
      9  O3B       55.2590  -16.1880  -14.7910 O.3   492  NDP492     -0.2175
     10  C2B       55.2810  -15.9580  -17.2820 C.3   492  NDP492      0.2314
     11  O2B       56.2950  -16.9250  -17.3320 O.3   492  NDP492     -0.2630
     12  C1B       53.9930  -16.7390  -17.4370 C.3   492  NDP492      0.3158
     13  N9A       53.4460  -17.0320  -18.7840 N.pl3 492  NDP492     -0.1439
     14  C8A       53.0390  -16.1070  -19.7290 C.3   492  NDP492      0.3377
     15  N7A       52.4610  -16.7900  -20.7440 N.2   492  NDP492     -0.2095
     16  C5A       52.4750  -18.1090  -20.4710 C.2   492  NDP492      0.2526
     17  C6A       52.0290  -19.2160  -21.1870 C.2   492  NDP492      0.4393
     18  N6A       51.4450  -19.0800  -22.3850 N.pl3 492  NDP492      0.2180
     19  N1A       52.1880  -20.4500  -20.6160 N.2   492  NDP492      0.0021
     20  C2A       52.7480  -20.6040  -19.3540 C.3   492  NDP492      0.5254
     21  N3A       53.1900  -19.4980  -18.6590 N.2   492  NDP492     -0.0055
     22  C4A       53.0840  -18.2790  -19.2240 C.2   492  NDP492      0.3518
     23  O3        52.7040  -10.7450  -16.0610 O.3   492  NDP492     -0.2703
     24  PN        53.4000   -9.5770  -15.2420 P.3   492  NDP492      0.2189
     25  O1N       54.3010  -10.1350  -14.2440 O.3   492  NDP492     -0.4371
     26  O2N       53.7060   -8.7360  -16.4220 O.2   492  NDP492     -0.5170
     27  O5D       52.2170   -8.9160  -14.3650 O.3   492  NDP492     -0.3112
     28  C5D       51.1680   -8.1390  -14.9720 C.3   492  NDP492      0.1813
     29  C4D       50.0120   -8.1340  -13.9870 C.3   492  NDP492      0.1797
     30  O4D       50.4300   -7.5240  -12.7400 O.3   492  NDP492     -0.3336
     31  C3D       48.7430   -7.3910  -14.4550 C.3   492  NDP492      0.2156
     32  O3D       47.8300   -8.2760  -15.0850 O.3   492  NDP492     -0.2176
     33  C2D       48.2120   -6.9240  -13.1030 C.3   492  NDP492      0.2298
     34  O2D       47.6060   -8.0450  -12.4520 O.3   492  NDP492     -0.2160
     35  C1D       49.4850   -6.5200  -12.3430 C.3   492  NDP492      0.2397
     36  N1N       49.9410   -5.1730  -12.7150 N.3   492  NDP492     -0.0972
     37  P2B       57.7150  -16.5960  -18.0060 P.3   492  NDP492      0.5328
     38  O1X       58.3140  -17.9560  -17.9230 O.3   492  NDP492     -0.1145
     39  O2X       58.4310  -15.5550  -17.1670 O.3   492  NDP492     -0.1145
     40  O3X       57.5170  -16.1120  -19.4130 O.2   492  NDP492     -0.2224
@<TRIPOS>BOND
     1    18    17    1
     2    17    19    2
     3    17    16    1
     4    15    16    2
     5    15    14    1
     6    19    20    1
     7    16    22    1
     8    14    13    1
     9    40    37    2
    10    20    21    1
    11    22    13    1
    12    22    21    2
    13    13    12    1
    14    37    38    1
    15    37    11    1
    16    37    39    1
    17    12    10    1
    18    12     7    1
    19    11    10    1
    20    10     8    1
    21     7     6    1
    22     5     4    1
    23     5     6    1
    24    26    24    2
    25     4     1    1
    26     2     1    2
    27    23     1    1
    28    23    24    1
    29     6     8    1
    30     8     9    1
    31     1     3    1
    32    24    27    1
    33    24    25    1
    34    32    31    1
    35    28    27    1
    36    28    29    1
    37    31    29    1
    38    31    33    1
    39    29    30    1
    40    33    34    1
    41    33    35    1
    42    30    35    1
    43    36    35    1
