@<TRIPOS>MOLECULE
3ru2_NPW_A_1.pdb
 49 53 0 0 0
SMALL
GASTEIGER

@<TRIPOS>ATOM
      1  P         26.3780  -15.2090  -46.1000 P.3   493  NPW493      0.5328
      2  O1        25.5500  -15.2520  -44.8790 O.3   493  NPW493     -0.1145
      3  O2        27.6240  -15.9840  -45.9890 O.3   493  NPW493     -0.1145
      4  O3        25.6220  -15.3970  -47.3510 O.2   493  NPW493     -0.2224
      5  PA        25.7160   -7.9830  -48.0940 P.3   493  NPW493      0.2189
      6  PB        23.3520   -8.0070  -46.5530 P.3   493  NPW493      0.2189
      7  C1A       27.4530  -12.0080  -44.9560 C.3   493  NPW493      0.3158
      8  C1B       19.3070   -4.9290  -47.6570 C.3   493  NPW493      0.2278
      9  N1C       18.4430   -5.2180  -46.5460 N.pl3 493  NPW493     -0.2585
     10  N1D       28.4510  -10.2050  -40.2930 N.2   493  NPW493      0.0021
     11  C2A       26.3920  -12.5590  -45.8510 C.3   493  NPW493      0.2314
     12  O2A       26.9700  -13.7510  -46.2850 O.3   493  NPW493     -0.2630
     13  C2B       20.5130   -4.1950  -47.1400 C.3   493  NPW493      0.2310
     14  O2B       20.3410   -2.8230  -46.9100 O.3   493  NPW493     -0.2158
     15  C2C       17.2610   -5.0470  -46.6840 C.2   493  NPW493      0.0652
     16  C2D       29.2270  -10.8980  -41.1090 C.3   493  NPW493      0.5254
     17  C3A       26.3040  -11.5460  -46.9590 C.3   493  NPW493      0.2157
     18  O3A       26.0050  -12.0720  -48.2300 O.3   493  NPW493     -0.2175
     19  C3B       21.5070   -4.4670  -48.2320 C.3   493  NPW493      0.2158
     20  O3B       21.3880   -3.5220  -49.2500 O.3   493  NPW493     -0.2175
     21  C3C       16.3450   -5.2330  -45.8490 C.2   493  NPW493      0.0492
     22  N3D       28.8800  -11.3310  -42.2940 N.2   493  NPW493     -0.0055
     23  C4B       21.1180   -5.7880  -48.8090 C.3   493  NPW493      0.1799
     24  O4B       19.8980   -6.0790  -48.1890 O.3   493  NPW493     -0.3326
     25  C4C       16.6710   -5.8690  -44.5290 C.3   493  NPW493      0.0368
     26  C4D       27.6600  -11.0620  -42.7030 C.2   493  NPW493      0.3518
     27  O4D       28.0800  -10.9770  -45.6640 O.3   493  NPW493     -0.3136
     28  C4E       27.6730  -10.9390  -46.9900 C.3   493  NPW493      0.1820
     29  C5A       26.7120  -10.3080  -41.8930 C.2   493  NPW493      0.2526
     30  C5B       22.1960   -6.8450  -48.5850 C.3   493  NPW493      0.1813
     31  O5B       22.7380   -6.8080  -47.2820 O.3   493  NPW493     -0.3112
     32  C5C       18.0280   -6.5460  -44.6000 C.3   493  NPW493      0.0591
     33  C5E       27.7180   -9.5430  -47.5640 C.3   493  NPW493      0.1813
     34  O5E       26.5810   -8.8360  -47.1700 O.3   493  NPW493     -0.3112
     35  C6C       19.0430   -5.7140  -45.3330 C.3   493  NPW493      0.2302
     36  O6C       19.4520   -4.6510  -44.5210 O.3   493  NPW493     -0.2006
     37  C6D       27.2140   -9.8770  -40.6010 C.2   493  NPW493      0.4393
     38  N6D       26.4500   -9.1880  -39.7740 N.pl3 493  NPW493      0.2180
     39  N7A       25.5520  -10.1770  -42.5310 N.2   493  NPW493     -0.2095
     40  C7C       14.9510   -4.8490  -46.1180 C.2   493  NPW493      0.2814
     41  N7C       14.0380   -5.1370  -45.2320 N.am  493  NPW493     -0.0839
     42  O7C       14.6100   -4.2990  -47.1020 O.2   493  NPW493     -0.2670
     43  C8A       25.6640  -10.8270  -43.8150 C.3   493  NPW493      0.3377
     44  N9A       26.9830  -11.3360  -43.7510 N.pl3 493  NPW493     -0.1439
     45  OA1       25.9150   -6.6120  -47.7350 O.3   493  NPW493     -0.4371
     46  OA2       25.9300   -8.3930  -49.4450 O.2   493  NPW493     -0.5170
     47  OA3       24.3710   -8.5970  -47.5920 O.3   493  NPW493     -0.2703
     48  OB1       24.0220   -7.6470  -45.3520 O.3   493  NPW493     -0.4371
     49  OB2       22.3580   -8.9680  -46.4130 O.2   493  NPW493     -0.5170
@<TRIPOS>BOND
     1    46     5    2
     2    20    19    1
     3    23    30    1
     4    23    19    1
     5    23    24    1
     6    30    31    1
     7    19    13    1
     8    18    17    1
     9    24     8    1
    10     5    45    1
    11     5    47    1
    12     5    34    1
    13     8    13    1
    14     8     9    1
    15    47     6    1
    16    33    34    1
    17    33    28    1
    18     4     1    2
    19    31     6    1
    20    13    14    1
    21    42    40    2
    22    28    17    1
    23    28    27    1
    24    17    11    1
    25    15     9    1
    26    15    21    2
    27     6    49    2
    28     6    48    1
    29     9    35    1
    30    12     1    1
    31    12    11    1
    32    40    21    1
    33    40    41   am
    34     1     3    1
    35     1     2    1
    36    11     7    1
    37    21    25    1
    38    27     7    1
    39    35    32    1
    40    35    36    1
    41     7    44    1
    42    32    25    1
    43    43    44    1
    44    43    39    1
    45    44    26    1
    46    26    22    2
    47    26    29    1
    48    39    29    2
    49    22    16    1
    50    29    37    1
    51    16    10    1
    52    37    10    2
    53    37    38    1
