@<TRIPOS>MOLECULE
3ru3_NPW_A_1.pdb
 49 53 0 0 0
SMALL
GASTEIGER

@<TRIPOS>ATOM
      1  P        -25.8070   15.2260  -44.6710 P.3   495  NPW495      0.5328
      2  O1       -24.6090   14.7010  -43.8700 O.3   495  NPW495     -0.1145
      3  O2       -26.4790   16.4190  -44.0040 O.3   495  NPW495     -0.1145
      4  O3       -25.5050   15.2780  -46.1690 O.2   495  NPW495     -0.2224
      5  PA       -25.7200    7.9950  -47.9100 P.3   495  NPW495      0.2189
      6  PB       -23.2100    7.9190  -46.4570 P.3   495  NPW495      0.2189
      7  C1A      -27.8120   11.8700  -44.5290 C.3   495  NPW495      0.3158
      8  C1B      -19.4370    4.8080  -47.5620 C.3   495  NPW495      0.2114
      9  N1C      -18.5130    5.1060  -46.4870 N.3   495  NPW495     -0.2233
     10  N1D      -28.5450    9.9260  -39.7570 N.2   495  NPW495      0.0021
     11  C2A      -26.7220   12.7950  -44.9280 C.3   495  NPW495      0.2314
     12  O2A      -27.0480   14.1510  -44.6440 O.3   495  NPW495     -0.2630
     13  C2B      -20.6680    4.0060  -47.1470 C.3   495  NPW495      0.2272
     14  O2B      -20.3970    2.6180  -46.8660 O.3   495  NPW495     -0.2161
     15  C2C      -17.2800    4.9980  -46.7120 C.3   495  NPW495      0.0857
     16  C2D      -29.4140   10.6500  -40.4960 C.3   495  NPW495      0.5254
     17  C3A      -26.4290   12.4450  -46.3720 C.3   495  NPW495      0.2157
     18  O3A      -26.4310   13.6080  -47.2190 O.3   495  NPW495     -0.2175
     19  C3B      -21.5450    4.2430  -48.3810 C.3   495  NPW495      0.2155
     20  O3B      -21.1630    3.3880  -49.4660 O.3   495  NPW495     -0.2176
     21  C3C      -16.3250    5.1650  -45.8770 C.3   495  NPW495      0.0960
     22  N3D      -29.1270   11.1190  -41.7170 N.2   495  NPW495     -0.0055
     23  C4B      -21.1910    5.6770  -48.7890 C.3   495  NPW495      0.1796
     24  O4B      -20.0180    6.0130  -48.0230 O.3   495  NPW495     -0.3354
     25  C4C      -16.6540    5.8700  -44.5850 C.3   495  NPW495      0.0147
     26  C4D      -27.9370   10.8670  -42.2490 C.2   495  NPW495      0.3518
     27  O4D      -28.0450   10.9030  -45.5630 O.3   495  NPW495     -0.3136
     28  C4E      -27.4410   11.3680  -46.7560 C.3   495  NPW495      0.1820
     29  C5A      -26.9170   10.1040  -41.5180 C.2   495  NPW495      0.2526
     30  C5B      -22.3060    6.7180  -48.6350 C.3   495  NPW495      0.1813
     31  O5B      -22.6450    6.7180  -47.3200 O.3   495  NPW495     -0.3112
     32  C5C      -18.0870    6.4420  -44.5570 C.3   495  NPW495      0.0507
     33  C5E      -26.7180   10.2880  -47.5480 C.3   495  NPW495      0.1813
     34  O5E      -26.7460    8.9360  -47.0840 O.3   495  NPW495     -0.3112
     35  C6C      -19.0930    5.5250  -45.2100 C.3   495  NPW495      0.2144
     36  O6C      -19.2990    4.3700  -44.3980 O.3   495  NPW495     -0.2049
     37  C6D      -27.3000    9.6190  -40.1970 C.2   495  NPW495      0.4393
     38  N6D      -26.3830    8.8990  -39.4990 N.pl3 495  NPW495      0.2180
     39  N7A      -25.7650    9.9730  -42.2380 N.2   495  NPW495     -0.2095
     40  C7C      -14.9340    4.6560  -46.1320 C.2   495  NPW495      0.2616
     41  N7C      -13.9400    4.9320  -45.2670 N.am  495  NPW495     -0.0878
     42  O7C      -14.6420    3.9710  -47.1150 O.2   495  NPW495     -0.2716
     43  C8A      -25.9550   10.6420  -43.5140 C.3   495  NPW495      0.3377
     44  N9A      -27.3100   11.1510  -43.3630 N.pl3 495  NPW495     -0.1439
     45  OA1      -25.8590    6.5140  -47.7310 O.3   495  NPW495     -0.4371
     46  OA2      -25.7020    8.3570  -49.3580 O.2   495  NPW495     -0.5170
     47  OA3      -24.3030    8.5930  -47.4180 O.3   495  NPW495     -0.2703
     48  OB1      -23.8560    7.1490  -45.2940 O.3   495  NPW495     -0.4371
     49  OB2      -22.1930    8.9420  -46.0490 O.2   495  NPW495     -0.5170
@<TRIPOS>BOND
     1    20    19    1
     2    46     5    2
     3    23    30    1
     4    23    19    1
     5    23    24    1
     6    30    31    1
     7    19    13    1
     8    24     8    1
     9     5    45    1
    10     5    47    1
    11     5    34    1
    12     8    13    1
    13     8     9    1
    14    33    34    1
    15    33    28    1
    16    47     6    1
    17    31     6    1
    18    18    17    1
    19    13    14    1
    20    42    40    2
    21    28    17    1
    22    28    27    1
    23    15     9    1
    24    15    21    1
    25     9    35    1
    26     6    49    2
    27     6    48    1
    28    17    11    1
    29     4     1    2
    30    40    21    1
    31    40    41   am
    32    21    25    1
    33    27     7    1
    34    35    32    1
    35    35    36    1
    36    11    12    1
    37    11     7    1
    38     1    12    1
    39     1     3    1
    40     1     2    1
    41    25    32    1
    42     7    44    1
    43    43    44    1
    44    43    39    1
    45    44    26    1
    46    26    22    2
    47    26    29    1
    48    39    29    2
    49    22    16    1
    50    29    37    1
    51    16    10    1
    52    37    10    2
    53    37    38    1
