@<TRIPOS>MOLECULE
3ru3_NDP_A_1.pdb
 40 43 0 0 0
SMALL
GASTEIGER

@<TRIPOS>ATOM
      1  PA       -51.2240   11.9070  -15.5630 P.3   493  NDP493      0.2189
      2  O1A      -50.0400   11.2930  -16.2150 O.2   493  NDP493     -0.5170
      3  O2A      -51.2050   12.1630  -14.0800 O.3   493  NDP493     -0.4371
      4  O5B      -51.5880   13.2870  -16.2770 O.3   493  NDP493     -0.3112
      5  C5B      -52.9390   13.6070  -16.4080 C.3   493  NDP493      0.1813
      6  C4B      -53.1610   14.8930  -15.7060 C.3   493  NDP493      0.1820
      7  O4B      -52.5640   15.9260  -16.4590 O.3   493  NDP493     -0.3136
      8  C3B      -54.6340   15.2030  -15.6840 C.3   493  NDP493      0.2157
      9  O3B      -54.8690   16.0300  -14.5540 O.3   493  NDP493     -0.2175
     10  C2B      -54.8230   15.9610  -16.9750 C.3   493  NDP493      0.2314
     11  O2B      -55.9360   16.8060  -16.8840 O.3   493  NDP493     -0.2630
     12  C1B      -53.5400   16.7640  -17.0660 C.3   493  NDP493      0.3158
     13  N9A      -53.0400   17.0810  -18.4140 N.pl3 493  NDP493     -0.1439
     14  C8A      -52.8200   16.1990  -19.4670 C.3   493  NDP493      0.3377
     15  N7A      -52.3080   16.9250  -20.4930 N.2   493  NDP493     -0.2095
     16  C5A      -52.2070   18.2240  -20.1050 C.2   493  NDP493      0.2526
     17  C6A      -51.7680   19.3350  -20.7630 C.2   493  NDP493      0.4393
     18  N6A      -51.3340   19.1870  -22.0080 N.pl3 493  NDP493      0.2180
     19  N1A      -51.7480   20.5610  -20.1240 N.2   493  NDP493      0.0021
     20  C2A      -52.2020   20.6630  -18.8200 C.3   493  NDP493      0.5254
     21  N3A      -52.6470   19.5300  -18.1570 N.2   493  NDP493     -0.0055
     22  C4A      -52.6420   18.3400  -18.8010 C.2   493  NDP493      0.3518
     23  O3       -52.3820   10.8840  -15.9910 O.3   493  NDP493     -0.2703
     24  PN       -52.8310    9.6740  -15.0920 P.3   493  NDP493      0.2189
     25  O1N      -53.6030   10.1310  -13.9240 O.3   493  NDP493     -0.4371
     26  O2N      -53.1170    8.5600  -15.9710 O.2   493  NDP493     -0.5170
     27  O5D      -51.4560    9.2420  -14.3260 O.3   493  NDP493     -0.3112
     28  C5D      -50.5670    8.2280  -14.7930 C.3   493  NDP493      0.1813
     29  C4D      -49.3880    8.1970  -13.8520 C.3   493  NDP493      0.1797
     30  O4D      -49.7690    7.5220  -12.6620 O.3   493  NDP493     -0.3336
     31  C3D      -48.1620    7.4580  -14.4110 C.3   493  NDP493      0.2156
     32  O3D      -47.2170    8.2710  -15.0930 O.3   493  NDP493     -0.2176
     33  C2D      -47.6080    6.9290  -13.1180 C.3   493  NDP493      0.2298
     34  O2D      -47.0450    8.0320  -12.4440 O.3   493  NDP493     -0.2160
     35  C1D      -48.8540    6.4670  -12.3640 C.3   493  NDP493      0.2397
     36  N1N      -49.3060    5.1420  -12.8240 N.3   493  NDP493     -0.0972
     37  P2B      -57.1960   16.4960  -17.8420 P.3   493  NDP493      0.5328
     38  O1X      -57.0840   17.5580  -18.9310 O.2   493  NDP493     -0.2224
     39  O2X      -58.4140   16.5530  -16.9340 O.3   493  NDP493     -0.1145
     40  O3X      -57.1820   15.0950  -18.4180 O.3   493  NDP493     -0.1145
@<TRIPOS>BOND
     1    18    17    1
     2    17    19    2
     3    17    16    1
     4    15    16    2
     5    15    14    1
     6    19    20    1
     7    16    22    1
     8    14    13    1
     9    38    37    2
    10    20    21    1
    11    22    13    1
    12    22    21    2
    13    40    37    1
    14    13    12    1
    15    37    39    1
    16    37    11    1
    17    12    10    1
    18    12     7    1
    19    10    11    1
    20    10     8    1
    21     7     6    1
    22     5     4    1
    23     5     6    1
    24     4     1    1
    25     2     1    2
    26    23     1    1
    27    23    24    1
    28    26    24    2
    29     6     8    1
    30     8     9    1
    31     1     3    1
    32    32    31    1
    33    24    27    1
    34    24    25    1
    35    28    27    1
    36    28    29    1
    37    31    29    1
    38    31    33    1
    39    29    30    1
    40    33    34    1
    41    33    35    1
    42    36    35    1
    43    30    35    1
