@<TRIPOS>MOLECULE
3ru3_ATP_A_1.pdb
 27 29 0 0 0
SMALL
GASTEIGER

@<TRIPOS>ATOM
      1  PB       -21.1340    5.3340  -41.3770 P.3   494  ATP494      0.5373
      2  O1B      -21.4410    4.2460  -42.4320 O.2   494  ATP494     -0.2221
      3  O2B      -20.9540    6.7650  -41.8360 O.3   494  ATP494     -0.1143
      4  O3B      -19.9180    4.7440  -40.5300 O.3   494  ATP494     -0.1143
      5  PA       -23.6740    5.0330  -40.0440 P.3   494  ATP494      0.2231
      6  O1A      -24.0140    4.1080  -41.2160 O.2   494  ATP494     -0.5169
      7  O2A      -24.3470    6.3510  -39.6320 O.3   494  ATP494     -0.4370
      8  O3A      -22.1290    5.5460  -40.1250 O.3   494  ATP494     -0.2261
      9  O5'      -23.6030    4.0590  -38.7440 O.3   494  ATP494     -0.3111
     10  C5'      -23.2420    4.6840  -37.4940 C.3   494  ATP494      0.1813
     11  C4'      -23.2600    3.8000  -36.2320 C.3   494  ATP494      0.1821
     12  O4'      -22.8380    4.6230  -35.1320 O.3   494  ATP494     -0.3135
     13  C3'      -24.6640    3.3130  -35.8600 C.3   494  ATP494      0.2184
     14  O3'      -24.6850    2.0040  -35.2960 O.3   494  ATP494     -0.2174
     15  C2'      -25.2070    4.2760  -34.8230 C.3   494  ATP494      0.2570
     16  O2'      -25.9920    3.6580  -33.7940 O.3   494  ATP494     -0.2130
     17  C1'      -23.9440    4.8440  -34.2060 C.3   494  ATP494      0.3186
     18  N9       -24.1570    6.2730  -33.7790 N.pl3 494  ATP494     -0.1439
     19  C8       -24.2860    7.3890  -34.5430 C.3   494  ATP494      0.3377
     20  N7       -24.4470    8.4760  -33.7470 N.2   494  ATP494     -0.2095
     21  C5       -24.4240    8.0630  -32.4600 C.2   494  ATP494      0.2526
     22  C6       -24.5490    8.6740  -31.1070 C.2   494  ATP494      0.4393
     23  N6       -24.7340   10.0130  -30.9640 N.pl3 494  ATP494      0.2180
     24  N1       -24.4880    7.8630  -30.0150 N.2   494  ATP494      0.0021
     25  C2       -24.3260    6.5260  -30.1290 C.3   494  ATP494      0.5254
     26  N3       -24.2140    5.9050  -31.3190 N.2   494  ATP494     -0.0055
     27  C4       -24.2480    6.6070  -32.4870 C.2   494  ATP494      0.3518
@<TRIPOS>BOND
     1     2     1    2
     2     3     1    1
     3     1     4    1
     4     1     8    1
     5     6     5    2
     6     8     5    1
     7     5     7    1
     8     5     9    1
     9     9    10    1
    10    10    11    1
    11    11    13    1
    12    11    12    1
    13    13    14    1
    14    13    15    1
    15    12    17    1
    16    15    17    1
    17    15    16    1
    18    19    18    1
    19    19    20    1
    20    17    18    1
    21    18    27    1
    22    20    21    2
    23    27    21    1
    24    27    26    2
    25    21    22    1
    26    26    25    1
    27    22    23    1
    28    22    24    2
    29    25    24    1
