@<TRIPOS>MOLECULE
3ru7_NAD_A_1.pdb
 44 48 0 0 0
SMALL
GASTEIGER

@<TRIPOS>ATOM
      1  PA        21.3510  -21.0110   14.2730 P.3   349  NAD349      0.2189
      2  O1A       21.8040  -21.0140   15.6810 O.3   349  NAD349     -0.4371
      3  O2A       20.3990  -19.9710   13.8330 O.2   349  NAD349     -0.5170
      4  O5B       22.6360  -20.9780   13.3600 O.3   349  NAD349     -0.3112
      5  C5B       22.6370  -20.2970   12.1110 C.3   349  NAD349      0.1813
      6  C4B       23.8890  -19.4240   11.9920 C.3   349  NAD349      0.1821
      7  O4B       24.0400  -18.9740   10.6260 O.3   349  NAD349     -0.3135
      8  C3B       23.7450  -18.1590   12.8450 C.3   349  NAD349      0.2184
      9  O3B       24.9850  -17.9280   13.5280 O.3   349  NAD349     -0.2174
     10  C2B       23.4780  -17.0620   11.8090 C.3   349  NAD349      0.2570
     11  O2B       23.9310  -15.7960   12.2680 O.3   349  NAD349     -0.2130
     12  C1B       24.3280  -17.5540   10.6480 C.3   349  NAD349      0.3186
     13  N9A       23.8860  -17.0390    9.3360 N.pl3 349  NAD349     -0.1439
     14  C8A       22.6450  -17.1260    8.8570 C.3   349  NAD349      0.3377
     15  N7A       22.6020  -16.5810    7.6450 N.2   349  NAD349     -0.2095
     16  C5A       23.8210  -16.1510    7.3450 C.2   349  NAD349      0.2526
     17  C6A       24.3630  -15.5070    6.2390 C.2   349  NAD349      0.4393
     18  N6A       23.5960  -15.2000    5.2030 N.pl3 349  NAD349      0.2180
     19  N1A       25.6730  -15.1900    6.2450 N.2   349  NAD349      0.0021
     20  C2A       26.4440  -15.4850    7.2900 C.3   349  NAD349      0.5254
     21  N3A       25.9480  -16.0950    8.3620 N.2   349  NAD349     -0.0055
     22  C4A       24.6460  -16.4450    8.4190 C.2   349  NAD349      0.3518
     23  O3        20.6880  -22.4060   13.9300 O.3   349  NAD349     -0.2703
     24  PN        21.4300  -23.8150   13.9430 P.3   349  NAD349      0.2189
     25  O1N       22.6700  -23.7750   14.7550 O.3   349  NAD349     -0.4371
     26  O2N       20.3910  -24.8160   14.2640 O.2   349  NAD349     -0.5170
     27  O5D       21.7900  -23.9580   12.3880 O.3   349  NAD349     -0.3112
     28  C5D       22.7150  -24.8930   11.8550 C.3   349  NAD349      0.1813
     29  C4D       22.2540  -25.3810   10.4620 C.3   349  NAD349      0.1799
     30  O4D       21.5430  -26.6280   10.6950 O.3   349  NAD349     -0.3327
     31  C3D       21.2760  -24.5030    9.6510 C.3   349  NAD349      0.2158
     32  O3D       21.5680  -24.6640    8.2520 O.3   349  NAD349     -0.2175
     33  C2D       19.9390  -25.1540    9.9550 C.3   349  NAD349      0.2309
     34  O2D       18.9750  -24.8820    8.9350 O.3   349  NAD349     -0.2158
     35  C1D       20.3570  -26.6210    9.8970 C.3   349  NAD349      0.2263
     36  N1N       19.3510  -27.4730   10.5570 N.pl3 349  NAD349     -0.2787
     37  C2N       19.2150  -27.4280   11.9480 C.3   349  NAD349      0.1244
     38  C3N       18.2680  -28.2270   12.5780 C.2   349  NAD349      0.0544
     39  C7N       18.1440  -28.1440   14.1030 C.2   349  NAD349      0.2818
     40  O7N       17.6050  -29.0510   14.7480 O.2   349  NAD349     -0.2670
     41  N7N       18.6660  -27.0320   14.6450 N.am  349  NAD349     -0.0839
     42  C4N       17.4500  -29.0770   11.8260 C.2   349  NAD349      0.0033
     43  C5N       17.5740  -29.1340   10.4370 C.2   349  NAD349      0.0157
     44  C6N       18.5280  -28.3370    9.8040 C.2   349  NAD349      0.0633
@<TRIPOS>BOND
     1    18    17    1
     2    17    19    2
     3    17    16    1
     4    19    20    1
     5    20    21    1
     6    16    15    2
     7    16    22    1
     8    15    14    1
     9    32    31    1
    10    21    22    2
    11    22    13    1
    12    14    13    1
    13    34    33    1
    14    13    12    1
    15    31    33    1
    16    31    29    1
    17    44    43    2
    18    44    36    1
    19    35    33    1
    20    35    36    1
    21    35    30    1
    22    43    42    1
    23    29    30    1
    24    29    28    1
    25    36    37    1
    26     7    12    1
    27     7     6    1
    28    12    10    1
    29    10    11    1
    30    10     8    1
    31    42    38    2
    32    28    27    1
    33    37    38    1
    34     6     5    1
    35     6     8    1
    36     5     4    1
    37    27    24    1
    38    38    39    1
    39     8     9    1
    40     4     1    1
    41     3     1    2
    42    23    24    1
    43    23     1    1
    44    24    26    2
    45    24    25    1
    46    39    41   am
    47    39    40    2
    48     1     2    1
