@<TRIPOS>MOLECULE
3ru9_NAD_A_1.pdb
 44 48 0 0 0
SMALL
GASTEIGER

@<TRIPOS>ATOM
      1  PA        17.2590    1.0670  -14.9060 P.3   343  NAD343      0.2189
      2  O1A       16.9530    0.9020  -16.2920 O.2   343  NAD343     -0.5170
      3  O2A       18.2400    2.0440  -14.5230 O.3   343  NAD343     -0.4371
      4  O5B       15.9550    1.2110  -14.0000 O.3   343  NAD343     -0.3112
      5  C5B       15.9210    1.7540  -12.6910 C.3   343  NAD343      0.1813
      6  C4B       14.7060    2.6820  -12.5800 C.3   343  NAD343      0.1821
      7  O4B       14.5600    3.1310  -11.2050 O.3   343  NAD343     -0.3135
      8  C3B       14.9350    3.9420  -13.4700 C.3   343  NAD343      0.2184
      9  O3B       13.7780    4.2280  -14.3460 O.3   343  NAD343     -0.2174
     10  C2B       15.2350    5.0570  -12.4370 C.3   343  NAD343      0.2570
     11  O2B       14.8950    6.3500  -13.0110 O.3   343  NAD343     -0.2130
     12  C1B       14.3450    4.5980  -11.2760 C.3   343  NAD343      0.3186
     13  N9A       14.8480    5.1250   -9.9760 N.pl3 343  NAD343     -0.1439
     14  C8A       16.1090    5.0540   -9.5250 C.3   343  NAD343      0.3377
     15  N7A       16.1770    5.6480   -8.3260 N.2   343  NAD343     -0.2095
     16  C5A       14.9450    6.0980   -8.0290 C.2   343  NAD343      0.2526
     17  C6A       14.4070    6.8070   -6.9580 C.2   343  NAD343      0.4393
     18  N6A       15.2000    7.1950   -5.9470 N.pl3 343  NAD343      0.2180
     19  N1A       13.1120    7.1410   -6.9930 N.2   343  NAD343      0.0021
     20  C2A       12.3280    6.8030   -8.0080 C.3   343  NAD343      0.5254
     21  N3A       12.8280    6.1450   -9.0580 N.2   343  NAD343     -0.0055
     22  C4A       14.1120    5.7810   -9.0900 C.2   343  NAD343      0.3518
     23  O3        17.7530   -0.3320  -14.3330 O.3   343  NAD343     -0.2703
     24  PN        17.1340   -1.7850  -14.5840 P.3   343  NAD343      0.2189
     25  O1N       15.7370   -1.7020  -15.1290 O.3   343  NAD343     -0.4371
     26  O2N       18.1830   -2.5780  -15.2450 O.2   343  NAD343     -0.5170
     27  O5D       17.1070   -2.3160  -13.0900 O.3   343  NAD343     -0.3112
     28  C5D       15.9150   -2.4510  -12.4460 C.3   343  NAD343      0.1813
     29  C4D       16.2520   -3.0300  -11.0820 C.3   343  NAD343      0.1799
     30  O4D       16.9570   -4.2240  -11.4240 O.3   343  NAD343     -0.3327
     31  C3D       17.2270   -2.2420  -10.1850 C.3   343  NAD343      0.2158
     32  O3D       16.8220   -2.4630   -8.8290 O.3   343  NAD343     -0.2175
     33  C2D       18.5550   -2.9070  -10.3820 C.3   343  NAD343      0.2309
     34  O2D       19.3120   -2.8070   -9.1940 O.3   343  NAD343     -0.2158
     35  C1D       18.1140   -4.3530  -10.5770 C.3   343  NAD343      0.2263
     36  N1N       19.1330   -5.2230  -11.2590 N.pl3 343  NAD343     -0.2787
     37  C2N       19.3020   -5.2030  -12.6800 C.3   343  NAD343      0.1244
     38  C3N       20.2490   -6.0500  -13.2490 C.2   343  NAD343      0.0544
     39  C7N       20.4880   -6.0820  -14.7560 C.2   343  NAD343      0.2818
     40  O7N       21.1760   -7.0060  -15.2000 O.2   343  NAD343     -0.2670
     41  N7N       19.9540   -5.0860  -15.5060 N.am  343  NAD343     -0.0839
     42  C4N       21.0170   -6.9120  -12.4470 C.2   343  NAD343      0.0033
     43  C5N       20.8880   -6.9410  -11.0680 C.2   343  NAD343      0.0157
     44  C6N       19.9300   -6.0950  -10.4960 C.2   343  NAD343      0.0633
@<TRIPOS>BOND
     1     2     1    2
     2    41    39   am
     3    26    24    2
     4    40    39    2
     5    25    24    1
     6     1     3    1
     7     1    23    1
     8     1     4    1
     9    39    38    1
    10    24    23    1
    11    24    27    1
    12     9     8    1
    13     4     5    1
    14     8     6    1
    15     8    10    1
    16    38    37    1
    17    38    42    2
    18    27    28    1
    19    11    10    1
    20     5     6    1
    21    37    36    1
    22     6     7    1
    23    42    43    1
    24    28    29    1
    25    10    12    1
    26    30    29    1
    27    30    35    1
    28    12     7    1
    29    12    13    1
    30    36    35    1
    31    36    44    1
    32    29    31    1
    33    43    44    2
    34    35    33    1
    35    33    31    1
    36    33    34    1
    37    31    32    1
    38    13    14    1
    39    13    22    1
    40    14    15    1
    41    22    21    2
    42    22    16    1
    43    21    20    1
    44    15    16    2
    45    16    17    1
    46    20    19    1
    47    19    17    2
    48    17    18    1
