@<TRIPOS>MOLECULE
3rua_NAD_A_1.pdb
 44 48 0 0 0
SMALL
GASTEIGER

@<TRIPOS>ATOM
      1  PA        21.3770  -21.1090   13.8180 P.3   343  NAD343      0.2189
      2  O1A       21.7990  -21.1190   15.1670 O.3   343  NAD343     -0.4371
      3  O2A       20.2940  -20.1720   13.3550 O.2   343  NAD343     -0.5170
      4  O5B       22.6990  -20.9910   12.9290 O.3   343  NAD343     -0.3112
      5  C5B       22.6930  -20.3640   11.5630 C.3   343  NAD343      0.1813
      6  C4B       23.9460  -19.4930   11.5340 C.3   343  NAD343      0.1821
      7  O4B       24.1290  -19.0640   10.2140 O.3   343  NAD343     -0.3135
      8  C3B       23.7470  -18.2080   12.4250 C.3   343  NAD343      0.2184
      9  O3B       24.9150  -17.9530   13.2170 O.3   343  NAD343     -0.2174
     10  C2B       23.4790  -17.1160   11.3600 C.3   343  NAD343      0.2570
     11  O2B       23.8360  -15.8060   11.8200 O.3   343  NAD343     -0.2130
     12  C1B       24.3190  -17.6240   10.1920 C.3   343  NAD343      0.3186
     13  N9A       23.7800  -17.1070    8.9230 N.pl3 343  NAD343     -0.1439
     14  C8A       22.5070  -17.1780    8.4990 C.3   343  NAD343      0.3377
     15  N7A       22.4280  -16.6400    7.2880 N.2   343  NAD343     -0.2095
     16  C5A       23.6420  -16.2010    6.9420 C.2   343  NAD343      0.2526
     17  C6A       24.1710  -15.5060    5.8450 C.2   343  NAD343      0.4393
     18  N6A       23.4090  -15.1250    4.8250 N.pl3 343  NAD343      0.2180
     19  N1A       25.5050  -15.2180    5.8780 N.2   343  NAD343      0.0021
     20  C2A       26.2790  -15.5430    6.9110 C.3   343  NAD343      0.5254
     21  N3A       25.7980  -16.1760    7.9830 N.2   343  NAD343     -0.0055
     22  C4A       24.5090  -16.5180    8.0080 C.2   343  NAD343      0.3518
     23  O3        20.7050  -22.5070   13.3960 O.3   343  NAD343     -0.2703
     24  PN        21.4780  -23.9420   13.6080 P.3   343  NAD343      0.2189
     25  O1N       22.7690  -23.8680   14.1830 O.2   343  NAD343     -0.5170
     26  O2N       20.3700  -24.7500   14.1880 O.3   343  NAD343     -0.4371
     27  O5D       21.5490  -24.4180   12.0880 O.3   343  NAD343     -0.3112
     28  C5D       22.7520  -24.7440   11.4100 C.3   343  NAD343      0.1813
     29  C4D       22.3570  -25.3470   10.0420 C.3   343  NAD343      0.1799
     30  O4D       21.6220  -26.5850   10.3950 O.3   343  NAD343     -0.3327
     31  C3D       21.4310  -24.5310    9.1220 C.3   343  NAD343      0.2158
     32  O3D       21.7580  -24.7880    7.7380 O.3   343  NAD343     -0.2175
     33  C2D       20.0950  -25.1430    9.4470 C.3   343  NAD343      0.2309
     34  O2D       19.2550  -25.0150    8.3680 O.3   343  NAD343     -0.2158
     35  C1D       20.4920  -26.6530    9.5580 C.3   343  NAD343      0.2263
     36  N1N       19.4780  -27.4510   10.3040 N.pl3 343  NAD343     -0.2787
     37  C2N       19.4360  -27.4280   11.7010 C.3   343  NAD343      0.1244
     38  C3N       18.4630  -28.1940   12.3450 C.2   343  NAD343      0.0544
     39  C7N       18.3300  -28.1900   13.8620 C.2   343  NAD343      0.2818
     40  O7N       17.4640  -28.9020   14.3860 O.2   343  NAD343     -0.2670
     41  N7N       19.1010  -27.3210   14.5400 N.am  343  NAD343     -0.0839
     42  C4N       17.5510  -28.9810   11.6130 C.2   343  NAD343      0.0033
     43  C5N       17.6030  -29.0200   10.2350 C.2   343  NAD343      0.0157
     44  C6N       18.5910  -28.2660    9.5980 C.2   343  NAD343      0.0633
@<TRIPOS>BOND
     1    18    17    1
     2    17    19    2
     3    17    16    1
     4    19    20    1
     5    20    21    1
     6    16    15    2
     7    16    22    1
     8    15    14    1
     9    32    31    1
    10    21    22    2
    11    22    13    1
    12    34    33    1
    13    14    13    1
    14    13    12    1
    15    31    33    1
    16    31    29    1
    17    33    35    1
    18    35    36    1
    19    35    30    1
    20    44    43    2
    21    44    36    1
    22    29    30    1
    23    29    28    1
    24    12     7    1
    25    12    10    1
    26     7     6    1
    27    43    42    1
    28    36    37    1
    29    10    11    1
    30    10     8    1
    31    28    27    1
    32     6     5    1
    33     6     8    1
    34     5     4    1
    35    42    38    2
    36    37    38    1
    37    27    24    1
    38    38    39    1
    39     8     9    1
    40     4     1    1
    41     3     1    2
    42    23    24    1
    43    23     1    1
    44    24    25    2
    45    24    26    1
    46     1     2    1
    47    39    40    2
    48    39    41   am
