@<TRIPOS>MOLECULE
3ruc_UD2_A_1.pdb
 39 41 0 0 0
SMALL
GASTEIGER

@<TRIPOS>ATOM
      1  C1'       -9.6520   18.8420   11.2100 C.3   344  UD2344      0.2633
      2  C2'       -8.1800   18.8790   10.7960 C.3   344  UD2344      0.1845
      3  C3'       -7.4620   20.1610   11.2610 C.3   344  UD2344      0.2094
      4  C4'       -8.2910   21.3790   10.8590 C.3   344  UD2344      0.2136
      5  C5'       -9.8050   21.2460   11.1290 C.3   344  UD2344      0.1834
      6  C6'      -10.6120   22.4200   10.5960 C.3   344  UD2344      0.2142
      7  C7'       -7.5000   16.5560   10.7120 C.2   344  UD2344      0.2420
      8  C8'       -6.6740   15.4380   11.3240 C.3   344  UD2344      0.0964
      9  N2'       -7.4910   17.7180   11.3770 N.am  344  UD2344     -0.1992
     10  O1'       -9.6980   18.7010   12.6680 O.3   344  UD2344     -0.2864
     11  O3'       -6.1760   20.3340   10.5980 O.3   344  UD2344     -0.2183
     12  O4'       -8.0870   21.4680    9.4520 O.3   344  UD2344     -0.2176
     13  O5'      -10.3340   20.0030   10.6620 O.3   344  UD2344     -0.3260
     14  O6'      -11.9370   22.2010   11.0520 O.3   344  UD2344     -0.2176
     15  O7'       -8.0960   16.3880    9.6310 O.2   344  UD2344     -0.2733
     16  N1       -14.5660   14.3430   18.6040 N.am  344  UD2344     -0.1766
     17  C2       -15.1340   13.5660   19.6450 C.1   344  UD2344      0.2845
     18  N3       -16.1280   14.1060   20.3810 N.2   344  UD2344     -0.2452
     19  C4       -16.5870   15.3600   20.1260 C.1   344  UD2344      0.2182
     20  C5       -16.0530   16.1120   19.0940 C.2   344  UD2344      0.1242
     21  C6       -15.0220   15.5820   18.3330 C.2   344  UD2344      0.0929
     22  O2       -14.7200   12.4050   19.9050 O.2   344  UD2344     -0.1918
     23  O4       -17.5180   15.8410   20.8140 O.2   344  UD2344     -0.2085
     24  C1B      -13.5320   13.7840   17.7730 C.3   344  UD2344      0.2401
     25  C2B      -13.8080   14.0410   16.2710 C.3   344  UD2344      0.2319
     26  O2'      -14.7330   13.0660   15.7280 O.3   344  UD2344     -0.2157
     27  C3B      -12.3970   14.0090   15.7150 C.3   344  UD2344      0.2158
     28  C4B      -11.5700   14.5750   16.8500 C.3   344  UD2344      0.1799
     29  O4B      -12.3060   14.3980   18.0770 O.3   344  UD2344     -0.3320
     30  O3B      -12.0050   12.6440   15.5810 O.3   344  UD2344     -0.2175
     31  C5B      -11.1670   16.0310   16.7370 C.3   344  UD2344      0.1813
     32  O5B      -12.0870   16.7830   15.9700 O.3   344  UD2344     -0.3112
     33  PA       -11.9710   18.3700   15.8900 P.3   344  UD2344      0.2189
     34  O1A      -13.2990   18.8220   15.3750 O.2   344  UD2344     -0.5170
     35  O2A      -11.5600   18.8730   17.2530 O.3   344  UD2344     -0.4371
     36  O3A      -10.9090   18.6140   14.7320 O.3   344  UD2344     -0.2703
     37  PB       -10.7530   17.7340   13.3930 P.3   344  UD2344      0.2208
     38  O1B      -10.1490   16.4150   13.8400 O.3   344  UD2344     -0.4371
     39  O2B      -12.0750   17.7330   12.6680 O.2   344  UD2344     -0.5170
@<TRIPOS>BOND
     1    12     4    1
     2    15     7    2
     3     6    14    1
     4     6     5    1
     5    11     3    1
     6    13     5    1
     7    13     1    1
     8     7     8    1
     9     7     9   am
    10     2     1    1
    11     2     3    1
    12     2     9    1
    13     4     5    1
    14     4     3    1
    15     1    10    1
    16    39    37    2
    17    10    37    1
    18    37    38    1
    19    37    36    1
    20    36    33    1
    21    34    33    2
    22    30    27    1
    23    27    25    1
    24    27    28    1
    25    26    25    1
    26    33    32    1
    27    33    35    1
    28    32    31    1
    29    25    24    1
    30    31    28    1
    31    28    29    1
    32    24    29    1
    33    24    16    1
    34    21    16    1
    35    21    20    2
    36    16    17   am
    37    20    19    1
    38    17    22    2
    39    17    18    2
    40    19    18    2
    41    19    23    2
