@<TRIPOS>MOLECULE
3ruc_NAD_A_1.pdb
 44 48 0 0 0
SMALL
GASTEIGER

@<TRIPOS>ATOM
      1  PA       -12.1900   30.4400   13.6130 P.3   343  NAD343      0.2189
      2  O1A      -12.0930   30.7590   15.1010 O.3   343  NAD343     -0.4371
      3  O2A      -13.5810   30.1080   13.0760 O.2   343  NAD343     -0.5170
      4  O5B      -11.6480   31.7070   12.8180 O.3   343  NAD343     -0.3112
      5  C5B      -11.8550   31.9310   11.3990 C.3   343  NAD343      0.1813
      6  C4B      -12.2450   33.3770   11.1850 C.3   343  NAD343      0.1821
      7  O4B      -12.4570   33.7040    9.7700 O.3   343  NAD343     -0.3135
      8  C3B      -13.5220   33.7130   11.9690 C.3   343  NAD343      0.2184
      9  O3B      -13.3330   34.8850   12.7700 O.3   343  NAD343     -0.2174
     10  C2B      -14.5180   34.0980   10.9150 C.3   343  NAD343      0.2570
     11  O2B      -15.4430   35.1100   11.4190 O.3   343  NAD343     -0.2130
     12  C1B      -13.6320   34.5390    9.7540 C.3   343  NAD343      0.3186
     13  N9A      -14.3440   34.4020    8.4950 N.pl3 343  NAD343     -0.1439
     14  C8A      -14.8480   33.2280    8.0430 C.3   343  NAD343      0.3377
     15  N7A      -15.3540   33.4890    6.8390 N.2   343  NAD343     -0.2095
     16  C5A      -15.1960   34.7970    6.5410 C.2   343  NAD343      0.2526
     17  C6A      -15.5430   35.5700    5.4450 C.2   343  NAD343      0.4393
     18  N6A      -16.2540   35.0500    4.3910 N.pl3 343  NAD343      0.2180
     19  N1A      -15.2190   36.8910    5.4700 N.2   343  NAD343      0.0021
     20  C2A      -14.5140   37.4490    6.4900 C.3   343  NAD343      0.5254
     21  N3A      -14.1710   36.7110    7.5560 N.2   343  NAD343     -0.0055
     22  C4A      -14.5160   35.3700    7.5980 C.2   343  NAD343      0.3518
     23  O3       -11.1780   29.2770   13.1620 O.3   343  NAD343     -0.2703
     24  PN        -9.5430   29.2150   13.3100 P.3   343  NAD343      0.2189
     25  O1N       -8.9990   30.5650   13.6100 O.2   343  NAD343     -0.5170
     26  O2N       -9.2600   27.9300   14.0830 O.3   343  NAD343     -0.4371
     27  O5D       -9.1880   28.9640   11.8060 O.3   343  NAD343     -0.3112
     28  C5D       -8.4940   29.9020   11.0020 C.3   343  NAD343      0.1813
     29  C4D       -7.8550   29.1350    9.8670 C.3   343  NAD343      0.1799
     30  O4D       -7.1430   27.9470   10.2250 O.3   343  NAD343     -0.3327
     31  C3D       -8.9380   28.6680    8.9190 C.3   343  NAD343      0.2158
     32  O3D       -8.3370   28.7430    7.6620 O.3   343  NAD343     -0.2175
     33  C2D       -9.1450   27.2080    9.2090 C.3   343  NAD343      0.2309
     34  O2D       -9.8450   26.5900    8.1010 O.3   343  NAD343     -0.2158
     35  C1D       -7.6590   26.9000    9.3790 C.3   343  NAD343      0.2263
     36  N1N       -7.2610   25.6630   10.0030 N.pl3 343  NAD343     -0.2787
     37  C2N       -7.5230   25.4820   11.3120 C.3   343  NAD343      0.1244
     38  C3N       -7.1220   24.3250   11.9710 C.2   343  NAD343      0.0544
     39  C7N       -7.4400   24.1090   13.4340 C.2   343  NAD343      0.2818
     40  O7N       -6.7910   23.3180   14.0740 O.2   343  NAD343     -0.2670
     41  N7N       -8.4410   24.7680   14.0290 N.am  343  NAD343     -0.0839
     42  C4N       -6.4240   23.3810   11.2100 C.2   343  NAD343      0.0033
     43  C5N       -6.1500   23.5900    9.8480 C.2   343  NAD343      0.0157
     44  C6N       -6.5810   24.7730    9.2640 C.2   343  NAD343      0.0633
@<TRIPOS>BOND
     1    18    17    1
     2    17    19    2
     3    17    16    1
     4    19    20    1
     5    20    21    1
     6    16    15    2
     7    16    22    1
     8    15    14    1
     9    21    22    2
    10    22    13    1
    11    32    31    1
    12    14    13    1
    13    34    33    1
    14    13    12    1
    15    31    33    1
    16    31    29    1
    17    33    35    1
    18    44    43    2
    19    44    36    1
    20    35    36    1
    21    35    30    1
    22    12     7    1
    23    12    10    1
    24     7     6    1
    25    43    42    1
    26    29    30    1
    27    29    28    1
    28    36    37    1
    29    10    11    1
    30    10     8    1
    31    28    27    1
    32     6     5    1
    33     6     8    1
    34    42    38    2
    35    37    38    1
    36     5     4    1
    37    27    24    1
    38     8     9    1
    39    38    39    1
    40     4     1    1
    41     3     1    2
    42    23    24    1
    43    23     1    1
    44    24    25    2
    45    24    26    1
    46    39    41   am
    47    39    40    2
    48     1     2    1
