@<TRIPOS>MOLECULE
3rud_NAD_A_1.pdb
 44 48 0 0 0
SMALL
GASTEIGER

@<TRIPOS>ATOM
      1  PA        10.1200   30.5870  -14.7410 P.3   343  NAD343      0.2189
      2  O1A        9.8450   31.1440  -16.1340 O.2   343  NAD343     -0.5170
      3  O2A       11.4840   30.1950  -14.3280 O.3   343  NAD343     -0.4371
      4  O5B        9.6640   31.8740  -13.8990 O.3   343  NAD343     -0.3112
      5  C5B       10.0710   32.0470  -12.5500 C.3   343  NAD343      0.1813
      6  C4B       10.3090   33.5320  -12.4590 C.3   343  NAD343      0.1821
      7  O4B       10.5260   33.9470  -11.1090 O.3   343  NAD343     -0.3135
      8  C3B       11.5440   33.9880  -13.2670 C.3   343  NAD343      0.2184
      9  O3B       11.1240   35.1410  -13.9940 O.3   343  NAD343     -0.2174
     10  C2B       12.5670   34.4050  -12.2180 C.3   343  NAD343      0.2570
     11  O2B       13.4270   35.4910  -12.6090 O.3   343  NAD343     -0.2130
     12  C1B       11.6480   34.8610  -11.0680 C.3   343  NAD343      0.3186
     13  N9A       12.3720   34.7340   -9.7850 N.pl3 343  NAD343     -0.1439
     14  C8A       12.9590   33.5840   -9.3260 C.3   343  NAD343      0.3377
     15  N7A       13.4570   33.8560   -8.0890 N.2   343  NAD343     -0.2095
     16  C5A       13.2110   35.1620   -7.7980 C.2   343  NAD343      0.2526
     17  C6A       13.5110   35.9900   -6.7150 C.2   343  NAD343      0.4393
     18  N6A       14.1910   35.5510   -5.6490 N.pl3 343  NAD343      0.2180
     19  N1A       13.1210   37.2680   -6.7180 N.2   343  NAD343      0.0021
     20  C2A       12.3830   37.7590   -7.7410 C.3   343  NAD343      0.5254
     21  N3A       12.0930   36.9730   -8.8060 N.2   343  NAD343     -0.0055
     22  C4A       12.5100   35.6900   -8.8690 C.2   343  NAD343      0.3518
     23  O3         9.2020   29.3590  -14.2870 O.3   343  NAD343     -0.2703
     24  PN         7.5820   29.2660  -14.3660 P.3   343  NAD343      0.2189
     25  O1N        7.0620   30.5530  -14.9330 O.2   343  NAD343     -0.5170
     26  O2N        7.3450   27.8820  -14.9070 O.3   343  NAD343     -0.4371
     27  O5D        7.0550   29.1400  -12.8580 O.3   343  NAD343     -0.3112
     28  C5D        6.2970   30.0990  -12.1310 C.3   343  NAD343      0.1813
     29  C4D        5.9140   29.3940  -10.8400 C.3   343  NAD343      0.1799
     30  O4D        5.2140   28.1730  -11.1070 O.3   343  NAD343     -0.3327
     31  C3D        7.0960   28.9760   -9.9760 C.3   343  NAD343      0.2158
     32  O3D        6.7670   29.0050   -8.5680 O.3   343  NAD343     -0.2175
     33  C2D        7.2400   27.5190  -10.3080 C.3   343  NAD343      0.2309
     34  O2D        7.7900   26.8820   -9.1880 O.3   343  NAD343     -0.2158
     35  C1D        5.7820   27.1120  -10.3830 C.3   343  NAD343      0.2263
     36  N1N        5.5360   25.8750  -11.0910 N.pl3 343  NAD343     -0.2787
     37  C2N        5.6980   25.8050  -12.4490 C.3   343  NAD343      0.1244
     38  C3N        5.4430   24.5980  -13.1130 C.2   343  NAD343      0.0544
     39  C7N        5.6230   24.4790  -14.5940 C.2   343  NAD343      0.2818
     40  O7N        5.3490   23.3840  -15.0840 O.2   343  NAD343     -0.2670
     41  N7N        6.1080   25.5270  -15.3130 N.am  343  NAD343     -0.0839
     42  C4N        5.0010   23.4880  -12.3950 C.2   343  NAD343      0.0033
     43  C5N        4.8340   23.5880  -11.0240 C.2   343  NAD343      0.0157
     44  C6N        5.1020   24.8080  -10.3980 C.2   343  NAD343      0.0633
@<TRIPOS>BOND
     1     2     1    2
     2    41    39   am
     3    40    39    2
     4    25    24    2
     5    26    24    1
     6     1     3    1
     7     1    23    1
     8     1     4    1
     9    39    38    1
    10    24    23    1
    11    24    27    1
    12     9     8    1
    13     4     5    1
    14     8     6    1
    15     8    10    1
    16    38    37    1
    17    38    42    2
    18    27    28    1
    19    11    10    1
    20     5     6    1
    21     6     7    1
    22    37    36    1
    23    42    43    1
    24    10    12    1
    25    28    29    1
    26     7    12    1
    27    30    29    1
    28    30    35    1
    29    36    44    1
    30    36    35    1
    31    12    13    1
    32    43    44    2
    33    29    31    1
    34    35    33    1
    35    33    31    1
    36    33    34    1
    37    31    32    1
    38    13    14    1
    39    13    22    1
    40    14    15    1
    41    22    21    2
    42    22    16    1
    43    21    20    1
    44    15    16    2
    45    16    17    1
    46    20    19    1
    47    19    17    2
    48    17    18    1
