@<TRIPOS>MOLECULE
3rue_NAD_A_1.pdb
 44 48 0 0 0
SMALL
GASTEIGER

@<TRIPOS>ATOM
      1  PA        10.0350   30.8480  -13.8740 P.3   344  NAD344      0.2189
      2  O1A        9.8720   30.9620  -15.2780 O.2   344  NAD344     -0.5170
      3  O2A       11.3450   30.6330  -13.3870 O.3   344  NAD344     -0.4371
      4  O5B        9.5610   32.0910  -13.2010 O.3   344  NAD344     -0.3112
      5  C5B       10.2220   32.4770  -12.0310 C.3   344  NAD344      0.1813
      6  C4B       10.4790   33.9780  -11.8400 C.3   344  NAD344      0.1821
      7  O4B       10.9330   34.0540  -10.5400 O.3   344  NAD344     -0.3135
      8  C3B       11.6750   34.5360  -12.5890 C.3   344  NAD344      0.2184
      9  O3B       11.1530   35.1000  -13.7620 O.3   344  NAD344     -0.2174
     10  C2B       12.2460   35.6270  -11.6910 C.3   344  NAD344      0.2570
     11  O2B       11.8760   36.9380  -12.2000 O.3   344  NAD344     -0.2130
     12  C1B       11.5240   35.3350  -10.3740 C.3   344  NAD344      0.3186
     13  N9A       12.2500   35.1650   -9.0940 N.pl3 344  NAD344     -0.1439
     14  C8A       12.8190   34.0700   -8.6550 C.3   344  NAD344      0.3377
     15  N7A       13.3170   34.2750   -7.4600 N.2   344  NAD344     -0.2095
     16  C5A       13.0670   35.5130   -7.1280 C.2   344  NAD344      0.2526
     17  C6A       13.3280   36.2800   -6.0340 C.2   344  NAD344      0.4393
     18  N6A       13.9850   35.8060   -5.0210 N.pl3 344  NAD344      0.2180
     19  N1A       12.9170   37.5160   -5.9930 N.2   344  NAD344      0.0021
     20  C2A       12.2680   38.0310   -6.9910 C.3   344  NAD344      0.5254
     21  N3A       11.9980   37.3220   -8.0500 N.2   344  NAD344     -0.0055
     22  C4A       12.3800   36.0640   -8.1520 C.2   344  NAD344      0.3518
     23  O3         9.1290   29.7610  -13.3360 O.3   344  NAD344     -0.2703
     24  PN         7.7060   29.2570  -13.7320 P.3   344  NAD344      0.2189
     25  O1N        6.9300   30.2350  -14.3770 O.2   344  NAD344     -0.5170
     26  O2N        7.8460   27.9860  -14.3430 O.3   344  NAD344     -0.4371
     27  O5D        7.0290   29.0480  -12.4530 O.3   344  NAD344     -0.3112
     28  C5D        6.4920   30.1140  -11.8020 C.3   344  NAD344      0.1813
     29  C4D        5.9470   29.6690  -10.4660 C.3   344  NAD344      0.1799
     30  O4D        5.2150   28.4650  -10.6340 O.3   344  NAD344     -0.3327
     31  C3D        7.0550   29.2430   -9.5400 C.3   344  NAD344      0.2158
     32  O3D        6.5400   29.3230   -8.2500 O.3   344  NAD344     -0.2175
     33  C2D        7.0480   27.7980   -9.7720 C.3   344  NAD344      0.2309
     34  O2D        7.6630   27.1950   -8.6860 O.3   344  NAD344     -0.2158
     35  C1D        5.6040   27.6890   -9.5700 C.3   344  NAD344      0.2263
     36  N1N        5.3640   26.3690  -10.0090 N.pl3 344  NAD344     -0.2787
     37  C2N        5.5170   26.1090  -11.3260 C.3   344  NAD344      0.1244
     38  C3N        5.2770   24.8390  -11.7650 C.2   344  NAD344      0.0544
     39  C7N        5.4380   24.5100  -13.1970 C.2   344  NAD344      0.2818
     40  O7N        5.1030   23.4090  -13.5970 O.2   344  NAD344     -0.2670
     41  N7N        5.9740   25.4550  -13.9310 N.am  344  NAD344     -0.0839
     42  C4N        4.8920   23.8330  -10.9210 C.2   344  NAD344      0.0033
     43  C5N        4.7420   24.1170   -9.5940 C.2   344  NAD344      0.0157
     44  C6N        4.9780   25.3960   -9.1360 C.2   344  NAD344      0.0633
@<TRIPOS>BOND
     1     2     1    2
     2    25    24    2
     3    26    24    1
     4    41    39   am
     5     1     3    1
     6     1    23    1
     7     1     4    1
     8     9     8    1
     9    24    23    1
    10    24    27    1
    11    40    39    2
    12     4     5    1
    13    39    38    1
    14     8     6    1
    15     8    10    1
    16    27    28    1
    17    11    10    1
    18     5     6    1
    19     6     7    1
    20    28    29    1
    21    38    37    1
    22    38    42    2
    23    10    12    1
    24    37    36    1
    25    42    43    1
    26    30    29    1
    27    30    35    1
    28     7    12    1
    29    29    31    1
    30    12    13    1
    31    36    35    1
    32    36    44    1
    33    33    35    1
    34    33    31    1
    35    33    34    1
    36    43    44    2
    37    31    32    1
    38    13    14    1
    39    13    22    1
    40    14    15    1
    41    22    21    2
    42    22    16    1
    43    21    20    1
    44    15    16    2
    45    16    17    1
    46    20    19    1
    47    17    19    2
    48    17    18    1
