@<TRIPOS>MOLECULE
3ruf_NAD_A_1.pdb
 44 48 0 0 0
SMALL
GASTEIGER

@<TRIPOS>ATOM
      1  PA         9.8650   30.5830  -14.1480 P.3   343  NAD343      0.2189
      2  O1A        9.7300   30.8910  -15.5890 O.2   343  NAD343     -0.5170
      3  O2A       11.3370   30.2640  -13.7490 O.3   343  NAD343     -0.4371
      4  O5B        9.3870   31.8040  -13.3380 O.3   343  NAD343     -0.3112
      5  C5B        9.7430   32.0780  -11.9760 C.3   343  NAD343      0.1813
      6  C4B       10.0420   33.5440  -11.8830 C.3   343  NAD343      0.1821
      7  O4B       10.3740   33.8600  -10.5170 O.3   343  NAD343     -0.3135
      8  C3B       11.2830   33.9200  -12.7320 C.3   343  NAD343      0.2184
      9  O3B       10.9940   35.0340  -13.5130 O.3   343  NAD343     -0.2174
     10  C2B       12.3580   34.3430  -11.7050 C.3   343  NAD343      0.2570
     11  O2B       13.2680   35.3170  -12.2540 O.3   343  NAD343     -0.2130
     12  C1B       11.4860   34.8150  -10.5340 C.3   343  NAD343      0.3186
     13  N9A       12.2150   34.5840   -9.2350 N.pl3 343  NAD343     -0.1439
     14  C8A       12.7780   33.4380   -8.8540 C.3   343  NAD343      0.3377
     15  N7A       13.3050   33.6260   -7.6080 N.2   343  NAD343     -0.2095
     16  C5A       13.0400   34.9340   -7.2830 C.2   343  NAD343      0.2526
     17  C6A       13.3100   35.7500   -6.1810 C.2   343  NAD343      0.4393
     18  N6A       14.0380   35.3000   -5.1380 N.pl3 343  NAD343      0.2180
     19  N1A       12.9030   37.0240   -6.1770 N.2   343  NAD343      0.0021
     20  C2A       12.2300   37.5910   -7.1800 C.3   343  NAD343      0.5254
     21  N3A       11.9570   36.8320   -8.2570 N.2   343  NAD343     -0.0055
     22  C4A       12.3670   35.5130   -8.3240 C.2   343  NAD343      0.3518
     23  O3         9.0660   29.2670  -13.8340 O.3   343  NAD343     -0.2703
     24  PN         7.4150   29.1400  -13.9460 P.3   343  NAD343      0.2189
     25  O1N        6.9250   30.4400  -14.4520 O.2   343  NAD343     -0.5170
     26  O2N        7.1820   27.7480  -14.3710 O.3   343  NAD343     -0.4371
     27  O5D        6.9660   28.9790  -12.4030 O.3   343  NAD343     -0.3112
     28  C5D        6.1190   29.9310  -11.7570 C.3   343  NAD343      0.1813
     29  C4D        5.6930   29.3400  -10.3920 C.3   343  NAD343      0.1799
     30  O4D        4.9770   28.1310  -10.6160 O.3   343  NAD343     -0.3327
     31  C3D        6.8530   28.9690   -9.4590 C.3   343  NAD343      0.2158
     32  O3D        6.4520   29.1470   -8.0500 O.3   343  NAD343     -0.2175
     33  C2D        7.0070   27.5050   -9.7080 C.3   343  NAD343      0.2309
     34  O2D        7.6260   26.7760   -8.6240 O.3   343  NAD343     -0.2158
     35  C1D        5.5300   27.0890   -9.8620 C.3   343  NAD343      0.2263
     36  N1N        5.3280   25.8580  -10.5810 N.pl3 343  NAD343     -0.2787
     37  C2N        5.4760   25.8280  -11.9330 C.3   343  NAD343      0.1244
     38  C3N        5.2730   24.6150  -12.5690 C.2   343  NAD343      0.0544
     39  C7N        5.4130   24.4660  -14.0690 C.2   343  NAD343      0.2818
     40  O7N        5.1460   23.3240  -14.4870 O.2   343  NAD343     -0.2670
     41  N7N        5.8940   25.4820  -14.8330 N.am  343  NAD343     -0.0839
     42  C4N        4.9650   23.4630  -11.8320 C.2   343  NAD343      0.0033
     43  C5N        4.8460   23.5300  -10.4320 C.2   343  NAD343      0.0157
     44  C6N        5.0390   24.7660   -9.8540 C.2   343  NAD343      0.0633
@<TRIPOS>BOND
     1     2     1    2
     2    41    39   am
     3    40    39    2
     4    25    24    2
     5    26    24    1
     6     1    23    1
     7     1     3    1
     8     1     4    1
     9    39    38    1
    10    24    23    1
    11    24    27    1
    12     9     8    1
    13     4     5    1
    14     8     6    1
    15     8    10    1
    16    38    37    1
    17    38    42    2
    18    27    28    1
    19    11    10    1
    20     5     6    1
    21    37    36    1
    22     6     7    1
    23    42    43    1
    24    28    29    1
    25    10    12    1
    26    30    29    1
    27    30    35    1
    28    36    35    1
    29    36    44    1
    30    12     7    1
    31    12    13    1
    32    43    44    2
    33    29    31    1
    34    35    33    1
    35    33    31    1
    36    33    34    1
    37    31    32    1
    38    13    14    1
    39    13    22    1
    40    14    15    1
    41    22    21    2
    42    22    16    1
    43    21    20    1
    44    15    16    2
    45    16    17    1
    46    20    19    1
    47    17    19    2
    48    17    18    1
