@<TRIPOS>MOLECULE
3ruf_UDP_A_1.pdb
 25 26 0 0 0
SMALL
GASTEIGER

@<TRIPOS>ATOM
      1  N1        12.3140   14.4330  -19.0050 N.am  344  UDP344     -0.1766
      2  C2        12.8450   13.6450  -20.0880 C.1   344  UDP344      0.2845
      3  N3        13.7530   14.1940  -20.9450 N.2   344  UDP344     -0.2452
      4  C4        14.1400   15.4850  -20.8410 C.1   344  UDP344      0.2182
      5  C5        13.6250   16.3050  -19.7980 C.2   344  UDP344      0.1242
      6  C6        12.7160   15.7230  -18.9070 C.2   344  UDP344      0.0929
      7  O2        12.5250   12.4500  -20.2310 O.2   344  UDP344     -0.1918
      8  O4        14.9650   15.9530  -21.6580 O.2   344  UDP344     -0.2085
      9  C1'       11.3600   13.8720  -18.0570 C.3   344  UDP344      0.2401
     10  C2'       11.6770   14.1170  -16.5660 C.3   344  UDP344      0.2319
     11  O2'       12.6730   13.2400  -15.9520 O.3   344  UDP344     -0.2157
     12  C3'       10.2710   14.0190  -15.9670 C.3   344  UDP344      0.2158
     13  C4'        9.3110   14.4440  -17.0700 C.3   344  UDP344      0.1799
     14  O4'       10.0930   14.5320  -18.2560 O.3   344  UDP344     -0.3320
     15  O3'        9.9490   12.6590  -15.6390 O.3   344  UDP344     -0.2175
     16  C5'        8.7130   15.8130  -16.8270 C.3   344  UDP344      0.1813
     17  O5'        9.7960   16.6180  -16.3890 O.3   344  UDP344     -0.3111
     18  PA         9.6430   18.1740  -16.2910 P.3   344  UDP344      0.2231
     19  O1A       11.0020   18.7200  -15.9180 O.3   344  UDP344     -0.4370
     20  O2A        9.0870   18.8110  -17.5340 O.2   344  UDP344     -0.5169
     21  O3A        8.5390   18.3900  -15.1000 O.3   344  UDP344     -0.2261
     22  PB         8.3230   17.6680  -13.6450 P.3   344  UDP344      0.5373
     23  O1B        7.2570   16.5700  -13.7480 O.2   344  UDP344     -0.2221
     24  O2B        9.6270   17.4560  -12.8740 O.3   344  UDP344     -0.1143
     25  O3B        7.8680   19.0470  -13.0290 O.3   344  UDP344     -0.1143
@<TRIPOS>BOND
     1     8     4    2
     2     3     4    2
     3     3     2    2
     4     4     5    1
     5     7     2    2
     6     2     1   am
     7     5     6    2
     8     1     6    1
     9     1     9    1
    10    14     9    1
    11    14    13    1
    12     9    10    1
    13    20    18    2
    14    13    16    1
    15    13    12    1
    16    16    17    1
    17    10    12    1
    18    10    11    1
    19    17    18    1
    20    18    19    1
    21    18    21    1
    22    12    15    1
    23    21    22    1
    24    23    22    2
    25    22    25    1
    26    22    24    1
