@<TRIPOS>MOLECULE
3ruh_NAD_A_1.pdb
 44 48 0 0 0
SMALL
GASTEIGER

@<TRIPOS>ATOM
      1  PA        30.4510   -6.8200   14.6190 P.3   343  NAD343      0.2189
      2  O1A       30.8340   -7.6260   15.7890 O.3   343  NAD343     -0.4371
      3  O2A       30.3320   -5.3540   14.7590 O.2   343  NAD343     -0.5170
      4  O5B       31.5030   -7.0330   13.4670 O.3   343  NAD343     -0.3112
      5  C5B       31.6880   -8.2920   12.8550 C.3   343  NAD343      0.1813
      6  C4B       33.1800   -8.5210   12.5420 C.3   343  NAD343      0.1821
      7  O4B       33.4520   -8.2110   11.1410 O.3   343  NAD343     -0.3135
      8  C3B       34.0870   -7.5980   13.3850 C.3   343  NAD343      0.2184
      9  O3B       35.0440   -8.3940   14.0660 O.3   343  NAD343     -0.2174
     10  C2B       34.7710   -6.7150   12.3470 C.3   343  NAD343      0.2570
     11  O2B       36.0950   -6.3350   12.7500 O.3   343  NAD343     -0.2130
     12  C1B       34.7980   -7.6770   11.1610 C.3   343  NAD343      0.3186
     13  N9A       35.0760   -6.9690    9.9170 N.pl3 343  NAD343     -0.1439
     14  C8A       34.4910   -5.8510    9.4880 C.3   343  NAD343      0.3377
     15  N7A       35.0170   -5.5190    8.3120 N.2   343  NAD343     -0.2095
     16  C5A       35.9300   -6.4320    7.9920 C.2   343  NAD343      0.2526
     17  C6A       36.7800   -6.6120    6.9070 C.2   343  NAD343      0.4393
     18  N6A       36.7890   -5.7520    5.8940 N.pl3 343  NAD343      0.2180
     19  N1A       37.6020   -7.6760    6.9040 N.2   343  NAD343      0.0021
     20  C2A       37.6010   -8.5450    7.9110 C.3   343  NAD343      0.5254
     21  N3A       36.8020   -8.3990    8.9580 N.2   343  NAD343     -0.0055
     22  C4A       35.9630   -7.3570    9.0190 C.2   343  NAD343      0.3518
     23  O3        29.0870   -7.3870   13.9550 O.3   343  NAD343     -0.2703
     24  PN        28.2430   -8.6750   14.4540 P.3   343  NAD343      0.2189
     25  O1N       29.0570   -9.5730   15.2940 O.3   343  NAD343     -0.4371
     26  O2N       26.9210   -8.2230   14.9230 O.2   343  NAD343     -0.5170
     27  O5D       28.0910   -9.4700   13.1310 O.3   343  NAD343     -0.3112
     28  C5D       27.1550   -9.0190   12.2650 C.3   343  NAD343      0.1813
     29  C4D       27.4110   -9.5620   10.9020 C.3   343  NAD343      0.1799
     30  O4D       26.1280   -9.9270   10.3780 O.3   343  NAD343     -0.3327
     31  C3D       27.8440   -8.4010   10.0290 C.3   343  NAD343      0.2158
     32  O3D       28.2020   -8.9360    8.7440 O.3   343  NAD343     -0.2175
     33  C2D       26.5430   -7.6170    9.9620 C.3   343  NAD343      0.2309
     34  O2D       26.5110   -6.7540    8.8340 O.3   343  NAD343     -0.2158
     35  C1D       25.5410   -8.7450    9.7590 C.3   343  NAD343      0.2263
     36  N1N       24.2920   -8.5050   10.4880 N.pl3 343  NAD343     -0.2787
     37  C2N       24.3140   -8.2630   11.8670 C.3   343  NAD343      0.1244
     38  C3N       23.1360   -8.0450   12.5620 C.2   343  NAD343      0.0544
     39  C7N       23.1670   -7.7760   14.0810 C.2   343  NAD343      0.2818
     40  O7N       22.4580   -8.4150   14.8500 O.2   343  NAD343     -0.2670
     41  N7N       24.0040   -6.8230   14.4840 N.am  343  NAD343     -0.0839
     42  C4N       21.9370   -8.0830   11.8470 C.2   343  NAD343      0.0033
     43  C5N       21.9040   -8.3260   10.4670 C.2   343  NAD343      0.0157
     44  C6N       23.0870   -8.5390    9.7860 C.2   343  NAD343      0.0633
@<TRIPOS>BOND
     1    18    17    1
     2    19    17    2
     3    19    20    1
     4    17    16    1
     5    20    21    1
     6    16    15    2
     7    16    22    1
     8    15    14    1
     9    32    31    1
    10    34    33    1
    11    21    22    2
    12    22    13    1
    13    14    13    1
    14    35    33    1
    15    35    30    1
    16    35    36    1
    17    44    43    2
    18    44    36    1
    19    13    12    1
    20    33    31    1
    21    31    29    1
    22    30    29    1
    23    43    42    1
    24    36    37    1
    25    29    28    1
    26     7    12    1
    27     7     6    1
    28    12    10    1
    29    42    38    2
    30    37    38    1
    31    28    27    1
    32    10    11    1
    33    10     8    1
    34     6     5    1
    35     6     8    1
    36    38    39    1
    37     5     4    1
    38    27    24    1
    39     8     9    1
    40     4     1    1
    41    23    24    1
    42    23     1    1
    43    39    41   am
    44    39    40    2
    45    24    26    2
    46    24    25    1
    47     1     3    2
    48     1     2    1
