@<TRIPOS>MOLECULE
3ruh_UD6_A_1.pdb
 39 41 0 0 0
SMALL
GASTEIGER

@<TRIPOS>ATOM
      1  N1        17.5030    2.9350   19.0120 N.am  344  UD6344     -0.1766
      2  C2        17.0280    3.6370   20.1240 C.1   344  UD6344      0.2845
      3  O2        15.8440    3.9600   20.1970 O.2   344  UD6344     -0.1918
      4  N3        17.9030    3.9820   21.1590 N.2   344  UD6344     -0.2452
      5  C4        19.2540    3.6230   21.0880 C.1   344  UD6344      0.2182
      6  O4        20.0070    3.9350   22.0100 O.2   344  UD6344     -0.2085
      7  C5        19.7330    2.9190   19.9820 C.2   344  UD6344      0.1242
      8  C6        18.8630    2.5730   18.9470 C.2   344  UD6344      0.0929
      9  PA        19.5590   -1.2520   16.6130 P.3   344  UD6344      0.2189
     10  PB        18.5140   -2.0580   14.0340 P.3   344  UD6344      0.2207
     11  C1'       19.2090   -3.2920   11.8500 C.3   344  UD6344      0.2431
     12  O1'       19.1250   -3.2960   13.2670 O.3   344  UD6344     -0.2880
     13  O1A       20.7140   -0.4310   16.1800 O.2   344  UD6344     -0.5170
     14  C1B       16.5490    2.5950   17.9320 C.3   344  UD6344      0.2401
     15  O1B       17.0480   -2.2300   14.1640 O.3   344  UD6344     -0.4371
     16  C2'       18.4780   -4.5640   11.3640 C.3   344  UD6344      0.0971
     17  O2'       17.1350    3.5110   15.7040 O.3   344  UD6344     -0.2157
     18  O2A       19.6140   -1.9430   17.9170 O.3   344  UD6344     -0.4371
     19  C2B       17.1430    2.3400   16.5320 C.3   344  UD6344      0.2319
     20  O2B       19.0620   -0.8300   13.4040 O.2   344  UD6344     -0.5170
     21  C3'       19.1900   -5.7950   11.9320 C.3   344  UD6344      0.1899
     22  O3'       18.6340   -7.0100   11.4390 O.3   344  UD6344     -0.2201
     23  O3A       19.2390   -2.3550   15.4720 O.3   344  UD6344     -0.2703
     24  C3B       16.1670    1.3020   15.9980 C.3   344  UD6344      0.2158
     25  O3B       14.9150    1.9230   15.6740 O.3   344  UD6344     -0.2175
     26  C4'       20.6300   -5.7170   11.4750 C.3   344  UD6344      0.2118
     27  O4'       20.6280   -5.7330   10.0450 O.3   344  UD6344     -0.2177
     28  C4B       15.9790    0.4080   17.2300 C.3   344  UD6344      0.1799
     29  O4B       15.9270    1.3470   18.3500 O.3   344  UD6344     -0.3320
     30  C5'       21.3280   -4.4500   12.0120 C.3   344  UD6344      0.1833
     31  O5'       20.6350   -3.2730   11.4930 O.3   344  UD6344     -0.3273
     32  C5B       17.0970   -0.6650   17.4090 C.3   344  UD6344      0.1813
     33  O5B       18.2230   -0.3710   16.5830 O.3   344  UD6344     -0.3112
     34  C6'       22.8380   -4.5490   11.6990 C.3   344  UD6344      0.2142
     35  O6'       23.3110   -3.3020   11.2100 O.3   344  UD6344     -0.2176
     36  C7'       16.0700   -3.8940   10.9400 C.2   344  UD6344      0.1513
     37  O7'       16.4490   -3.2680    9.9490 O.2   344  UD6344     -0.2960
     38  C8'       14.5900   -3.9300   11.3100 C.3   344  UD6344      0.0722
     39  C9'       16.9900   -4.5690   11.7380 C.3   344  UD6344      0.0722
@<TRIPOS>BOND
     1    37    36    2
     2    27    26    1
     3    36    38    1
     4    36    39    1
     5    35    34    1
     6    16    39    1
     7    16    11    1
     8    16    21    1
     9    22    21    1
    10    26    21    1
    11    26    30    1
    12    31    11    1
    13    31    30    1
    14    34    30    1
    15    11    12    1
    16    12    10    1
    17    20    10    2
    18    10    15    1
    19    10    23    1
    20    23     9    1
    21    25    24    1
    22    17    19    1
    23    24    19    1
    24    24    28    1
    25    13     9    2
    26    19    14    1
    27    33     9    1
    28    33    32    1
    29     9    18    1
    30    28    32    1
    31    28    29    1
    32    14    29    1
    33    14     1    1
    34     8     1    1
    35     8     7    2
    36     1     2   am
    37     7     5    1
    38     2     3    2
    39     2     4    2
    40     5     4    2
    41     5     6    2
