@<TRIPOS>MOLECULE
3ruk_AER_A_1.pdb
 26 30 0 0 0
SMALL
GASTEIGER

@<TRIPOS>ATOM
      1  C1        27.8520    1.7560   32.4260 C.3   601  AER601      0.0063
      2  C2        28.1460    3.1800   31.9760 C.3   601  AER601      0.0335
      3  C3        29.4440    3.2620   31.2140 C.3   601  AER601      0.1560
      4  O3        29.5830    4.6050   30.7620 O.3   601  AER601     -0.2228
      5  C4        29.3920    2.3620   29.9760 C.3   601  AER601      0.0545
      6  C5        28.9100    0.9730   30.2900 C.2   601  AER601     -0.0466
      7  C6        29.5390   -0.0010   29.6360 C.2   601  AER601     -0.0345
      8  C7        29.4550   -1.4600   30.0090 C.3   601  AER601      0.0254
      9  C8        28.2430   -1.7880   30.8760 C.3   601  AER601      0.0046
     10  C9        28.0110   -0.6780   31.9130 C.3   601  AER601      0.0038
     11  C10       27.7920    0.7150   31.3030 C.3   601  AER601      0.0150
     12  C11       26.9780   -1.0430   32.9820 C.3   601  AER601      0.0003
     13  C12       27.1990   -2.4360   33.5850 C.3   601  AER601      0.0003
     14  C13       27.2530   -3.4800   32.5040 C.3   601  AER601      0.0038
     15  C14       28.4590   -3.0720   31.6850 C.3   601  AER601      0.0006
     16  C15       28.9390   -4.3240   30.9550 C.3   601  AER601      0.0004
     17  C16       28.5780   -5.5020   31.8420 C.3   601  AER601      0.0044
     18  C17       27.6350   -4.8770   32.8640 C.3   601  AER601      0.0238
     19  C18       25.9050   -3.6210   31.7750 C.3   601  AER601      0.0003
     20  C19       26.4090    0.8530   30.6830 C.3   601  AER601      0.0040
     21  C20       27.1180   -5.6210   34.0780 C.ar  601  AER601     -0.0033
     22  C21       27.9690   -6.4660   34.7770 C.ar  601  AER601      0.0946
     23  N22       27.5100   -7.1210   35.8500 N.ar  601  AER601     -0.2426
     24  C23       26.2300   -6.9880   36.2690 C.ar  601  AER601      0.0989
     25  C24       25.3330   -6.1570   35.6120 C.ar  601  AER601      0.0204
     26  C25       25.7850   -5.4680   34.4980 C.ar  601  AER601     -0.0011
@<TRIPOS>BOND
     1     7     8    1
     2     7     6    2
     3     5     6    1
     4     5     3    1
     5     8     9    1
     6     6    11    1
     7    20    11    1
     8     4     3    1
     9     9    15    1
    10     9    10    1
    11    16    15    1
    12    16    17    1
    13     3     2    1
    14    11    10    1
    15    11     1    1
    16    15    14    1
    17    19    14    1
    18    17    18    1
    19    10    12    1
    20     2     1    1
    21    14    18    1
    22    14    13    1
    23    18    21    1
    24    12    13    1
    25    21    26   ar
    26    21    22   ar
    27    26    25   ar
    28    22    23   ar
    29    25    24   ar
    30    23    24   ar
