@<TRIPOS>MOLECULE
3ruk_HEM_A_1.pdb
 43 50 0 0 0
SMALL
GASTEIGER

@<TRIPOS>ATOM
      1  CHA       27.2710  -10.1130   33.6870 C.2   600  HEM600      0.0000
      2  CHB       25.8810   -9.8970   38.3620 C.2   600  HEM600      0.0000
      3  CHC       29.7680   -7.1610   39.2320 C.2   600  HEM600      0.0000
      4  CHD       31.2940   -7.6750   34.7060 C.2   600  HEM600      0.0000
      5  C1A       26.5450  -10.2270   34.8650 C.2   600  HEM600      0.0000
      6  C2A       25.2450  -10.8240   34.9670 C.2   600  HEM600      0.0000
      7  C3A       24.8490  -10.7790   36.2650 C.2   600  HEM600      0.0000
      8  C4A       25.8890  -10.1550   37.0110 C.2   600  HEM600      0.0000
      9  CMA       23.5080  -11.2800   36.8660 C.3   600  HEM600      0.0000
     10  CAA       24.4820  -11.3620   33.7190 C.3   600  HEM600      0.0000
     11  CBA       24.2000  -12.8620   33.5580 C.3   600  HEM600      0.0000
     12  CGA       23.3850  -13.1070   32.2890 C.2   600  HEM600      0.0000
     13  O1A       22.7270  -14.1720   32.1530 O.co2 600  HEM600      0.0000
     14  O2A       23.3980  -12.2260   31.3970 O.co2 600  HEM600      0.0000
     15  C1B       26.7480   -9.0290   39.0040 C.ar  600  HEM600      0.0000
     16  C2B       26.6420   -8.4720   40.3300 C.ar  600  HEM600      0.0000
     17  C3B       27.7470   -7.7050   40.5420 C.ar  600  HEM600      0.0000
     18  C4B       28.5500   -7.7540   39.3780 C.ar  600  HEM600      0.0000
     19  CMB       25.4300   -8.7490   41.2920 C.3   600  HEM600      0.0000
     20  CAB       28.1450   -6.8760   41.7760 C.2   600  HEM600      0.0000
     21  CBB       27.5390   -7.1790   42.9000 C.2   600  HEM600      0.0000
     22  C1C       30.5580   -7.1530   38.1120 C.2   600  HEM600      0.0000
     23  C2C       31.8970   -6.6000   38.0110 C.2   600  HEM600      0.0000
     24  C3C       32.2920   -6.7470   36.7300 C.2   600  HEM600      0.0000
     25  C4C       31.2300   -7.3790   36.0210 C.2   600  HEM600      0.0000
     26  CMC       32.7040   -5.9780   39.2080 C.3   600  HEM600      0.0000
     27  CAC       33.6120   -6.3560   36.0330 C.2   600  HEM600      0.0000
     28  CBC       34.7760   -6.6050   36.5960 C.2   600  HEM600      0.0000
     29  C1D       30.3660   -8.3590   33.9880 C.ar  600  HEM600      0.0000
     30  C2D       30.4760   -8.5970   32.5830 C.ar  600  HEM600      0.0000
     31  C3D       29.2130   -9.3740   32.2240 C.ar  600  HEM600      0.0000
     32  C4D       28.4840   -9.5060   33.4720 C.ar  600  HEM600      0.0000
     33  CMD       31.6510   -8.1160   31.7300 C.3   600  HEM600      0.0000
     34  CAD       28.8240   -9.9120   30.8300 C.3   600  HEM600      0.0000
     35  CBD       29.1050  -11.4210   30.7270 C.3   600  HEM600      0.0000
     36  CGD       28.8880  -11.9180   29.3100 C.2   600  HEM600      0.0000
     37  O1D       29.4750  -12.9280   28.8780 O.co2 600  HEM600      0.0000
     38  O2D       28.1210  -11.3090   28.5530 O.co2 600  HEM600      0.0000
     39  NA        26.9000   -9.8310   36.1360 N.2   600  HEM600      0.0000
     40  NB        27.9030   -8.5330   38.4690 N.ar  600  HEM600      0.0000
     41  NC        30.1810   -7.6210   36.8740 N.2   600  HEM600      0.0000
     42  ND        29.1970   -8.8840   34.4560 N.ar  600  HEM600      0.0000
     43 FE         28.5340   -8.7570   36.5130 Fe    600  HEM600      0.0000
@<TRIPOS>BOND
     1    38    36   ar
     2    37    36   ar
     3    36    35    1
     4    35    34    1
     5    34    31    1
     6    14    12   ar
     7    33    30    1
     8    13    12   ar
     9    31    30   ar
    10    31    32   ar
    11    12    11    1
    12    30    29   ar
    13    32     1    2
    14    32    42   ar
    15    11    10    1
    16     1     5    1
    17    10     6    1
    18    29    42   ar
    19    29     4    2
    20    42    43    1
    21     4    25    1
    22     5     6    1
    23     5    39    2
    24     6     7    2
    25    25    24    1
    26    25    41    2
    27    27    28    2
    28    27    24    1
    29    39    43    1
    30    39     8    1
    31     7     9    1
    32     7     8    1
    33    43    41    1
    34    43    40    1
    35    24    23    2
    36    41    22    1
    37     8     2    2
    38    23    22    1
    39    23    26    1
    40    22     3    2
    41     2    15    1
    42    40    15   ar
    43    40    18   ar
    44    15    16   ar
    45     3    18    1
    46    18    17   ar
    47    16    17   ar
    48    16    19    1
    49    17    20    1
    50    20    21    2
