@<TRIPOS>MOLECULE
3rul_OMY_E_1.pdb
 14 14 0 0 0
SMALL
GASTEIGER

@<TRIPOS>ATOM
      1  N         -5.4300    6.0130   27.6950 N.3     6  OMY6       -0.1214
      2  CA        -4.7530    5.3690   26.5390 C.3     6  OMY6        0.1905
      3  OCZ       -5.2700    1.1050   30.9280 O.3     6  OMY6       -0.2857
      4  CE2       -6.3800    2.7610   29.5870 C.ar    6  OMY6        0.0427
      5  CE1       -4.4140    1.6580   28.7730 C.ar    6  OMY6        0.0962
      6  CZ        -5.3570    1.8400   29.7770 C.ar    6  OMY6        0.2061
      7  CG        -5.5040    3.3030   27.3940 C.ar    6  OMY6        0.0106
      8  CD2       -6.4490    3.4990   28.4040 C.ar    6  OMY6        0.0016
      9  CD1       -4.4730    2.3880   27.5870 C.ar    6  OMY6        0.0128
     10  CB        -5.5500    4.1400   26.1170 C.3     6  OMY6        0.1992
     11 CL         -3.1690    0.4930   29.0410 Cl      6  OMY6       -0.0789
     12  O         -5.3160    7.3260   25.2300 O.2     6  OMY6       -0.2866
     13  C         -4.5320    6.3970   25.4180 C.2     6  OMY6        0.2290
     14  ODE       -6.8950    4.5380   25.7680 O.3     6  OMY6       -0.2162
@<TRIPOS>BOND
     1    12    13    2
     2    13     2    1
     3    14    10    1
     4    10     2    1
     5    10     7    1
     6     2     1    1
     7     7     9   ar
     8     7     8   ar
     9     9     5   ar
    10     8     4   ar
    11     5    11    1
    12     5     6   ar
    13     4     6   ar
    14     6     3    1
