@<TRIPOS>MOLECULE
3rum_RAM_B_1.pdb
 10 10 0 0 0
SMALL
GASTEIGER

@<TRIPOS>ATOM
      1  C1       -26.5840  -12.5600  -10.3370 C.3     9  RAM9        0.1776
      2  C2       -26.7170  -12.6850   -8.8260 C.3     9  RAM9        0.2141
      3  C3       -26.6180  -11.3260   -8.1780 C.3     9  RAM9        0.2172
      4  C4       -27.6890  -10.4190   -8.7630 C.3     9  RAM9        0.2116
      5  C5       -27.5550  -10.3910  -10.2790 C.3     9  RAM9        0.1483
      6  C6       -28.7150   -9.5720  -10.8610 C.3     9  RAM9        0.0349
      7  O2       -27.9890  -13.2570   -8.5240 O.3     9  RAM9       -0.2176
      8  O3       -26.7470  -11.4480   -6.7580 O.3     9  RAM9       -0.2175
      9  O4       -27.6100   -9.0900   -8.2140 O.3     9  RAM9       -0.2177
     10  O5       -27.6300  -11.7210  -10.8510 O.3     9  RAM9       -0.3508
@<TRIPOS>BOND
     1     6     5    1
     2    10     1    1
     3    10     5    1
     4     1     2    1
     5     5     4    1
     6     2     7    1
     7     2     3    1
     8     4     9    1
     9     4     3    1
    10     3     8    1
