@<TRIPOS>MOLECULE
3rum_MAL_A_1.pdb
 23 24 0 0 0
SMALL
GASTEIGER

@<TRIPOS>ATOM
      1  C1       -16.4710  -11.3200   12.1690 C.3   401  MAL401      0.2695
      2  C2       -17.7850  -11.4840   11.4130 C.3   401  MAL401      0.2406
      3  C3       -17.4840  -12.0680   10.0400 C.3   401  MAL401      0.2198
      4  C4       -16.5420  -11.1210    9.3040 C.3   401  MAL401      0.2144
      5  C5       -15.2610  -10.9120   10.1130 C.3   401  MAL401      0.1835
      6  C6       -14.3880   -9.8450    9.4520 C.3   401  MAL401      0.2142
      7  O1       -15.8910  -12.5940   12.3620 O.3   401  MAL401     -0.3257
      8  O2       -18.6110  -12.3680   12.1500 O.3   401  MAL401     -0.2149
      9  O3       -18.6780  -12.2910    9.3080 O.3   401  MAL401     -0.2174
     10  O4       -16.2090  -11.7000    8.0710 O.3   401  MAL401     -0.2176
     11  O5       -15.5480  -10.5260   11.4440 O.3   401  MAL401     -0.3256
     12  O6       -13.1100   -9.8320   10.0550 O.3   401  MAL401     -0.2176
     13  C1'      -14.3180  -14.8190   15.4240 C.3   401  MAL401      0.3023
     14  C2'      -15.7000  -14.1960   15.6730 C.3   401  MAL401      0.2433
     15  C3'      -16.3260  -13.7290   14.3750 C.3   401  MAL401      0.2168
     16  C4'      -15.3300  -12.8570   13.6200 C.3   401  MAL401      0.1804
     17  C5'      -14.0170  -13.5900   13.3930 C.3   401  MAL401      0.1804
     18  C6'      -13.0650  -12.6490   12.6540 C.3   401  MAL401      0.2141
     19  O1'      -14.4890  -16.0500   14.7730 O.3   401  MAL401     -0.1869
     20  O2'      -16.5860  -15.1490   16.2180 O.3   401  MAL401     -0.2148
     21  O3'      -17.5150  -12.9990   14.6350 O.3   401  MAL401     -0.2175
     22  O5'      -13.4680  -13.9860   14.6350 O.3   401  MAL401     -0.3237
     23  O6'      -11.8380  -13.2990   12.3980 O.3   401  MAL401     -0.2176
@<TRIPOS>BOND
     1    10     4    1
     2     4     3    1
     3     4     5    1
     4     9     3    1
     5     6    12    1
     6     6     5    1
     7     3     2    1
     8     5    11    1
     9     2     8    1
    10     2     1    1
    11    11     1    1
    12     1     7    1
    13     7    16    1
    14    23    18    1
    15    18    17    1
    16    17    16    1
    17    17    22    1
    18    16    15    1
    19    15    21    1
    20    15    14    1
    21    22    13    1
    22    19    13    1
    23    13    14    1
    24    14    20    1
