@<TRIPOS>MOLECULE
3rum_MAN_B_1.pdb
 11 11 0 0 0
SMALL
GASTEIGER

@<TRIPOS>ATOM
      1  C1       -22.0680  -14.1140   -0.1040 C.3    13  MAN13       0.1777
      2  C2       -20.6720  -13.5370   -0.3030 C.3    13  MAN13       0.2141
      3  C3       -19.6440  -14.6060    0.0610 C.3    13  MAN13       0.2173
      4  C4       -19.8830  -14.9780    1.5200 C.3    13  MAN13       0.2142
      5  C5       -21.3160  -15.5470    1.6720 C.3    13  MAN13       0.1810
      6  C6       -21.6030  -15.9510    3.1300 C.3    13  MAN13       0.2141
      7  O2       -20.4750  -12.3310    0.4330 O.3    13  MAN13      -0.2176
      8  O3       -18.3180  -14.0820   -0.0850 O.3    13  MAN13      -0.2175
      9  O4       -18.9430  -15.9750    1.9150 O.3    13  MAN13      -0.2176
     10  O5       -22.2740  -14.5230    1.2610 O.3    13  MAN13      -0.3481
     11  O6       -21.5440  -14.8400    4.0230 O.3    13  MAN13      -0.2176
@<TRIPOS>BOND
     1     2     1    1
     2     2     3    1
     3     2     7    1
     4     1    10    1
     5     8     3    1
     6     3     4    1
     7    10     5    1
     8     4     5    1
     9     4     9    1
    10     5     6    1
    11     6    11    1
