@<TRIPOS>MOLECULE
3rum_GHP_B_1.pdb
 11 11 0 0 0
SMALL
GASTEIGER

@<TRIPOS>ATOM
      1  N        -19.7820   -4.9440   -3.6010 N.3     1  GHP1       -0.1196
      2  CA       -19.7340   -6.1670   -4.4100 C.3     1  GHP1        0.1783
      3  C        -18.2700   -6.3440   -4.8060 C.2     1  GHP1        0.2306
      4  O        -17.3950   -5.7840   -4.1510 O.2     1  GHP1       -0.2863
      5  C1       -20.2500   -7.3430   -3.5800 C.ar    1  GHP1        0.0027
      6  C2       -19.3770   -8.1560   -2.8600 C.ar    1  GHP1        0.0008
      7  C3       -19.8700   -9.2340   -2.1240 C.ar    1  GHP1        0.0418
      8  C4       -21.2210   -9.4880   -2.0940 C.ar    1  GHP1        0.1957
      9  O4       -21.6680  -10.5340   -1.3510 O.3     1  GHP1       -0.2866
     10  C5       -22.0960   -8.6780   -2.8030 C.ar    1  GHP1        0.0418
     11  C6       -21.6150   -7.6070   -3.5500 C.ar    1  GHP1        0.0008
@<TRIPOS>BOND
     1     3     2    1
     2     3     4    2
     3     2     1    1
     4     2     5    1
     5     5    11   ar
     6     5     6   ar
     7    11    10   ar
     8     6     7   ar
     9    10     8   ar
    10     7     8   ar
    11     8     9    1
