@<TRIPOS>MOLECULE
3rum_OMX_B_1.pdb
 13 13 0 0 0
SMALL
GASTEIGER

@<TRIPOS>ATOM
      1  N        -21.7770  -18.2820   -7.1510 N.3     6  OMX6       -0.1214
      2  CA       -23.1390  -17.8650   -6.7360 C.3     6  OMX6        0.1905
      3  C        -23.5980  -18.7330   -5.5540 C.2     6  OMX6        0.2290
      4  O        -23.2950  -19.9270   -5.4840 O.2     6  OMX6       -0.2866
      5  CB       -24.0520  -18.0040   -7.9580 C.3     6  OMX6        0.1992
      6  OC       -23.9540  -19.3780   -8.3890 O.3     6  OMX6       -0.2162
      7  CG       -23.3830  -17.0410   -8.9210 C.ar    6  OMX6        0.0098
      8  CD1      -22.4400  -17.5070   -9.8310 C.ar    6  OMX6        0.0015
      9  CD2      -23.6430  -15.6800   -8.8090 C.ar    6  OMX6        0.0015
     10  CE1      -21.7820  -16.6060  -10.6610 C.ar    6  OMX6        0.0418
     11  CE2      -22.9840  -14.7730   -9.6380 C.ar    6  OMX6        0.0418
     12  CZ       -22.0530  -15.2440  -10.5610 C.ar    6  OMX6        0.1957
     13  OH       -21.3880  -14.3700  -11.3630 O.3     6  OMX6       -0.2866
@<TRIPOS>BOND
     1    13    12    1
     2    10    12   ar
     3    10     8   ar
     4    12    11   ar
     5     8     7   ar
     6    11     9   ar
     7     7     9   ar
     8     7     5    1
     9     6     5    1
    10     5     2    1
    11     1     2    1
    12     2     3    1
    13     3     4    2
