@<TRIPOS>MOLECULE
3rum_MDF_B_1.pdb
 14 14 0 0 0
SMALL
GASTEIGER

@<TRIPOS>ATOM
      1  N        -24.3320  -18.1190   -4.6320 N.3     7  MDF7       -0.1161
      2  CA       -24.5120  -18.7100   -3.2870 C.3     7  MDF7        0.2124
      3  CG       -24.5110  -17.5840   -2.2420 C.ar    7  MDF7        0.0121
      4  CD1      -25.6560  -17.2550   -1.5000 C.ar    7  MDF7        0.0399
      5  CD2      -23.3220  -16.8880   -2.0320 C.ar    7  MDF7        0.0399
      6  CE1      -25.6460  -16.2220   -0.5510 C.ar    7  MDF7        0.1987
      7  CE2      -23.4010  -15.8890   -1.1050 C.ar    7  MDF7        0.1987
      8  CZ       -24.4760  -15.4920   -0.3330 C.ar    7  MDF7        0.0840
      9  OH1      -26.7760  -15.9220    0.1610 O.3     7  MDF7       -0.2865
     10  OH2      -22.1880  -15.2570   -0.9050 O.3     7  MDF7       -0.2865
     11  C        -25.7820  -19.5450   -3.2420 C.2     7  MDF7        0.3390
     12  O        -26.7020  -19.3140   -4.0300 O.2     7  MDF7       -0.2481
     13  OXT      -25.8540  -20.5430   -2.3290 O.3     7  MDF7       -0.4432
     14  CH3      -27.1170  -21.2150   -2.4400 C.3     7  MDF7        0.2557
@<TRIPOS>BOND
     1     1     2    1
     2    12    11    2
     3     2    11    1
     4     2     3    1
     5    11    13    1
     6    14    13    1
     7     3     5   ar
     8     3     4   ar
     9     5     7   ar
    10     4     6   ar
    11     7    10    1
    12     7     8   ar
    13     6     8   ar
    14     6     9    1
