@<TRIPOS>MOLECULE
3ruo_AG7_A_1.pdb
 43 45 0 0 0
SMALL
GASTEIGER

@<TRIPOS>ATOM
      1  C01      -24.9100    2.8290  -10.0330 C.2   190  AG7190      0.1708
      2  C02      -24.2780    2.0370   -8.9070 C.3   190  AG7190      0.0758
      3  O03      -24.5400    3.9640  -10.3270 O.2   190  AG7190     -0.2943
      4  C04      -23.0630    2.7310   -8.2790 C.3   190  AG7190      0.0899
      5  C05      -22.6290    1.9630   -7.0240 C.3   190  AG7190      0.0359
      6  C06      -23.7080    1.9470   -5.9590 C.ar  190  AG7190     -0.0215
      7  C07      -24.2740    0.7300   -5.5560 C.ar  190  AG7190     -0.0019
      8  C08      -25.2760    0.7100   -4.5800 C.ar  190  AG7190      0.0293
      9  C09      -25.7000    1.9110   -4.0120 C.ar  190  AG7190      0.1401
     10  C10      -25.1360    3.1160   -4.4090 C.ar  190  AG7190      0.0293
     11  C11      -24.1390    3.1380   -5.3790 C.ar  190  AG7190     -0.0019
     12  N12      -21.1710    3.9070   -9.2580 N.am  190  AG7190     -0.2071
     13  C13      -20.0020    4.0610  -10.1420 C.3   190  AG7190      0.0970
     14  C14      -20.2420    5.2050  -11.1440 C.3   190  AG7190      0.0383
     15  C15      -21.3530    4.9170  -12.1730 C.3   190  AG7190      0.1100
     16  C16      -21.5220    6.0280  -13.1710 C.1   190  AG7190      0.1250
     17  N17      -21.7220    5.5410  -14.3180 N.2   190  AG7190     -0.2063
     18  O18      -21.4850    7.2280  -12.9080 O.2   190  AG7190     -0.2271
     19  C19      -18.8140    4.3670   -9.2240 C.3   190  AG7190      0.0333
     20  C20      -18.3740    3.0910   -8.5070 C.3   190  AG7190      0.1113
     21  C21      -17.0710    2.5560   -9.0570 C.2   190  AG7190      0.3170
     22  O22      -15.9430    2.3550   -8.1570 O.3   190  AG7190     -0.4485
     23  O23      -16.9550    2.2890  -10.2430 O.2   190  AG7190     -0.2501
     24  C47      -21.9100    2.7840   -9.2500 C.2   190  AG7190      0.2416
     25  O48      -21.6680    1.8440  -10.0010 O.2   190  AG7190     -0.2733
     26  C50      -15.0050    1.2980   -8.3710 C.3   190  AG7190      0.2086
     27  C53      -15.4900    0.0420   -7.6740 C.3   190  AG7190      0.0513
     28  C57      -26.0340    2.2030  -10.8150 C.3   190  AG7190      0.1526
     29  N58      -26.7740    3.2690  -11.4890 N.am  190  AG7190     -0.1945
     30  C59      -28.0460    3.5360  -11.1750 C.2   190  AG7190      0.2862
     31  O60      -28.6870    2.8970  -10.3530 O.2   190  AG7190     -0.2666
     32  C78      -25.4880    1.1630  -11.8020 C.3   190  AG7190      0.0272
     33  C81      -26.6310    0.4250  -12.5020 C.3   190  AG7190      0.0022
     34  F1       -26.6610    1.9070   -3.0660 F     190  AG7190     -0.2042
     35  C82      -24.4650    1.7030  -12.7990 C.3   190  AG7190      0.0022
     36  C83      -21.6610    4.0920  -14.4570 C.3   190  AG7190      0.1387
     37  C84      -21.1090    3.7060  -13.0820 C.3   190  AG7190      0.0438
     38  C1       -28.7000    4.6780  -11.8650 C.ar  190  AG7190      0.1774
     39  C2       -30.0460    5.0620  -11.7850 C.ar  190  AG7190      0.0627
     40  C3       -30.0840    6.1840  -12.5900 C.ar  190  AG7190      0.1550
     41  O4       -28.8670    6.4610  -13.0910 O.2   190  AG7190     -0.3576
     42  N5       -28.0030    5.5490  -12.6480 N.ar  190  AG7190     -0.0726
     43  C4       -31.2980    7.0200  -12.8820 C.3   190  AG7190      0.0754
@<TRIPOS>BOND
     1    36    17    1
     2    36    37    1
     3    17    16    2
     4    16    18    2
     5    16    15    1
     6    41    42   ar
     7    41    40   ar
     8    37    15    1
     9    43    40    1
    10    35    32    1
    11    42    38   ar
    12    40    39   ar
    13    33    32    1
    14    15    14    1
    15    38    39   ar
    16    38    30    1
    17    32    28    1
    18    29    30   am
    19    29    28    1
    20    30    31    2
    21    14    13    1
    22    28     1    1
    23     3     1    2
    24    23    21    2
    25    13    12    1
    26    13    19    1
    27     1     2    1
    28    25    24    2
    29    12    24   am
    30    24     4    1
    31    19    20    1
    32    21    20    1
    33    21    22    1
    34     2     4    1
    35    26    22    1
    36    26    27    1
    37     4     5    1
    38     5     6    1
    39     6     7   ar
    40     6    11   ar
    41     7     8   ar
    42    11    10   ar
    43     8     9   ar
    44    10     9   ar
    45     9    34    1
