@<TRIPOS>MOLECULE
3rup_ADP_A_1.pdb
 27 29 0 0 0
SMALL
GASTEIGER

@<TRIPOS>ATOM
      1  PB        19.0460    6.4730   26.9860 P.3   1000  ADP1000     0.5373
      2  O1B       17.7190    6.8480   27.5880 O.3   1000  ADP1000    -0.1143
      3  O2B       19.3950    7.1670   25.6890 O.2   1000  ADP1000    -0.2221
      4  O3B       20.1590    6.4800   28.0040 O.3   1000  ADP1000    -0.1143
      5  PA        17.7410    3.9050   26.4210 P.3   1000  ADP1000     0.2231
      6  O1A       16.4220    4.6310   26.3280 O.3   1000  ADP1000    -0.4370
      7  O2A       18.0560    2.8490   25.3790 O.2   1000  ADP1000    -0.5169
      8  O3A       18.9830    4.9410   26.4790 O.3   1000  ADP1000    -0.2261
      9  O5'       17.8890    3.2070   27.8700 O.3   1000  ADP1000    -0.3111
     10  C5'       18.9920    2.3360   28.1380 C.3   1000  ADP1000     0.1813
     11  C4'       18.5340    1.0260   28.7690 C.3   1000  ADP1000     0.1821
     12  O4'       17.8510    1.3140   29.9840 O.3   1000  ADP1000    -0.3135
     13  C3'       17.5370    0.2840   27.8870 C.3   1000  ADP1000     0.2184
     14  O3'       17.7300   -1.1320   28.0530 O.3   1000  ADP1000    -0.2174
     15  C2'       16.1790    0.7160   28.4360 C.3   1000  ADP1000     0.2570
     16  O2'       15.1100   -0.2170   28.2110 O.3   1000  ADP1000    -0.2130
     17  C1'       16.4790    0.8720   29.9170 C.3   1000  ADP1000     0.3186
     18  N9        15.5810    1.8240   30.6130 N.pl3 1000  ADP1000    -0.1439
     19  C8        15.5130    3.1500   30.3920 C.3   1000  ADP1000     0.3377
     20  N7        14.6270    3.7360   31.2270 N.2   1000  ADP1000    -0.2095
     21  C5        14.1030    2.7780   32.0110 C.2   1000  ADP1000     0.2526
     22  C6        13.0990    2.7260   33.1100 C.2   1000  ADP1000     0.4393
     23  N6        12.4810    3.8610   33.5080 N.pl3 1000  ADP1000     0.2180
     24  N1        12.8330    1.5240   33.6870 N.2   1000  ADP1000     0.0021
     25  C2        13.4620    0.4010   33.2730 C.3   1000  ADP1000     0.5254
     26  N3        14.3890    0.3810   32.2720 N.2   1000  ADP1000    -0.0055
     27  C4        14.7440    1.5160   31.6130 C.2   1000  ADP1000     0.3518
@<TRIPOS>BOND
     1     7     5    2
     2     3     1    2
     3     6     5    1
     4     5     8    1
     5     5     9    1
     6     8     1    1
     7     1     2    1
     8     1     4    1
     9     9    10    1
    10    13    14    1
    11    13    15    1
    12    13    11    1
    13    10    11    1
    14    16    15    1
    15    15    17    1
    16    11    12    1
    17    17    12    1
    18    17    18    1
    19    19    18    1
    20    19    20    1
    21    18    27    1
    22    20    21    2
    23    27    21    1
    24    27    26    2
    25    21    22    1
    26    26    25    1
    27    22    23    1
    28    22    24    2
    29    25    24    1
