@<TRIPOS>MOLECULE
3ruq_ADP_A_1.pdb
 27 29 0 0 0
SMALL
GASTEIGER

@<TRIPOS>ATOM
      1  PB      -107.4850   20.1680   46.2850 P.3   545  ADP545      0.5373
      2  O1B     -106.5300   20.3280   45.1310 O.2   545  ADP545     -0.2221
      3  O2B     -108.7720   19.5490   45.8050 O.3   545  ADP545     -0.1143
      4  O3B     -107.6930   21.3940   47.1730 O.3   545  ADP545     -0.1143
      5  PA      -105.9230   19.1680   48.5540 P.3   545  ADP545      0.2231
      6  O1A     -104.8520   18.1020   48.4320 O.2   545  ADP545     -0.5169
      7  O2A     -105.5160   20.6020   48.7180 O.3   545  ADP545     -0.4370
      8  O3A     -106.8710   19.0180   47.2450 O.3   545  ADP545     -0.2261
      9  O5'     -106.9000   18.7450   49.7720 O.3   545  ADP545     -0.3111
     10  C5'     -108.1900   19.3340   49.9460 C.3   545  ADP545      0.1813
     11  C4'     -109.0250   18.4840   50.9000 C.3   545  ADP545      0.1821
     12  O4'     -108.2530   18.1920   52.0700 O.3   545  ADP545     -0.3135
     13  C3'     -110.2880   19.2110   51.3630 C.3   545  ADP545      0.2184
     14  O3'     -111.3900   18.3010   51.5630 O.3   545  ADP545     -0.2174
     15  C2'     -109.8730   19.7300   52.7140 C.3   545  ADP545      0.2570
     16  O2'     -111.0020   19.9400   53.5460 O.3   545  ADP545     -0.2130
     17  C1'     -109.0440   18.5570   53.2030 C.3   545  ADP545      0.3186
     18  N9      -108.2660   18.9510   54.3970 N.pl3 545  ADP545     -0.1439
     19  C8      -107.4390   20.0030   54.5080 C.3   545  ADP545      0.3377
     20  N7      -106.9160   20.0710   55.7560 N.2   545  ADP545     -0.2095
     21  C5      -107.4200   19.0450   56.4580 C.2   545  ADP545      0.2526
     22  C6      -107.2860   18.5290   57.8320 C.2   545  ADP545      0.4393
     23  N6      -106.4900   19.1530   58.7370 N.pl3 545  ADP545      0.2180
     24  N1      -107.9860   17.4190   58.1530 N.2   545  ADP545      0.0021
     25  C2      -108.7850   16.8010   57.2790 C.3   545  ADP545      0.5254
     26  N3      -108.9600   17.2210   56.0180 N.2   545  ADP545     -0.0055
     27  C4      -108.3190   18.3190   55.5620 C.2   545  ADP545      0.3518
@<TRIPOS>BOND
     1     2     1    2
     2     3     1    1
     3     1     4    1
     4     1     8    1
     5     8     5    1
     6     6     5    2
     7     5     7    1
     8     5     9    1
     9     9    10    1
    10    10    11    1
    11    11    13    1
    12    11    12    1
    13    13    14    1
    14    13    15    1
    15    12    17    1
    16    15    17    1
    17    15    16    1
    18    17    18    1
    19    18    19    1
    20    18    27    1
    21    19    20    1
    22    27    26    2
    23    27    21    1
    24    20    21    2
    25    26    25    1
    26    21    22    1
    27    25    24    1
    28    22    24    2
    29    22    23    1
