@<TRIPOS>MOLECULE
3rus_ADP_A_1.pdb
 27 29 0 0 0
SMALL
GASTEIGER

@<TRIPOS>ATOM
      1  PB        26.3910  -46.3300   72.5100 P.3   545  ADP545      0.5373
      2  O1B       26.6030  -47.2060   71.2760 O.2   545  ADP545     -0.2221
      3  O2B       27.6760  -45.8410   73.1270 O.3   545  ADP545     -0.1143
      4  O3B       25.4240  -45.1840   72.3620 O.3   545  ADP545     -0.1143
      5  PA        24.8560  -48.6210   73.4990 P.3   545  ADP545      0.2231
      6  O1A       24.4450  -48.7790   72.0660 O.2   545  ADP545     -0.5169
      7  O2A       23.7880  -48.5180   74.5710 O.3   545  ADP545     -0.4370
      8  O3A       25.7910  -47.3040   73.6550 O.3   545  ADP545     -0.2261
      9  O5'       25.8470  -49.8330   73.9090 O.3   545  ADP545     -0.3111
     10  C5'       27.1360  -49.9890   73.3140 C.3   545  ADP545      0.1813
     11  C4'       27.9840  -50.9410   74.1530 C.3   545  ADP545      0.1821
     12  O4'       27.2250  -52.1210   74.4400 O.3   545  ADP545     -0.3135
     13  C3'       29.2490  -51.3860   73.4180 C.3   545  ADP545      0.2184
     14  O3'       30.3560  -51.5810   74.3220 O.3   545  ADP545     -0.2174
     15  C2'       28.8450  -52.7370   72.8910 C.3   545  ADP545      0.2570
     16  O2'       29.9810  -53.5560   72.6700 O.3   545  ADP545     -0.2130
     17  C1'       28.0260  -53.2430   74.0630 C.3   545  ADP545      0.3186
     18  N9        27.2580  -54.4420   73.6640 N.pl3 545  ADP545     -0.1439
     19  C8        26.4280  -54.5540   72.6150 C.3   545  ADP545      0.3377
     20  N7        25.9170  -55.8060   72.5400 N.2   545  ADP545     -0.2095
     21  C5        26.4330  -56.5110   73.5580 C.2   545  ADP545      0.2526
     22  C6        26.3150  -57.8900   74.0650 C.2   545  ADP545      0.4393
     23  N6        25.5250  -58.7980   73.4370 N.pl3 545  ADP545      0.2180
     24  N1        27.0220  -58.2120   75.1690 N.2   545  ADP545      0.0021
     25  C2        27.8150  -57.3340   75.7910 C.3   545  ADP545      0.5254
     26  N3        27.9760  -56.0680   75.3790 N.2   545  ADP545     -0.0055
     27  C4        27.3260  -55.6110   74.2870 C.2   545  ADP545      0.3518
@<TRIPOS>BOND
     1     2     1    2
     2     6     5    2
     3     4     1    1
     4     1     3    1
     5     1     8    1
     6    20    19    1
     7    20    21    2
     8    19    18    1
     9    16    15    1
    10    15    13    1
    11    15    17    1
    12    10     9    1
    13    10    11    1
    14    13    11    1
    15    13    14    1
    16    23    22    1
    17     5     8    1
    18     5     9    1
    19     5     7    1
    20    21    22    1
    21    21    27    1
    22    18    17    1
    23    18    27    1
    24    17    12    1
    25    22    24    2
    26    11    12    1
    27    27    26    2
    28    24    25    1
    29    26    25    1
