@<TRIPOS>MOLECULE
3rut_59G_A_1.pdb
 36 40 0 0 0
SMALL
GASTEIGER

@<TRIPOS>ATOM
      1  C13       -0.6270   51.5110  -20.5190 C.ar    1  59G1        0.0031
      2  C15       -2.3200   53.2050  -20.6570 C.ar    1  59G1        0.0031
      3  C17       -2.6320   51.2840  -19.1540 C.ar    1  59G1        0.0005
      4  C20       -4.1840   49.9220  -17.2330 C.ar    1  59G1        0.0129
      5  C21       -5.0120   49.4030  -16.2290 C.ar    1  59G1        0.0867
      6  C22       -5.7230   50.3540  -15.5390 C.ar    1  59G1        0.0420
      7  C24       -4.2180   51.3040  -17.3560 C.ar    1  59G1        0.0297
      8  C26       -5.1930   47.9780  -15.8580 C.2     1  59G1        0.3883
      9  C01        2.8720   58.1360  -22.4220 C.3     1  59G1        0.0080
     10  C02        3.7090   57.1330  -23.2100 C.3     1  59G1        0.0600
     11  C03        4.6160   56.1880  -22.3270 C.3     1  59G1        0.0080
     12  C04        2.9520   56.3910  -24.3270 C.ar    1  59G1        0.1534
     13  O05        3.3920   56.3270  -25.5990 O.2     1  59G1       -0.3580
     14  N06        2.5000   55.5950  -26.3520 N.ar    1  59G1       -0.0775
     15  C07        1.5070   55.2020  -25.5540 C.ar    1  59G1        0.1237
     16  C08        1.7510   55.6910  -24.2660 C.ar    1  59G1        0.0749
     17  C09        0.8790   55.4540  -23.0630 C.3     1  59G1        0.2364
     18  O10        0.5070   54.0590  -22.9620 O.3     1  59G1       -0.4705
     19  C11       -0.3220   53.4090  -21.9840 C.ar    1  59G1        0.1391
     20  C12        0.1300   52.2060  -21.4530 C.ar    1  59G1        0.0369
     21  C14       -1.8610   51.9970  -20.1120 C.ar    1  59G1        0.0002
     22  C16       -1.5540   53.9050  -21.5940 C.ar    1  59G1        0.0369
     23  C18       -2.5840   49.8910  -19.0430 C.ar    1  59G1        0.0000
     24  C19       -3.3550   49.2130  -18.0930 C.ar    1  59G1        0.0007
     25  S23       -5.3090   51.8820  -16.1940 S.2     1  59G1       -0.0862
     26  C25       -3.4590   51.9810  -18.2950 C.ar    1  59G1        0.0065
     27  O27       -6.1700   47.6820  -15.0730 O.co2   1  59G1       -0.2405
     28  O28       -4.4450   47.0760  -16.2630 O.co2   1  59G1       -0.2405
     29  C29        0.4260   54.4470  -25.9960 C.ar    1  59G1        0.0419
     30  C30       -0.7700   55.0790  -26.3280 C.ar    1  59G1        0.0600
     31 CL31       -0.9400   56.8180  -26.1910 Cl      1  59G1       -0.0822
     32  C32       -1.8510   54.3260  -26.7740 C.ar    1  59G1        0.0115
     33  C33       -1.7280   52.9450  -26.8920 C.ar    1  59G1        0.0017
     34  C34       -0.5330   52.3180  -26.5660 C.ar    1  59G1        0.0115
     35  C35        0.5460   53.0710  -26.1240 C.ar    1  59G1        0.0600
     36 CL36        1.9870   52.3000  -25.7310 Cl      1  59G1       -0.0822
@<TRIPOS>BOND
     1    33    32   ar
     2    33    34   ar
     3    32    30   ar
     4    34    35   ar
     5    14    13   ar
     6    14    15   ar
     7    30    31    1
     8    30    29   ar
     9    35    29   ar
    10    35    36    1
    11    29    15    1
    12    13    12   ar
    13    15    16   ar
    14    12    16   ar
    15    12    10    1
    16    16    17    1
    17    10     9    1
    18    10    11    1
    19    17    18    1
    20    18    19    1
    21    19    22   ar
    22    19    20   ar
    23    22     2   ar
    24    20     1   ar
    25     2    21   ar
    26     1    21   ar
    27    21     3    1
    28     3    23   ar
    29     3    26   ar
    30    23    24   ar
    31    26     7   ar
    32    24     4   ar
    33     7     4   ar
    34     7    25   ar
    35     4     5   ar
    36    28     8   ar
    37     5     8    1
    38     5     6   ar
    39    25     6   ar
    40     8    27   ar
