@<TRIPOS>MOLECULE
3ruu_37G_A_1.pdb
 36 40 0 0 0
SMALL
GASTEIGER

@<TRIPOS>ATOM
      1  C13       27.7820   -0.9560  -20.0480 C.ar    1  37G1        0.0028
      2  C15       25.9230   -2.4700  -20.1710 C.ar    1  37G1        0.0028
      3  C17       27.8810   -2.9840  -18.6750 C.2     1  37G1       -0.0163
      4  C20       29.1890   -4.5300  -16.7730 C.2     1  37G1        0.0216
      5  C21       29.5540   -5.4110  -15.7770 C.2     1  37G1        0.1000
      6  C22       28.3770   -6.0090  -15.3340 C.2     1  37G1        0.1054
      7  C24       27.8080   -4.6200  -16.9200 C.2     1  37G1        0.0810
      8  C26       30.9240   -5.6640  -15.2660 C.2     1  37G1        0.3893
      9  C01       22.7580    4.7030  -22.1170 C.3     1  37G1        0.0080
     10  C02       22.2720    3.3270  -22.4200 C.3     1  37G1        0.0600
     11  C03       20.7500    3.2160  -22.4190 C.3     1  37G1        0.0080
     12  C04       22.9220    2.7240  -23.6620 C.ar    1  37G1        0.1534
     13  O05       22.9110    3.2960  -24.8860 O.2     1  37G1       -0.3580
     14  N06       23.5940    2.4740  -25.7580 N.ar    1  37G1       -0.0775
     15  C07       24.0340    1.3900  -25.0810 C.ar    1  37G1        0.1237
     16  C08       23.6230    1.5150  -23.7690 C.ar    1  37G1        0.0749
     17  C09       23.9410    0.4670  -22.6450 C.3     1  37G1        0.2364
     18  O10       25.3490    0.4080  -22.3550 O.3     1  37G1       -0.4705
     19  C11       25.9150   -0.4450  -21.4680 C.ar    1  37G1        0.1391
     20  C12       27.1530   -0.1190  -20.9520 C.ar    1  37G1        0.0369
     21  C14       27.1760   -2.1350  -19.6620 C.ar    1  37G1       -0.0034
     22  C16       25.2950   -1.6310  -21.0780 C.ar    1  37G1        0.0369
     23  C18       29.2760   -2.8840  -18.5270 C.3     1  37G1        0.0524
     24  C19       29.9240   -3.6560  -17.5820 C.2     1  37G1       -0.0197
     25  N23       27.3510   -5.5190  -16.0380 N.2     1  37G1       -0.2436
     26  C25       27.1580   -3.8470  -17.8620 C.2     1  37G1        0.0152
     27  O27       31.9300   -5.1650  -15.8650 O.co2   1  37G1       -0.2405
     28  O28       31.0930   -6.4110  -14.1660 O.co2   1  37G1       -0.2405
     29  C29       24.8090    0.2610  -25.6370 C.ar    1  37G1        0.0419
     30  C30       24.1770   -0.9320  -25.9210 C.ar    1  37G1        0.0600
     31 CL31       22.5050   -1.1100  -25.6300 Cl      1  37G1       -0.0822
     32  C32       24.9020   -1.9960  -26.4430 C.ar    1  37G1        0.0115
     33  C33       26.2700   -1.8540  -26.6780 C.ar    1  37G1        0.0017
     34  C34       26.9080   -0.6590  -26.3980 C.ar    1  37G1        0.0115
     35  C35       26.1830    0.3980  -25.8810 C.ar    1  37G1        0.0600
     36 CL36       26.9550    1.8560  -25.5280 Cl      1  37G1       -0.0822
@<TRIPOS>BOND
     1    33    32   ar
     2    33    34   ar
     3    32    30   ar
     4    34    35   ar
     5    30    29   ar
     6    30    31    1
     7    35    29   ar
     8    35    36    1
     9    14    15   ar
    10    14    13   ar
    11    29    15    1
    12    15    16   ar
    13    13    12   ar
    14    16    12   ar
    15    16    17    1
    16    12    10    1
    17    17    18    1
    18    10    11    1
    19    10     9    1
    20    18    19    1
    21    19    22   ar
    22    19    20   ar
    23    22     2   ar
    24    20     1   ar
    25     2    21   ar
    26     1    21   ar
    27    21     3    1
    28     3    23    1
    29     3    26    2
    30    23    24    1
    31    26     7    1
    32    24     4    2
    33     7     4    1
    34     7    25    2
    35     4     5    1
    36    25     6    1
    37    27     8   ar
    38     5     6    2
    39     5     8    1
    40     8    28   ar
