@<TRIPOS>MOLECULE
3ruv_ANP_A_1.pdb
 31 33 0 0 0
SMALL
GASTEIGER

@<TRIPOS>ATOM
      1  PG       -24.1090   44.7280  -21.3940 P.3   545  ANP545      0.4884
      2  O1G      -24.6690   43.7640  -22.4490 O.2   545  ANP545     -0.2331
      3  O2G      -22.8920   44.0850  -20.6290 O.3   545  ANP545     -0.1240
      4  O3G      -23.6580   45.9800  -22.0440 O.3   545  ANP545     -0.1240
      5  PB       -26.2450   46.3080  -20.1720 P.3   545  ANP545      0.4669
      6  O1B      -26.3630   46.9520  -21.5830 O.2   545  ANP545     -0.2351
      7  O2B      -27.6300   45.8300  -19.7630 O.3   545  ANP545     -0.1253
      8  N3B      -25.2720   44.9680  -20.2000 N.3   545  ANP545     -0.0163
      9  PA       -24.7480   48.4430  -19.1100 P.3   545  ANP545      0.2220
     10  O1A      -24.0860   48.4200  -20.4520 O.2   545  ANP545     -0.5170
     11  O2A      -23.6880   48.2780  -18.0710 O.3   545  ANP545     -0.4370
     12  O3A      -25.8790   47.3220  -19.0390 O.3   545  ANP545     -0.2360
     13  O5'      -25.4410   49.7970  -18.8420 O.3   545  ANP545     -0.3111
     14  C5'      -26.5950   50.1810  -19.5200 C.3   545  ANP545      0.1813
     15  C4'      -27.5210   51.0090  -18.7560 C.3   545  ANP545      0.1821
     16  O4'      -26.8900   52.2620  -18.3250 O.3   545  ANP545     -0.3135
     17  C3'      -28.7190   51.3820  -19.5480 C.3   545  ANP545      0.2184
     18  O3'      -29.7930   51.2590  -18.7190 O.3   545  ANP545     -0.2174
     19  C2'      -28.5060   52.7840  -19.9180 C.3   545  ANP545      0.2570
     20  O2'      -29.6370   53.5050  -20.1290 O.3   545  ANP545     -0.2130
     21  C1'      -27.7360   53.3040  -18.7430 C.3   545  ANP545      0.3186
     22  N9       -27.0560   54.6710  -18.9690 N.pl3 545  ANP545     -0.1439
     23  C8       -26.2260   54.9310  -19.9920 C.3   545  ANP545      0.3377
     24  N7       -25.8270   56.2080  -19.8970 N.2   545  ANP545     -0.2095
     25  C5       -26.4090   56.7590  -18.8220 C.2   545  ANP545      0.2526
     26  C6       -26.3700   58.0140  -18.2390 C.2   545  ANP545      0.4393
     27  N6       -25.5660   59.0110  -18.8480 N.pl3 545  ANP545      0.2180
     28  N1       -27.0640   58.2560  -17.1120 N.2   545  ANP545      0.0021
     29  C2       -27.8140   57.2960  -16.5610 C.3   545  ANP545      0.5254
     30  N3       -27.8780   56.0670  -17.1080 N.2   545  ANP545     -0.0055
     31  C4       -27.1910   55.7730  -18.2250 C.2   545  ANP545      0.3518
@<TRIPOS>BOND
     1     2     1    2
     2     4     1    1
     3     6     5    2
     4     1     3    1
     5     1     8    1
     6    10     9    2
     7     8     5    1
     8     5     7    1
     9     5    12    1
    10    20    19    1
    11    23    24    1
    12    23    22    1
    13    19    17    1
    14    19    21    1
    15    24    25    2
    16    17    15    1
    17    17    18    1
    18    14    13    1
    19    14    15    1
    20     9    12    1
    21     9    13    1
    22     9    11    1
    23    22    21    1
    24    22    31    1
    25    27    26    1
    26    25    26    1
    27    25    31    1
    28    15    16    1
    29    21    16    1
    30    26    28    2
    31    31    30    2
    32    28    29    1
    33    30    29    1
