@<TRIPOS>MOLECULE
3ruw_ADP_A_1.pdb
 27 29 0 0 0
SMALL
GASTEIGER

@<TRIPOS>ATOM
      1  PB       107.6750  -20.1530   46.3400 P.3   545  ADP545      0.5373
      2  O1B      106.7130  -20.3070   45.1900 O.2   545  ADP545     -0.2221
      3  O2B      108.9620  -19.5380   45.8530 O.3   545  ADP545     -0.1143
      4  O3B      107.8830  -21.3820   47.2230 O.3   545  ADP545     -0.1143
      5  PA       106.1300  -19.1520   48.6180 P.3   545  ADP545      0.2231
      6  O1A      105.0620  -18.0810   48.5050 O.2   545  ADP545     -0.5169
      7  O2A      105.7180  -20.5840   48.7820 O.3   545  ADP545     -0.4370
      8  O3A      107.0700  -19.0030   47.3050 O.3   545  ADP545     -0.2261
      9  O5'      107.1150  -18.7350   49.8330 O.3   545  ADP545     -0.3111
     10  C5'      108.4030  -19.3290   49.9980 C.3   545  ADP545      0.1813
     11  C4'      109.2470  -18.4850   50.9490 C.3   545  ADP545      0.1821
     12  O4'      108.4830  -18.1920   52.1240 O.3   545  ADP545     -0.3135
     13  C3'      110.5100  -19.2170   51.4030 C.3   545  ADP545      0.2184
     14  O3'      111.6160  -18.3120   51.5990 O.3   545  ADP545     -0.2174
     15  C2'      110.1000  -19.7370   52.7550 C.3   545  ADP545      0.2570
     16  O2'      111.2330  -19.9540   53.5810 O.3   545  ADP545     -0.2130
     17  C1'      109.2790  -18.5630   53.2520 C.3   545  ADP545      0.3186
     18  N9       108.5060  -18.9560   54.4490 N.pl3 545  ADP545     -0.1439
     19  C8       107.6750  -20.0040   54.5630 C.3   545  ADP545      0.3377
     20  N7       107.1590  -20.0730   55.8130 N.2   545  ADP545     -0.2095
     21  C5       107.6710  -19.0510   56.5150 C.2   545  ADP545      0.2526
     22  C6       107.5470  -18.5370   57.8910 C.2   545  ADP545      0.4393
     23  N6       106.7530  -19.1600   58.7990 N.pl3 545  ADP545      0.2180
     24  N1       108.2520  -17.4310   58.2100 N.2   545  ADP545      0.0021
     25  C2       109.0490  -16.8130   57.3320 C.3   545  ADP545      0.5254
     26  N3       109.2160  -17.2320   56.0690 N.2   545  ADP545     -0.0055
     27  C4       108.5680  -18.3260   55.6150 C.2   545  ADP545      0.3518
@<TRIPOS>BOND
     1     2     1    2
     2     3     1    1
     3     1     4    1
     4     1     8    1
     5     8     5    1
     6     6     5    2
     7     5     7    1
     8     5     9    1
     9     9    10    1
    10    10    11    1
    11    11    13    1
    12    11    12    1
    13    13    14    1
    14    13    15    1
    15    12    17    1
    16    15    17    1
    17    15    16    1
    18    17    18    1
    19    18    19    1
    20    18    27    1
    21    19    20    1
    22    27    26    2
    23    27    21    1
    24    20    21    2
    25    26    25    1
    26    21    22    1
    27    25    24    1
    28    22    24    2
    29    22    23    1
