@<TRIPOS>MOLECULE
3rux_BS5_A_1.pdb
 38 42 0 0 0
SMALL
GASTEIGER

@<TRIPOS>ATOM
      1  S         -4.0920   -4.9830    6.3300 S.O2  1001  BS51001     0.1490
      2  N1        -7.8300   -1.0370   13.4530 N.2   1001  BS51001     0.0021
      3  C2        -8.1340   -0.8270   12.1590 C.3   1001  BS51001     0.5254
      4  N3        -7.2130   -0.5570   11.2140 N.2   1001  BS51001    -0.0055
      5  C4        -5.9000   -0.4970   11.5290 C.2   1001  BS51001     0.3518
      6  C5        -5.4870   -0.7140   12.9210 C.2   1001  BS51001     0.2526
      7  C6        -6.5570   -0.9990   13.9030 C.2   1001  BS51001     0.4393
      8  N6        -6.2680   -1.2180   15.2090 N.pl3 1001  BS51001     0.2180
      9  N7        -4.1440   -0.5920   12.9520 N.2   1001  BS51001    -0.2095
     10  C8        -3.7370   -0.3140   11.6850 C.3   1001  BS51001     0.3377
     11  N9        -4.7860   -0.2600   10.8410 N.pl3 1001  BS51001    -0.1439
     12  C1'       -4.7280    0.0070    9.3880 C.3   1001  BS51001     0.3186
     13  N1B       -0.5630  -10.3490   15.3780 N.2   1001  BS51001    -0.1859
     14  S1B       -3.3960   -8.6010   15.7040 S.3   1001  BS51001    -0.1369
     15  C2'       -3.3930    0.6150    9.0130 C.3   1001  BS51001     0.2569
     16  O2'       -3.6520    1.5980    8.0050 O.3   1001  BS51001    -0.2130
     17  C2B       -3.4780   -9.0630   14.0020 C.3   1001  BS51001     0.0729
     18  N2B       -1.0550   -9.2430   13.5610 N.2   1001  BS51001    -0.1860
     19  C3'       -2.6110   -0.5180    8.3840 C.3   1001  BS51001     0.2174
     20  O3'       -1.7750   -0.0310    7.3320 O.3   1001  BS51001    -0.2175
     21  C3B       -0.1300   -9.4560   14.4950 C.1   1001  BS51001     0.2386
     22  O3B        0.9630   -8.9020   14.5500 O.2   1001  BS51001    -0.2023
     23  C4'       -3.7040   -1.4120    7.8370 C.3   1001  BS51001     0.1716
     24  O4'       -4.8030   -1.2650    8.7390 O.3   1001  BS51001    -0.3146
     25  C4B       -2.2710   -9.9810   13.8340 C.3   1001  BS51001     0.1500
     26  C5'       -3.3050   -2.8760    7.7270 C.3   1001  BS51001     0.1492
     27  N5'       -4.3580   -3.5610    7.0050 N.3   1001  BS51001    -0.0594
     28  C5B       -1.9490  -10.6900   15.1510 C.3   1001  BS51001     0.1509
     29  C6B       -2.8150  -10.1590   16.2930 C.3   1001  BS51001     0.0848
     30  C7B       -3.4800   -7.8750   13.0450 C.3   1001  BS51001     0.0129
     31  C8B       -3.7070   -8.3360   11.6100 C.3   1001  BS51001     0.0014
     32  C9B       -4.1370   -7.1770   10.7110 C.3   1001  BS51001     0.0097
     33  CAB       -4.1180   -7.5730    9.2300 C.3   1001  BS51001     0.0886
     34  CBB       -4.5570   -6.4130    8.3630 C.2   1001  BS51001     0.2637
     35  NBB       -3.7180   -6.0270    7.3930 N.am  1001  BS51001    -0.0472
     36  OCB       -5.6370   -5.8910    8.5640 O.2   1001  BS51001    -0.2716
     37  OP1       -5.2910   -5.3690    5.6450 O.2   1001  BS51001    -0.1350
     38  OP2       -3.0040   -4.8650    5.4010 O.2   1001  BS51001    -0.1350
@<TRIPOS>BOND
     1    38     1    2
     2    37     1    2
     3     1    27    1
     4     1    35    1
     5    27    26    1
     6    20    19    1
     7    35    34   am
     8    26    23    1
     9    23    19    1
    10    23    24    1
    11    16    15    1
    12    34    36    2
    13    34    33    1
    14    19    15    1
    15    24    12    1
    16    15    12    1
    17    33    32    1
    18    12    11    1
    19    32    31    1
    20    11     5    1
    21    11    10    1
    22     4     5    2
    23     4     3    1
    24     5     6    1
    25    31    30    1
    26    10     9    1
    27     3     2    1
    28     6     9    2
    29     6     7    1
    30    30    17    1
    31     2     7    2
    32    18    25    1
    33    18    21    2
    34    25    17    1
    35    25    28    1
    36     7     8    1
    37    17    14    1
    38    21    22    2
    39    21    13    2
    40    28    13    1
    41    28    29    1
    42    14    29    1
