@<TRIPOS>MOLECULE
3ruz_THP_A_1.pdb
 25 26 0 0 0
SMALL
GASTEIGER

@<TRIPOS>ATOM
      1  P2        -1.9920  -17.1690  -14.7840 P.3   151  THP151      0.5327
      2  O4P       -1.7390  -15.7560  -14.3910 O.3   151  THP151     -0.1145
      3  O5P       -0.7820  -18.1260  -14.4820 O.2   151  THP151     -0.2224
      4  O6P       -3.2920  -17.8370  -14.0920 O.3   151  THP151     -0.1145
      5  P1        -5.5340  -20.1310  -19.7740 P.3   151  THP151      0.5326
      6  O1P       -6.1410  -19.4210  -18.6170 O.3   151  THP151     -0.1145
      7  O2P       -6.6230  -20.0720  -20.9350 O.2   151  THP151     -0.2224
      8  O3P       -5.1220  -21.5150  -19.1530 O.3   151  THP151     -0.1145
      9  O5'       -2.2160  -17.0240  -16.3240 O.3   151  THP151     -0.2675
     10  C5'       -2.2170  -18.2050  -17.1600 C.3   151  THP151      0.1857
     11  C4'       -3.1280  -17.9250  -18.3490 C.3   151  THP151      0.1748
     12  O4'       -2.6520  -16.7670  -19.0810 O.3   151  THP151     -0.3340
     13  C3'       -3.1830  -19.1190  -19.3620 C.3   151  THP151      0.1600
     14  O3'       -4.3910  -19.0510  -20.1330 O.3   151  THP151     -0.2700
     15  C2'       -2.0870  -18.6860  -20.3490 C.3   151  THP151      0.0847
     16  C1'       -2.2440  -17.1410  -20.3800 C.3   151  THP151      0.2089
     17  N1        -0.9610  -16.5040  -20.6800 N.am  151  THP151     -0.1794
     18  C2        -0.7050  -16.1120  -21.9520 C.1   151  THP151      0.2844
     19  O2        -1.5780  -16.1780  -22.8350 O.2   151  THP151     -0.1918
     20  N3         0.5350  -15.6670  -22.2970 N.2   151  THP151     -0.2455
     21  C4         1.5760  -15.6250  -21.3880 C.1   151  THP151      0.2134
     22  O4         2.6860  -15.2170  -21.7470 O.2   151  THP151     -0.2088
     23  C5         1.3000  -15.9710  -20.0320 C.2   151  THP151      0.0891
     24  C5M        2.3850  -15.8530  -18.9780 C.3   151  THP151      0.0462
     25  C6         0.0640  -16.4610  -19.7100 C.2   151  THP151      0.0877
@<TRIPOS>BOND
     1    19    18    2
     2    20    18    2
     3    20    21    2
     4    18    17   am
     5    22    21    2
     6    21    23    1
     7     7     5    2
     8    17    16    1
     9    17    25    1
    10    16    15    1
    11    16    12    1
    12    15    13    1
    13    14     5    1
    14    14    13    1
    15    23    25    2
    16    23    24    1
    17     5     8    1
    18     5     6    1
    19    13    11    1
    20    12    11    1
    21    11    10    1
    22    10     9    1
    23     9     1    1
    24     1     3    2
    25     1     2    1
    26     1     4    1
