@<TRIPOS>MOLECULE
3rv3_ADP_A_1.pdb
 27 29 0 0 0
SMALL
GASTEIGER

@<TRIPOS>ATOM
      1  PB        18.8170    6.9670   26.9040 P.3   1000  ADP1000     0.5373
      2  O1B       17.4430    7.3440   27.4010 O.3   1000  ADP1000    -0.1143
      3  O2B       19.1410    7.6250   25.5790 O.2   1000  ADP1000    -0.2221
      4  O3B       19.9430    7.0570   27.8940 O.3   1000  ADP1000    -0.1143
      5  PA        17.6870    4.3030   26.3870 P.3   1000  ADP1000     0.2231
      6  O1A       16.3210    4.8880   26.1110 O.3   1000  ADP1000    -0.4370
      7  O2A       18.2430    3.2610   25.4460 O.2   1000  ADP1000    -0.5169
      8  O3A       18.8310    5.4120   26.5170 O.3   1000  ADP1000    -0.2261
      9  O5'       17.7250    3.6650   27.8490 O.3   1000  ADP1000    -0.3111
     10  C5'       18.8520    2.9270   28.3200 C.3   1000  ADP1000     0.1813
     11  C4'       18.3580    1.6190   28.9290 C.3   1000  ADP1000     0.1821
     12  O4'       17.6390    1.9210   30.1290 O.3   1000  ADP1000    -0.3135
     13  C3'       17.4170    0.8660   28.0020 C.3   1000  ADP1000     0.2184
     14  O3'       17.6280   -0.5400   28.1940 O.3   1000  ADP1000    -0.2174
     15  C2'       16.0410    1.2050   28.5420 C.3   1000  ADP1000     0.2570
     16  O2'       15.1370    0.1280   28.3220 O.3   1000  ADP1000    -0.2130
     17  C1'       16.3050    1.4160   30.0310 C.3   1000  ADP1000     0.3186
     18  N9        15.4010    2.3810   30.6950 N.pl3 1000  ADP1000    -0.1439
     19  C8        15.3210    3.7010   30.4470 C.3   1000  ADP1000     0.3377
     20  N7        14.4140    4.2900   31.2530 N.2   1000  ADP1000    -0.2095
     21  C5        13.8990    3.3430   32.0460 C.2   1000  ADP1000     0.2526
     22  C6        12.8860    3.3050   33.1240 C.2   1000  ADP1000     0.4393
     23  N6        12.2530    4.4490   33.4810 N.pl3 1000  ADP1000     0.2180
     24  N1        12.6410    2.1050   33.7170 N.2   1000  ADP1000     0.0021
     25  C2        13.2890    0.9830   33.3370 C.3   1000  ADP1000     0.5254
     26  N3        14.2210    0.9570   32.3430 N.2   1000  ADP1000    -0.0055
     27  C4        14.5580    2.0830   31.6820 C.2   1000  ADP1000     0.3518
@<TRIPOS>BOND
     1     7     5    2
     2     3     1    2
     3     6     5    1
     4     5     8    1
     5     5     9    1
     6     8     1    1
     7     1     2    1
     8     1     4    1
     9     9    10    1
    10    13    14    1
    11    13    15    1
    12    13    11    1
    13    10    11    1
    14    16    15    1
    15    15    17    1
    16    11    12    1
    17    17    12    1
    18    17    18    1
    19    19    18    1
    20    19    20    1
    21    18    27    1
    22    20    21    2
    23    27    21    1
    24    27    26    2
    25    21    22    1
    26    26    25    1
    27    22    23    1
    28    22    24    2
    29    25    24    1
