@<TRIPOS>MOLECULE
3rv4_ADP_A_1.pdb
 27 29 0 0 0
SMALL
GASTEIGER

@<TRIPOS>ATOM
      1  PB       -25.8210  -17.1690   16.6290 P.3   1000  ADP1000     0.5373
      2  O1B      -26.2940  -18.5550   16.3250 O.3   1000  ADP1000    -0.1143
      3  O2B      -25.5960  -16.9540   18.0990 O.3   1000  ADP1000    -0.1143
      4  O3B      -24.7550  -16.6770   15.6670 O.2   1000  ADP1000    -0.2221
      5  PA       -27.2110  -14.7160   15.9790 P.3   1000  ADP1000     0.2231
      6  O1A      -28.1620  -14.1030   16.9750 O.3   1000  ADP1000    -0.4370
      7  O2A      -25.8670  -14.0610   15.7880 O.2   1000  ADP1000    -0.5169
      8  O3A      -27.1350  -16.2750   16.3450 O.3   1000  ADP1000    -0.2261
      9  O5'      -27.9360  -14.7840   14.5520 O.3   1000  ADP1000    -0.3111
     10  C5'      -27.2840  -15.4650   13.4850 C.3   1000  ADP1000     0.1813
     11  C4'      -27.9410  -15.1000   12.1690 C.3   1000  ADP1000     0.1821
     12  O4'      -29.3320  -15.4300   12.2290 O.3   1000  ADP1000    -0.3135
     13  C3'      -27.8880  -13.6110   11.8620 C.3   1000  ADP1000     0.2184
     14  O3'      -26.6900  -13.2580   11.1790 O.3   1000  ADP1000    -0.2174
     15  C2'      -29.1040  -13.4400   10.9840 C.3   1000  ADP1000     0.2570
     16  O2'      -28.8070  -13.7880    9.6120 O.3   1000  ADP1000    -0.2130
     17  C1'      -30.1040  -14.4330   11.5530 C.3   1000  ADP1000     0.3186
     18  N9       -30.9360  -13.6530   12.5070 N.pl3 1000  ADP1000    -0.1439
     19  C8       -30.7600  -13.5570   13.8340 C.3   1000  ADP1000     0.3377
     20  N7       -31.6700  -12.7450   14.4060 N.2   1000  ADP1000    -0.2095
     21  C5       -32.4450  -12.2800   13.4170 C.2   1000  ADP1000     0.2526
     22  C6       -33.5970  -11.3620   13.3300 C.2   1000  ADP1000     0.4393
     23  N6       -34.0910  -10.7560   14.4460 N.pl3 1000  ADP1000     0.2180
     24  N1       -34.1230  -11.1390   12.1050 N.2   1000  ADP1000     0.0021
     25  C2       -33.6310  -11.7320   10.9940 C.3   1000  ADP1000     0.5254
     26  N3       -32.5810  -12.5760   11.0060 N.2   1000  ADP1000    -0.0055
     27  C4       -31.9540  -12.8740   12.1680 C.2   1000  ADP1000     0.3518
@<TRIPOS>BOND
     1    16    15    1
     2    15    17    1
     3    15    13    1
     4    25    26    1
     5    25    24    1
     6    26    27    2
     7    14    13    1
     8    17    12    1
     9    17    18    1
    10    13    11    1
    11    24    22    2
    12    27    18    1
    13    27    21    1
    14    11    12    1
    15    11    10    1
    16    18    19    1
    17    22    21    1
    18    22    23    1
    19    21    20    2
    20    10     9    1
    21    19    20    1
    22     9     5    1
    23     4     1    2
    24     7     5    2
    25     5     8    1
    26     5     6    1
    27     2     1    1
    28     8     1    1
    29     1     3    1
