@<TRIPOS>MOLECULE
3rv5_DXC_A_1.pdb
 28 31 0 0 0
SMALL
GASTEIGER

@<TRIPOS>ATOM
      1  C1        26.4560    9.1590   -9.3410 C.3    92  DXC92       0.1520
      2  C2        27.7100    9.9690   -9.0140 C.3    92  DXC92       0.0329
      3  C3        27.8360   11.2380   -9.8690 C.3    92  DXC92       0.0025
      4  C4        27.7240   10.9730  -11.3820 C.3    92  DXC92       0.0002
      5  C5        26.5380   10.0500  -11.7350 C.3    92  DXC92       0.0026
      6  C6        26.4030    8.8080  -10.8360 C.3    92  DXC92       0.0329
      7  C7        29.1240   11.9750   -9.4610 C.3    92  DXC92       0.0001
      8  C8        30.4360   11.4480  -10.0570 C.3    92  DXC92       0.0000
      9  C9        30.3380   11.1160  -11.5600 C.3    92  DXC92       0.0002
     10  C10       29.0460   10.3380  -11.9080 C.3    92  DXC92       0.0025
     11  C11       31.5010   10.2270  -12.0210 C.3    92  DXC92       0.0024
     12  C12       31.5320    9.9070  -13.5240 C.3    92  DXC92       0.0282
     13  C13       30.2490    9.1890  -13.9020 C.3    92  DXC92       0.1519
     14  C14       29.0010    9.9290  -13.4030 C.3    92  DXC92       0.0329
     15  C15       32.9290   10.5480  -11.6030 C.3    92  DXC92       0.0001
     16  C16       33.7560    9.6560  -12.5580 C.3    92  DXC92       0.0001
     17  C17       32.7760    9.0260  -13.5680 C.3    92  DXC92       0.0024
     18  C18       27.4600   12.3030  -12.0530 C.3    92  DXC92       0.0000
     19  C19       33.4100    8.6670  -14.9310 C.3    92  DXC92       0.0006
     20  O1        30.3640    7.8840  -13.3350 O.3    92  DXC92      -0.2232
     21  O2        26.4900    7.9930   -8.5020 O.3    92  DXC92      -0.2232
     22  C20       31.6910   11.1530  -14.4040 C.3    92  DXC92       0.0025
     23  C21       34.4720    7.5950  -14.7040 C.3    92  DXC92       0.0118
     24  C22       35.6330    7.7370  -15.6800 C.3    92  DXC92       0.1141
     25  C23       36.5160    6.5670  -15.3600 C.2    92  DXC92       0.3649
     26  O3        36.3170    5.4660  -15.9470 O.co2  92  DXC92      -0.2457
     27  O4        37.3880    6.7450  -14.4810 O.co2  92  DXC92      -0.2457
     28  C24       32.4550    8.1060  -15.9960 C.3    92  DXC92       0.0000
@<TRIPOS>BOND
     1    28    19    1
     2    26    25   ar
     3    24    25    1
     4    24    23    1
     5    25    27   ar
     6    19    23    1
     7    19    17    1
     8    22    12    1
     9    13    12    1
    10    13    14    1
    11    13    20    1
    12    17    12    1
    13    17    16    1
    14    12    11    1
    15    14    10    1
    16    16    15    1
    17    18     4    1
    18    11    15    1
    19    11     9    1
    20    10     9    1
    21    10     4    1
    22     5     4    1
    23     5     6    1
    24     9     8    1
    25     4     3    1
    26     6     1    1
    27     8     7    1
    28     3     7    1
    29     3     2    1
    30     1     2    1
    31     1    21    1
