@<TRIPOS>MOLECULE
3rv6_RVA_A_1.pdb
 22 23 0 0 0
SMALL
GASTEIGER

@<TRIPOS>ATOM
      1  C         11.7860   56.4310   40.2530 C.2   454  RVA454      0.3910
      2  C'        15.3050   52.8420   44.6610 C.2   454  RVA454      0.4216
      3  C1        12.9860   55.9710   40.9230 C.ar  454  RVA454      0.1217
      4  C2        13.1600   54.6370   41.3650 C.ar  454  RVA454      0.2361
      5  O2        12.0950   53.6560   41.2080 O.3   454  RVA454     -0.2831
      6  C3        14.4100   54.2000   42.0250 C.ar  454  RVA454      0.1844
      7  O3        14.3680   52.8530   42.3240 O.3   454  RVA454     -0.4436
      8  C4        15.3570   55.1200   42.2170 C.ar  454  RVA454      0.0408
      9  C5        15.1630   56.4950   41.7610 C.ar  454  RVA454      0.0036
     10  C6        14.1010   56.9100   41.1790 C.ar  454  RVA454      0.0100
     11  C7        15.3780   52.2090   43.2180 C.2   454  RVA454      0.2246
     12  C8        16.1450   51.2620   42.7710 C.2   454  RVA454      0.0444
     13  C9        16.1940   50.6280   41.3660 C.ar  454  RVA454      0.0033
     14  OA        10.8630   55.6600   40.0010 O.co2 454  RVA454     -0.2404
     15  OB        11.7650   57.7370   39.9190 O.co2 454  RVA454     -0.2404
     16  C10       15.6560   51.2680   40.0430 C.ar  454  RVA454      0.0001
     17  C11       15.6810   50.6760   38.8050 C.ar  454  RVA454      0.0000
     18  C12       16.2040   49.4220   38.6910 C.ar  454  RVA454      0.0000
     19  C13       16.7720   48.6310   39.8270 C.ar  454  RVA454      0.0000
     20  C14       16.7470   49.3040   41.2240 C.ar  454  RVA454      0.0001
     21  OA'       16.3460   52.7080   45.2940 O.co2 454  RVA454     -0.2371
     22  OB'       14.3660   53.3310   45.0270 O.co2 454  RVA454     -0.2371
@<TRIPOS>BOND
     1    18    17   ar
     2    18    19   ar
     3    17    16   ar
     4    19    20   ar
     5    15     1   ar
     6    14     1   ar
     7    16    13   ar
     8     1     3    1
     9     3    10   ar
    10     3     4   ar
    11    10     9   ar
    12     5     4    1
    13    20    13   ar
    14     4     6   ar
    15    13    12    1
    16     9     8   ar
    17     6     8   ar
    18     6     7    1
    19     7    11    1
    20    12    11    2
    21    11     2    1
    22     2    22   ar
    23     2    21   ar
