@<TRIPOS>MOLECULE
3rv6_VAE_A_1.pdb
 22 23 0 0 0
SMALL
GASTEIGER

@<TRIPOS>ATOM
      1  C         11.9800   42.0910   24.7790 C.2   451  VAE451      0.3910
      2  C'        13.4380   42.1400   30.9360 C.2   451  VAE451      0.4216
      3  C1        12.0080   42.7250   26.0770 C.ar  451  VAE451      0.1217
      4  C2        11.6840   41.9780   27.2110 C.ar  451  VAE451      0.2361
      5  O2        11.3190   40.5280   27.1610 O.3   451  VAE451     -0.2831
      6  C3        11.7000   42.5810   28.5370 C.ar  451  VAE451      0.1844
      7  O3        11.3390   41.6330   29.4820 O.3   451  VAE451     -0.4436
      8  C4        12.0150   43.8690   28.5960 C.ar  451  VAE451      0.0408
      9  C5        12.2960   44.6340   27.3930 C.ar  451  VAE451      0.0036
     10  C6        12.3680   44.1150   26.2510 C.ar  451  VAE451      0.0100
     11  C7        11.8990   41.8060   30.8550 C.2   451  VAE451      0.2246
     12  C8        11.1300   41.6790   31.8360 C.2   451  VAE451      0.0444
     13  C9        11.3420   41.7630   33.3420 C.ar  451  VAE451      0.0033
     14  OA        11.5910   40.7960   24.6950 O.co2 451  VAE451     -0.2404
     15  OB        12.2980   42.7610   23.8350 O.co2 451  VAE451     -0.2404
     16  C10       12.6470   41.4290   34.0890 C.ar  451  VAE451      0.0001
     17  C11       12.8170   41.5260   35.4340 C.ar  451  VAE451      0.0000
     18  C12       11.7570   41.8970   36.1980 C.ar  451  VAE451      0.0000
     19  C13       10.4090   42.2780   35.6780 C.ar  451  VAE451      0.0000
     20  C14       10.2510   42.1870   34.1500 C.ar  451  VAE451      0.0001
     21  OA'       13.6990   43.1120   31.6510 O.co2 451  VAE451     -0.2371
     22  OB'       14.1470   41.6040   30.3100 O.co2 451  VAE451     -0.2371
@<TRIPOS>BOND
     1    15     1   ar
     2    14     1   ar
     3     1     3    1
     4     3    10   ar
     5     3     4   ar
     6    10     9   ar
     7     5     4    1
     8     4     6   ar
     9     9     8   ar
    10     6     8   ar
    11     6     7    1
    12     7    11    1
    13    22     2   ar
    14    11     2    1
    15    11    12    2
    16     2    21   ar
    17    12    13    1
    18    13    16   ar
    19    13    20   ar
    20    16    17   ar
    21    20    19   ar
    22    17    18   ar
    23    19    18   ar
