@<TRIPOS>MOLECULE
3rv7_RVB_A_1.pdb
 19 19 0 0 0
SMALL
GASTEIGER

@<TRIPOS>ATOM
      1  C10       41.5620   -1.7870   38.9920 C.3   451  RVB451      0.0001
      2  C11       43.9080   -1.1790   38.9660 C.3   451  RVB451      0.0001
      3  OA'       40.8970    3.7960   39.2690 O.co2 451  RVB451     -0.2416
      4  OA        40.0560    2.6620   33.0550 O.co2 451  RVB451     -0.2404
      5  OB'       40.4960    2.2320   40.6920 O.co2 451  RVB451     -0.2416
      6  OB        37.9840    2.3730   32.9350 O.co2 451  RVB451     -0.2404
      7  O2        41.2690    2.3280   34.9780 O.3   451  RVB451     -0.2831
      8  C8        42.2330    0.5590   39.3680 C.3   451  RVB451      0.0555
      9  C5        37.9120    1.1060   36.8580 C.ar  451  RVB451      0.0035
     10  C4        39.1200    1.1120   37.5470 C.ar  451  RVB451      0.0402
     11  C6        37.8360    1.5060   35.5350 C.ar  451  RVB451      0.0100
     12  O3        41.5340    1.6050   37.4060 O.3   451  RVB451     -0.4645
     13  C'        40.9870    2.6110   39.6100 C.2   451  RVB451      0.4040
     14  C         39.0030    2.3320   33.5860 C.2   451  RVB451      0.3910
     15  C7        41.7500    1.6260   38.7410 C.3   451  RVB451      0.2677
     16  C2        40.1640    1.9260   35.5960 C.ar  451  RVB451      0.2356
     17  C3        40.2680    1.5400   36.8980 C.ar  451  RVB451      0.1780
     18  C1        38.9880    1.9210   34.8930 C.ar  451  RVB451      0.1216
     19  C9        42.5280   -0.6980   38.5880 C.3   451  RVB451      0.0042
@<TRIPOS>BOND
     1     6    14   ar
     2     4    14   ar
     3    14    18    1
     4    18    11   ar
     5    18    16   ar
     6     7    16    1
     7    11     9   ar
     8    16    17   ar
     9     9    10   ar
    10    17    12    1
    11    17    10   ar
    12    12    15    1
    13    19     2    1
    14    19     1    1
    15    19     8    1
    16    15     8    1
    17    15    13    1
    18     3    13   ar
    19    13     5   ar
