@<TRIPOS>MOLECULE
3rv8_VCE_C_1.pdb
 19 20 0 0 0
SMALL
GASTEIGER

@<TRIPOS>ATOM
      1  OA'       45.7320   -8.2810  -38.8820 O.co2 1451  VCE1451    -0.2416
      2  OA        46.6370   -9.6890  -32.5130 O.co2 1451  VCE1451    -0.2404
      3  OB'       46.1190   -9.5960  -40.4290 O.co2 1451  VCE1451    -0.2416
      4  OB        48.7200   -9.8970  -32.4900 O.co2 1451  VCE1451    -0.2404
      5  O2        45.4890   -9.8440  -34.5570 O.3   1451  VCE1451    -0.2831
      6  C8        44.3740  -11.4130  -38.3190 C.3   1451  VCE1451     0.0555
      7  C5        48.8130  -10.8690  -36.4560 C.ar  1451  VCE1451     0.0035
      8  C4        47.6540  -10.8080  -37.1670 C.ar  1451  VCE1451     0.0402
      9  C6        48.8300  -10.5850  -35.1060 C.ar  1451  VCE1451     0.0100
     10  C10       42.7960  -12.9950  -39.2620 C.3   1451  VCE1451     0.0001
     11  C11       44.0710  -13.6570  -39.2700 C.3   1451  VCE1451     0.0001
     12  O3        45.3590  -10.2700  -36.9970 O.3   1451  VCE1451    -0.4645
     13  C'        45.7320   -9.4350  -39.2580 C.2   1451  VCE1451     0.4040
     14  C         47.6800   -9.9690  -33.0840 C.2   1451  VCE1451     0.3910
     15  C7        45.4010  -10.6310  -38.2330 C.3   1451  VCE1451     0.2677
     16  C2        46.5770  -10.1810  -35.1570 C.ar  1451  VCE1451     0.2356
     17  C3        46.5330  -10.4320  -36.4720 C.ar  1451  VCE1451     0.1780
     18  C1        47.7000  -10.2600  -34.4230 C.ar  1451  VCE1451     0.1216
     19  C9        44.0250  -12.2020  -39.5160 C.3   1451  VCE1451     0.0042
@<TRIPOS>BOND
     1     3    13   ar
     2    19    11    1
     3    19    10    1
     4    19     6    1
     5    11    10    1
     6    13     1   ar
     7    13    15    1
     8     6    15    1
     9    15    12    1
    10     8    17   ar
    11     8     7   ar
    12    12    17    1
    13    17    16   ar
    14     7     9   ar
    15    16     5    1
    16    16    18   ar
    17     9    18   ar
    18    18    14    1
    19    14     2   ar
    20    14     4   ar
