@<TRIPOS>MOLECULE
3rv8_RVC_A_1.pdb
 19 20 0 0 0
SMALL
GASTEIGER

@<TRIPOS>ATOM
      1  OB'       -3.3480   -7.0600   30.0620 O.co2 451  RVC451     -0.2371
      2  OB        -0.7150   -5.6570   23.9090 O.co2 451  RVC451     -0.2404
      3  OA'       -1.3260   -7.0740   30.6930 O.co2 451  RVC451     -0.2371
      4  OA         1.3010   -6.0330   23.9040 O.co2 451  RVC451     -0.2404
      5  O2        -1.8190   -5.0560   25.8290 O.3   451  RVC451     -0.2831
      6  C8        -2.4070   -4.2320   30.5940 C.2   451  RVC451      0.0179
      7  C5         1.3470   -5.9870   27.9510 C.ar  451  RVC451      0.0036
      8  C4         0.2200   -5.5880   28.6170 C.ar  451  RVC451      0.0408
      9  C6         1.4210   -6.0890   26.5930 C.ar  451  RVC451      0.0100
     10  C10       -2.3900   -1.9160   31.3010 C.3   451  RVC451      0.0048
     11  C11       -3.7710   -2.1640   30.8610 C.3   451  RVC451      0.0048
     12  O3        -2.0270   -4.8730   28.4040 O.3   451  RVC451     -0.4439
     13  C'        -2.2650   -6.5120   30.1720 C.2   451  RVC451      0.4213
     14  C          0.3070   -5.8130   24.5190 C.2   451  RVC451      0.3910
     15  C7        -2.0840   -5.1260   29.7110 C.2   451  RVC451      0.2204
     16  C2        -0.7810   -5.3570   26.5440 C.ar  451  RVC451      0.2361
     17  C3        -0.8730   -5.2670   27.8870 C.ar  451  RVC451      0.1844
     18  C1         0.3260   -5.7510   25.8760 C.ar  451  RVC451      0.1217
     19  C9        -2.6430   -2.8130   30.1900 C.3   451  RVC451      0.0254
@<TRIPOS>BOND
     1     4    14   ar
     2     2    14   ar
     3    14    18    1
     4     5    16    1
     5    18    16   ar
     6    18     9   ar
     7    16    17   ar
     8     9     7   ar
     9    17    12    1
    10    17     8   ar
    11     7     8   ar
    12    12    15    1
    13    15    13    1
    14    15     6    2
    15     1    13   ar
    16    13     3   ar
    17    19     6    1
    18    19    11    1
    19    19    10    1
    20    11    10    1
