@<TRIPOS>MOLECULE
3rv9_RVD_A_1.pdb
 18 18 0 0 0
SMALL
GASTEIGER

@<TRIPOS>ATOM
      1  CAA       37.2590    4.7980   32.1600 C.3   451  RVD451      0.0001
      2  OAB       37.0250   -0.4870   31.3540 O.co2 451  RVD451     -0.2416
      3  OAC       39.3270    0.0110   25.9770 O.co2 451  RVD451     -0.2404
      4  OAD       37.5760   -0.1140   33.3900 O.co2 451  RVD451     -0.2416
      5  OAE       41.2400   -0.8880   26.2080 O.co2 451  RVD451     -0.2404
      6  OAF       38.2490    1.0310   28.0600 O.3   451  RVD451     -0.2831
      7  CAG       38.1540    2.6060   32.4680 C.3   451  RVD451      0.0555
      8  CAH       41.6320    0.3240   30.1750 C.ar  451  RVD451      0.0035
      9  CAI       40.5570    0.9350   30.7840 C.ar  451  RVD451      0.0402
     10  CAJ       41.5490   -0.0470   28.8490 C.ar  451  RVD451      0.0100
     11  CAK       38.3240    3.8090   31.7960 C.3   451  RVD451      0.0043
     12  OAL       38.4030    1.7260   30.5140 O.3   451  RVD451     -0.4645
     13  CAM       37.5550    0.1970   32.2160 C.2   451  RVD451      0.4040
     14  CAN       40.3260   -0.2440   26.6360 C.2   451  RVD451      0.3910
     15  CAO       38.2340    1.4950   31.7830 C.3   451  RVD451      0.2677
     16  CAP       39.3660    0.7770   28.7130 C.ar  451  RVD451      0.2356
     17  CAQ       39.4410    1.1440   30.0250 C.ar  451  RVD451      0.1780
     18  CAR       40.4260    0.1860   28.0930 C.ar  451  RVD451      0.1216
@<TRIPOS>BOND
     1     3    14   ar
     2     5    14   ar
     3    14    18    1
     4     6    16    1
     5    18    16   ar
     6    18    10   ar
     7    16    17   ar
     8    10     8   ar
     9    17    12    1
    10    17     9   ar
    11     8     9   ar
    12    12    15    1
    13     2    13   ar
    14    15    13    1
    15    15     7    1
    16    11     1    1
    17    11     7    1
    18    13     4   ar
