@<TRIPOS>MOLECULE
3rvd_NAD_A_1.pdb
 44 48 0 0 0
SMALL
GASTEIGER

@<TRIPOS>ATOM
      1  PA        29.5800  122.9120  141.7510 P.3   401  NAD401      0.2189
      2  O1A       31.0740  122.7350  141.7050 O.2   401  NAD401     -0.5170
      3  O2A       29.1420  122.7270  143.2020 O.3   401  NAD401     -0.4371
      4  O5B       28.7550  121.8140  140.9710 O.3   401  NAD401     -0.3112
      5  C5B       29.2030  121.2820  139.6180 C.3   401  NAD401      0.1813
      6  C4B       28.9780  119.8040  139.7960 C.3   401  NAD401      0.1821
      7  O4B       29.1010  119.1450  138.4950 O.3   401  NAD401     -0.3135
      8  C3B       29.8880  119.0410  140.7450 C.3   401  NAD401      0.2184
      9  O3B       29.2110  118.1170  141.6150 O.3   401  NAD401     -0.2174
     10  C2B       30.8950  118.3620  139.8190 C.3   401  NAD401      0.2570
     11  O2B       31.5870  117.2130  140.3850 O.3   401  NAD401     -0.2130
     12  C1B       29.9950  118.0310  138.6380 C.3   401  NAD401      0.3186
     13  N9A       30.6690  117.8700  137.3120 N.pl3 401  NAD401     -0.1439
     14  C8A       31.8860  118.3580  136.8800 C.3   401  NAD401      0.3377
     15  N7A       32.1530  117.9820  135.6290 N.2   401  NAD401     -0.2095
     16  C5A       31.0730  117.2240  135.2240 C.2   401  NAD401      0.2526
     17  C6A       30.7500  116.5190  133.9960 C.2   401  NAD401      0.4393
     18  N6A       31.5300  116.4920  132.9190 N.pl3 401  NAD401      0.2180
     19  N1A       29.5580  115.8490  133.9510 N.2   401  NAD401      0.0021
     20  C2A       28.7200  115.8420  135.0280 C.3   401  NAD401      0.5254
     21  N3A       28.9190  116.4580  136.2180 N.2   401  NAD401     -0.0055
     22  C4A       30.1340  117.1300  136.2490 C.2   401  NAD401      0.3518
     23  O3        29.1140  124.2500  141.0710 O.3   401  NAD401     -0.2703
     24  PN        27.9050  125.2220  141.1120 P.3   401  NAD401      0.2189
     25  O1N       28.3170  126.2600  142.0670 O.3   401  NAD401     -0.4371
     26  O2N       26.6800  124.4620  141.4440 O.2   401  NAD401     -0.5170
     27  O5D       27.8510  125.9930  139.6950 O.3   401  NAD401     -0.3112
     28  C5D       27.4660  125.2530  138.5010 C.3   401  NAD401      0.1813
     29  C4D       27.3820  126.2980  137.4020 C.3   401  NAD401      0.1799
     30  O4D       26.4220  127.3280  137.7580 O.3   401  NAD401     -0.3327
     31  C3D       28.7180  127.0770  137.1250 C.3   401  NAD401      0.2158
     32  O3D       28.6760  127.3230  135.6690 O.3   401  NAD401     -0.2175
     33  C2D       28.4770  128.3830  137.9140 C.3   401  NAD401      0.2309
     34  O2D       29.1970  129.4910  137.4160 O.3   401  NAD401     -0.2158
     35  C1D       27.0030  128.6310  137.7340 C.3   401  NAD401      0.2263
     36  N1N       26.3320  129.4410  138.8040 N.pl3 401  NAD401     -0.2787
     37  C2N       26.7600  129.2730  140.1070 C.3   401  NAD401      0.1244
     38  C3N       26.1320  130.0110  141.0870 C.2   401  NAD401      0.0544
     39  C7N       26.4340  129.9870  142.6110 C.2   401  NAD401      0.2818
     40  O7N       26.5990  131.0880  143.1750 O.2   401  NAD401     -0.2670
     41  N7N       26.5250  128.8700  143.2600 N.am  401  NAD401     -0.0839
     42  C4N       25.0740  130.9280  140.7710 C.2   401  NAD401      0.0033
     43  C5N       24.7050  131.0340  139.3960 C.2   401  NAD401      0.0157
     44  C6N       25.2870  130.3250  138.3480 C.2   401  NAD401      0.0633
@<TRIPOS>BOND
     1    18    17    1
     2    19    17    2
     3    19    20    1
     4    17    16    1
     5    20    21    1
     6    16    15    2
     7    16    22    1
     8    15    14    1
     9    32    31    1
    10    21    22    2
    11    22    13    1
    12    14    13    1
    13    31    29    1
    14    31    33    1
    15    13    12    1
    16    29    30    1
    17    29    28    1
    18    34    33    1
    19    35    30    1
    20    35    33    1
    21    35    36    1
    22    44    36    1
    23    44    43    2
    24     7    12    1
    25     7     6    1
    26    28    27    1
    27    12    10    1
    28    36    37    1
    29    43    42    1
    30     5     6    1
    31     5     4    1
    32    27    24    1
    33     6     8    1
    34    10    11    1
    35    10     8    1
    36    37    38    1
    37     8     9    1
    38    42    38    2
    39     4     1    1
    40    23    24    1
    41    23     1    1
    42    38    39    1
    43    24    26    2
    44    24    25    1
    45     2     1    2
    46     1     3    1
    47    39    40    2
    48    39    41   am
