@<TRIPOS>MOLECULE
3rvf_034_A_1.pdb
 36 40 0 0 0
SMALL
GASTEIGER

@<TRIPOS>ATOM
      1  C1        -3.2100   20.7620   56.8800 C.3   473  034473      0.0080
      2  C2        -3.9650   21.9030   56.2020 C.3   473  034473      0.0600
      3  C3        -4.6540   22.8220   57.1960 C.3   473  034473      0.0080
      4 CL3        -2.1020   26.8040   53.7870 Cl    473  034473     -0.0822
      5  C4        -3.0420   22.7020   55.3770 C.ar  473  034473      0.1534
      6  O5        -3.4150   22.8920   54.0960 O.2   473  034473     -0.3580
      7  N6        -2.5530   23.6190   53.3740 N.ar  473  034473     -0.0775
      8 CL6         1.0860   22.4120   53.9070 Cl    473  034473     -0.0822
      9  C7        -1.5150   23.9640   54.1700 C.ar  473  034473      0.1237
     10  C8        -1.7540   23.3970   55.5190 C.ar  473  034473      0.0749
     11  C9        -0.8390   23.5550   56.6890 C.3   473  034473      0.2364
     12  O10       -0.3740   24.8930   56.6040 O.3   473  034473     -0.4705
     13  C11        0.4330   25.4080   57.5710 C.ar  473  034473      0.1390
     14  C12        0.0720   26.5680   58.2370 C.ar  473  034473      0.0366
     15  C13        0.8980   27.0940   59.2260 C.ar  473  034473     -0.0005
     16  C14        2.1010   26.4710   59.5490 C.ar  473  034473     -0.0142
     17  C15        2.4500   25.3000   58.8780 C.ar  473  034473     -0.0005
     18  C16        1.6220   24.7740   57.8930 C.ar  473  034473      0.0366
     19  C17        2.9740   27.0280   60.6280 C.3   473  034473      0.0659
     20  C18        3.7250   26.1470   61.4270 C.2   473  034473     -0.0151
     21  C19        4.5370   26.6320   62.4480 C.2   473  034473      0.0278
     22  C20        4.5970   27.9980   62.6860 C.2   473  034473      0.1271
     23  N21        5.2710   28.7520   63.5780 N.2   473  034473     -0.3995
     24  C22        4.9930   30.0640   63.4060 C.2   473  034473      0.1925
     25  C23        4.0960   30.1860   62.3580 C.3   473  034473      0.0945
     26  C24        3.8570   28.8650   61.9140 C.2   473  034473      0.0111
     27  C25        3.0370   28.4040   60.8870 C.2   473  034473     -0.0190
     28  C26        5.5660   31.1600   64.2330 C.2   473  034473      0.4130
     29  O27        5.2920   32.4330   63.9250 O.co2 473  034473     -0.2380
     30  O28        6.2730   30.8810   65.2000 O.co2 473  034473     -0.2380
     31  C29       -0.3310   24.7670   53.7780 C.ar  473  034473      0.0419
     32  C30       -0.4760   26.1150   53.5760 C.ar  473  034473      0.0600
     33  C32        0.6070   26.9040   53.2170 C.ar  473  034473      0.0115
     34  C33        1.8570   26.3110   53.0660 C.ar  473  034473      0.0017
     35  C34        2.0050   24.9420   53.2790 C.ar  473  034473      0.0115
     36  C35        0.9050   24.1740   53.6390 C.ar  473  034473      0.0600
@<TRIPOS>BOND
     1    34    33   ar
     2    34    35   ar
     3    33    32   ar
     4    35    36   ar
     5     7     6   ar
     6     7     9   ar
     7    32    31   ar
     8    32     4    1
     9    36    31   ar
    10    36     8    1
    11    31     9    1
    12     6     5   ar
    13     9    10   ar
    14     5    10   ar
    15     5     2    1
    16    10    11    1
    17     2     1    1
    18     2     3    1
    19    12    11    1
    20    12    13    1
    21    13    18   ar
    22    13    14   ar
    23    18    17   ar
    24    14    15   ar
    25    17    16   ar
    26    15    16   ar
    27    16    19    1
    28    19    27    1
    29    19    20    1
    30    27    26    2
    31    20    21    2
    32    26    25    1
    33    26    22    1
    34    25    24    1
    35    21    22    1
    36    22    23    2
    37    24    23    2
    38    24    28    1
    39    29    28   ar
    40    28    30   ar
