@<TRIPOS>MOLECULE
3rvg_17P_A_1.pdb
 29 33 0 0 0
SMALL
GASTEIGER

@<TRIPOS>ATOM
      1  C        -24.4330  -35.3630    6.0770 C.3   2000  17P2000     0.0665
      2  C1       -23.5170  -36.3400    5.3240 C.2   2000  17P2000     0.0872
      3  N        -24.4230  -37.1670    4.4920 N.2   2000  17P2000    -0.4139
      4  C2       -25.8320  -36.9830    4.8940 C.2   2000  17P2000     0.1281
      5  C3       -25.8510  -35.9380    5.9920 C.3   2000  17P2000     0.1678
      6  C4       -27.0070  -37.9130    4.6810 C.2   2000  17P2000     0.1291
      7  C5       -28.3410  -37.3360    5.0990 C.2   2000  17P2000     0.2423
      8  N6       -28.4080  -36.0320    5.7660 N.2   2000  17P2000    -0.0364
      9  C7       -27.2180  -35.4650    6.4420 C.2   2000  17P2000     0.3436
     10  C8       -23.7340  -34.3200    6.9430 C.3   2000  17P2000     0.0080
     11  C9       -22.2430  -34.5230    7.1550 C.3   2000  17P2000     0.0053
     12  C10      -21.3900  -35.0230    5.9880 C.3   2000  17P2000     0.0321
     13  C11      -22.0060  -36.1640    5.1840 C.3   2000  17P2000     0.0588
     14  C12      -26.8500  -39.0210    3.6830 C.2   2000  17P2000     0.2901
     15  N13      -27.3790  -34.1900    7.1680 N.pl3 2000  17P2000    -0.0394
     16  C14      -28.7240  -33.8040    7.6270 C.3   2000  17P2000     0.2047
     17  C15      -28.6390  -33.1410    9.0100 C.3   2000  17P2000     0.0509
     18  C16      -29.9740  -32.5320    9.4230 C.3   2000  17P2000     0.0043
     19  C17      -30.5370  -31.6160    8.3250 C.3   2000  17P2000     0.0003
     20  C18      -30.7310  -32.4080    7.0390 C.3   2000  17P2000     0.0043
     21  C19      -29.3840  -32.9410    6.5560 C.3   2000  17P2000     0.0509
     22  N20      -28.1240  -39.5700    3.1560 N.am  2000  17P2000    -0.0835
     23  O        -25.6040  -39.7080    3.7240 O.2   2000  17P2000    -0.2665
     24  C21      -19.8690  -34.9520    6.1170 C.ar  2000  17P2000     0.0175
     25  C22      -19.1570  -35.0700    7.4540 C.ar  2000  17P2000     0.0924
     26  N23      -17.7280  -35.3710    7.1850 N.ar  2000  17P2000    -0.2477
     27  N24      -17.4370  -35.3820    5.7760 N.ar  2000  17P2000    -0.1679
     28  C25      -18.7470  -35.1400    5.1170 C.ar  2000  17P2000     0.1174
     29  C26      -16.6080  -35.2690    8.1940 C.3   2000  17P2000     0.1537
@<TRIPOS>BOND
     1    22    14   am
     2    14    23    2
     3    14     6    1
     4     3     4    2
     5     3     2    2
     6     6     4    1
     7     6     7    2
     8     4     5    1
     9     7     8    1
    10    28    27   ar
    11    28    24   ar
    12    13     2    1
    13    13    12    1
    14     2     1    1
    15     8     9    2
    16    27    26   ar
    17    12    24    1
    18    12    11    1
    19     5     1    1
    20     5     9    1
    21     1    10    1
    22    24    25   ar
    23     9    15    1
    24    21    20    1
    25    21    16    1
    26    10    11    1
    27    20    19    1
    28    15    16    1
    29    26    25   ar
    30    26    29    1
    31    16    17    1
    32    19    18    1
    33    17    18    1
