@<TRIPOS>MOLECULE
3rvh_HQ2_A_1.pdb
 20 22 0 0 0
SMALL
GASTEIGER

@<TRIPOS>ATOM
      1  NAA      -26.9600  -20.2770  -20.8230 N.ar  503  HQ2503     -0.2393
      2  NAB      -23.6740  -18.9100  -20.5460 N.pl3 503  HQ2503     -0.3033
      3  NAC      -21.6060  -17.0670  -19.8350 N.3   503  HQ2503     -0.2144
      4  CAD      -27.9560  -22.7430  -23.3400 C.ar  503  HQ2503      0.0438
      5  CAE      -26.7540  -22.8740  -24.0170 C.ar  503  HQ2503      0.0100
      6  CAF      -25.6320  -22.1540  -23.6350 C.ar  503  HQ2503      0.0815
      7  CAG      -25.6940  -21.2570  -22.5570 C.ar  503  HQ2503      0.0285
      8  CAH      -26.9100  -21.1270  -21.8650 C.ar  503  HQ2503      0.1204
      9  CAI      -28.0460  -21.8760  -22.2640 C.ar  503  HQ2503      0.2131
     10  CAJ      -24.5660  -20.5270  -22.1240 C.ar  503  HQ2503      0.0179
     11  CAK      -24.6900  -19.6530  -21.0320 C.ar  503  HQ2503      0.0674
     12  CAL      -25.9290  -19.5640  -20.3950 C.ar  503  HQ2503      0.1134
     13  CAM      -24.3360  -22.3260  -24.4090 C.2   503  HQ2503      0.3878
     14  CAN      -22.3680  -18.9820  -21.2250 C.3   503  HQ2503      0.1096
     15  CAO      -21.2720  -18.4310  -20.2880 C.3   503  HQ2503      0.1101
     16  CAP      -22.9460  -17.0000  -19.2100 C.3   503  HQ2503      0.1101
     17  CAQ      -24.0210  -17.5230  -20.1840 C.3   503  HQ2503      0.1096
     18  OAR      -29.2370  -21.7490  -21.5930 O.3   503  HQ2503     -0.2850
     19  OAS      -24.4480  -22.7840  -25.5720 O.co2 503  HQ2503     -0.2406
     20  OAT      -23.2650  -21.9930  -23.8530 O.co2 503  HQ2503     -0.2406
@<TRIPOS>BOND
     1    19    13   ar
     2    13    20   ar
     3    13     6    1
     4     5     6   ar
     5     5     4   ar
     6     6     7   ar
     7     4     9   ar
     8     7    10   ar
     9     7     8   ar
    10     9     8   ar
    11     9    18    1
    12    10    11   ar
    13     8     1   ar
    14    14     2    1
    15    14    15    1
    16    11     2    1
    17    11    12   ar
    18     1    12   ar
    19     2    17    1
    20    15     3    1
    21    17    16    1
    22     3    16    1
