@<TRIPOS>MOLECULE
3rvi_RVI_A_1.pdb
 33 36 0 0 0
SMALL
GASTEIGER

@<TRIPOS>ATOM
      1  C4        70.7030   49.9630   12.2580 C.ar  402  RVI402     -0.0183
      2  C5        71.8210   49.1330   12.4580 C.ar  402  RVI402     -0.0252
      3  C6        72.6050   49.2960   13.6000 C.ar  402  RVI402     -0.0045
      4  C7        69.8760   49.8480   11.1380 C.3   402  RVI402      0.0659
      5  C8        69.8670   50.8640   10.1790 C.2   402  RVI402     -0.0151
      6  C10       69.0360   48.7410   10.9820 C.2   402  RVI402     -0.0151
      7  C15       66.5510   47.4750    8.5460 C.2   402  RVI402      0.0253
      8  C17       72.2230   48.0350   11.4560 C.3   402  RVI402      0.0307
      9  C20       64.1780   46.6430    8.6500 C.3   402  RVI402      0.0827
     10  C21       63.9470   47.1640   10.0750 C.2   402  RVI402      0.2412
     11  C24       64.0420   50.0900   11.9950 C.3   402  RVI402      0.0217
     12  C26       65.0240   52.3920   11.7360 C.3   402  RVI402      0.0001
     13  C28       66.3000   50.5730   12.9870 C.3   402  RVI402      0.0001
     14  C25       64.1700   51.2960   11.0610 C.3   402  RVI402      0.0018
     15  C27       66.4070   51.8650   12.1630 C.3   402  RVI402      0.0000
     16  C29       65.4380   49.5190   12.2690 C.3   402  RVI402      0.0018
     17  C23       63.0750   49.0270   11.4460 C.3   402  RVI402      0.1151
     18  N22       63.4440   48.3990   10.1540 N.am  402  RVI402     -0.2054
     19  O30       64.1940   46.4500   11.0510 O.2   402  RVI402     -0.2733
     20  C31       63.2510   45.4320    8.4160 C.3   402  RVI402      0.0095
     21  C32       61.7750   45.8220    8.6220 C.3   402  RVI402      0.0005
     22  C33       60.8400   44.6100    8.7090 C.3   402  RVI402      0.0000
     23  C19       65.6480   46.2430    8.4160 C.3   402  RVI402      0.0395
     24  C14       66.6030   48.5320    7.6260 C.2   402  RVI402      0.2152
     25  N13       67.4210   49.5790    7.8270 N.2   402  RVI402     -0.3842
     26  N18       65.8520   48.5270    6.5290 N.pl3 402  RVI402     -0.0935
     27  C16       67.3720   47.5450    9.6750 C.2   402  RVI402      0.0019
     28  C11       68.2120   48.6450    9.8580 C.2   402  RVI402      0.0258
     29  C12       68.2140   49.6630    8.9050 C.2   402  RVI402      0.1325
     30  C9        69.0390   50.7710    9.0650 C.2   402  RVI402      0.0282
     31  C3        70.3920   50.9440   13.2040 C.ar  402  RVI402     -0.0039
     32  C2        71.1790   51.1000   14.3400 C.ar  402  RVI402     -0.0003
     33  C1        72.2850   50.2790   14.5350 C.ar  402  RVI402     -0.0003
@<TRIPOS>BOND
     1    26    24    1
     2    24    25    2
     3    24     7    1
     4    25    29    2
     5    23     7    1
     6    23     9    1
     7    20    21    1
     8    20     9    1
     9     7    27    2
    10    21    22    1
    11     9    10    1
    12    29    30    1
    13    29    28    1
    14    30     5    2
    15    27    28    1
    16    28     6    2
    17    10    18   am
    18    10    19    2
    19    18    17    1
    20     5     4    1
    21     6     4    1
    22    14    12    1
    23    14    11    1
    24     4     1    1
    25    17    11    1
    26     8     2    1
    27    12    15    1
    28    11    16    1
    29    15    13    1
    30     1     2   ar
    31     1    31   ar
    32    16    13    1
    33     2     3   ar
    34    31    32   ar
    35     3    33   ar
    36    32    33   ar
