@<TRIPOS>MOLECULE
3rw9_DSH_A_1.pdb
 23 25 0 0 0
SMALL
GASTEIGER

@<TRIPOS>ATOM
      1  N          0.7430   58.8340    8.7880 N.pl3 303  DSH303     -0.1270
      2  N1         1.4960   71.2080    7.8460 N.2   303  DSH303      0.0021
      3  C2         0.9260   70.2580    7.0900 C.3   303  DSH303      0.5254
      4  N3         1.4700   69.0360    6.9730 N.2   303  DSH303     -0.0055
      5  C4         2.6110   68.7320    7.6310 C.2   303  DSH303      0.3518
      6  C5         3.2100   69.6980    8.4270 C.2   303  DSH303      0.2526
      7  C6         2.6350   70.9550    8.5260 C.2   303  DSH303      0.4393
      8  N6         3.2020   71.9160    9.2960 N.pl3 303  DSH303      0.2180
      9  N7         4.3120   69.1410    8.9630 N.2   303  DSH303     -0.2095
     10  C8         4.3920   67.8730    8.5100 C.3   303  DSH303      0.3377
     11  N9         3.3610   67.6280    7.6950 N.pl3 303  DSH303     -0.1439
     12  CA         1.6660   58.7760    9.7470 C.2   303  DSH303      0.1021
     13  CB         2.4060   59.8390   10.0530 C.2   303  DSH303      0.0050
     14  SD         3.7780   61.6460    8.6530 S.3   303  DSH303     -0.1328
     15  CG         2.2250   61.1430    9.3150 C.3   303  DSH303      0.0850
     16  C1'        3.0740   66.3360    7.0050 C.3   303  DSH303      0.3185
     17  C2'        4.3290   65.6810    6.4570 C.3   303  DSH303      0.2569
     18  O2'        4.6130   66.1530    5.1400 O.3   303  DSH303     -0.2130
     19  C3'        3.9640   64.2100    6.4460 C.3   303  DSH303      0.2168
     20  O3'        3.2320   63.9230    5.2530 O.3   303  DSH303     -0.2175
     21  C4'        2.9980   64.0480    7.6010 C.3   303  DSH303      0.1630
     22  O4'        2.5430   65.3720    7.9270 O.3   303  DSH303     -0.3153
     23  C5'        3.6670   63.4040    8.8100 C.3   303  DSH303      0.0902
@<TRIPOS>BOND
     1    18    17    1
     2    20    19    1
     3    19    17    1
     4    19    21    1
     5    17    16    1
     6     4     3    1
     7     4     5    2
     8    16    11    1
     9    16    22    1
    10     3     2    1
    11    21    22    1
    12    21    23    1
    13     5    11    1
    14     5     6    1
    15    11    10    1
    16     2     7    2
    17     6     7    1
    18     6     9    2
    19    10     9    1
    20     7     8    1
    21    14    23    1
    22    14    15    1
    23     1    12    1
    24    15    13    1
    25    12    13    2
