@<TRIPOS>MOLECULE
3rwb_NAD_A_1.pdb
 44 48 0 0 0
SMALL
GASTEIGER

@<TRIPOS>ATOM
      1  PA        45.1140   15.0020   22.6460 P.3   251  NAD251      0.2189
      2  O1A       45.1820   15.4270   21.2270 O.2   251  NAD251     -0.5170
      3  O2A       45.0930   16.1080   23.6250 O.3   251  NAD251     -0.4371
      4  O5B       46.3340   14.0200   23.0030 O.3   251  NAD251     -0.3112
      5  C5B       46.4670   12.8160   22.2810 C.3   251  NAD251      0.1813
      6  C4B       47.8770   12.2700   22.4820 C.3   251  NAD251      0.1821
      7  O4B       48.0130   11.1060   21.6680 O.3   251  NAD251     -0.3135
      8  C3B       48.9460   13.2670   22.0520 C.3   251  NAD251      0.2184
      9  O3B       49.9490   13.3810   23.0530 O.3   251  NAD251     -0.2174
     10  C2B       49.5370   12.6620   20.7960 C.3   251  NAD251      0.2570
     11  O2B       50.9200   12.9260   20.6560 O.3   251  NAD251     -0.2130
     12  C1B       49.2520   11.1810   20.9870 C.3   251  NAD251      0.3186
     13  N9A       49.2500   10.4470   19.7120 N.pl3 251  NAD251     -0.1439
     14  C8A       48.6710   10.7890   18.5130 C.3   251  NAD251      0.3377
     15  N7A       48.9460    9.8170   17.6110 N.2   251  NAD251     -0.2095
     16  C5A       49.6880    8.8540   18.2160 C.2   251  NAD251      0.2526
     17  C6A       50.2430    7.6520   17.7850 C.2   251  NAD251      0.4393
     18  N6A       50.2980    7.3120   16.4920 N.pl3 251  NAD251      0.2180
     19  N1A       50.9540    6.8930   18.6870 N.2   251  NAD251      0.0021
     20  C2A       51.1390    7.3120   19.9860 C.3   251  NAD251      0.5254
     21  N3A       50.5890    8.5030   20.4040 N.2   251  NAD251     -0.0055
     22  C4A       49.8770    9.2500   19.5390 C.2   251  NAD251      0.3518
     23  O3        43.8490   14.0070   22.7580 O.3   251  NAD251     -0.2703
     24  PN        42.7340   13.9050   23.9160 P.3   251  NAD251      0.2189
     25  O1N       41.6690   14.8850   23.5840 O.2   251  NAD251     -0.5170
     26  O2N       43.3350   13.8940   25.2680 O.3   251  NAD251     -0.4371
     27  O5D       42.1340   12.4410   23.5860 O.3   251  NAD251     -0.3112
     28  C5D       42.6130   11.2640   24.2010 C.3   251  NAD251      0.1813
     29  C4D       41.6600   10.1170   23.8770 C.3   251  NAD251      0.1799
     30  O4D       40.3460   10.4750   24.2720 O.3   251  NAD251     -0.3327
     31  C3D       41.5740    9.8030   22.3880 C.3   251  NAD251      0.2158
     32  O3D       41.3650    8.4130   22.2640 O.3   251  NAD251     -0.2175
     33  C2D       40.3180   10.5060   21.9340 C.3   251  NAD251      0.2309
     34  O2D       39.7700    9.8940   20.7810 O.3   251  NAD251     -0.2158
     35  C1D       39.4640   10.2930   23.1680 C.3   251  NAD251      0.2263
     36  N1N       38.3570   11.2510   23.2670 N.pl3 251  NAD251     -0.2787
     37  C2N       38.6270   12.5730   23.4690 C.3   251  NAD251      0.1244
     38  C3N       37.5600   13.4500   23.5800 C.2   251  NAD251      0.0544
     39  C7N       37.7900   14.8970   23.8510 C.2   251  NAD251      0.2818
     40  O7N       36.6820   15.7370   23.7180 O.2   251  NAD251     -0.2670
     41  N7N       38.9940   15.3550   24.2090 N.am  251  NAD251     -0.0839
     42  C4N       36.2490   12.9890   23.5080 C.2   251  NAD251      0.0033
     43  C5N       35.9960   11.6390   23.3200 C.2   251  NAD251      0.0157
     44  C6N       37.0760   10.7760   23.2060 C.2   251  NAD251      0.0633
@<TRIPOS>BOND
     1    18    17    1
     2    15    16    2
     3    15    14    1
     4    17    16    1
     5    17    19    2
     6    16    22    1
     7    14    13    1
     8    19    20    1
     9    22    13    1
    10    22    21    2
    11    13    12    1
    12    20    21    1
    13    11    10    1
    14    34    33    1
    15    10    12    1
    16    10     8    1
    17    12     7    1
    18     2     1    2
    19     7     6    1
    20    33    31    1
    21    33    35    1
    22     8     6    1
    23     8     9    1
    24    32    31    1
    25     5     6    1
    26     5     4    1
    27    31    29    1
    28     1    23    1
    29     1     4    1
    30     1     3    1
    31    23    24    1
    32    35    36    1
    33    35    30    1
    34    44    36    1
    35    44    43    2
    36    36    37    1
    37    43    42    1
    38    37    38    1
    39    42    38    2
    40    38    39    1
    41    25    24    2
    42    27    24    1
    43    27    28    1
    44    40    39    2
    45    39    41   am
    46    29    28    1
    47    29    30    1
    48    24    26    1
