@<TRIPOS>MOLECULE
3rwb_4PL_A_1.pdb
 12 13 0 0 0
SMALL
GASTEIGER

@<TRIPOS>ATOM
      1  CAA       30.3410   14.7450   21.6050 C.3   252  4PL252      0.0555
      2  OAB       35.3030   12.4280   20.7770 O.2   252  4PL252     -0.2448
      3  OAC       32.4910   12.8240   21.6270 O.3   252  4PL252     -0.2851
      4  CAD       33.1780   16.4810   19.9160 C.ar  252  4PL252      0.0982
      5  CAE       35.4650   15.5640   19.4850 C.3   252  4PL252      0.2372
      6  NAF       31.9930   16.2020   20.4420 N.ar  252  4PL252     -0.2451
      7  OAG       36.0690   14.3520   19.7540 O.3   252  4PL252     -0.4403
      8  CAH       35.1370   13.5820   20.3840 C.2   252  4PL252      0.3446
      9  CAI       31.7350   15.0120   21.0140 C.ar  252  4PL252      0.0983
     10  CAJ       34.2030   15.5440   19.9350 C.ar  252  4PL252      0.0498
     11  CAK       32.7240   14.0350   21.0620 C.ar  252  4PL252      0.2151
     12  CAL       33.9670   14.3080   20.5120 C.ar  252  4PL252      0.1167
@<TRIPOS>BOND
     1     5     7    1
     2     5    10    1
     3     7     8    1
     4     4    10   ar
     5     4     6   ar
     6    10    12   ar
     7     8    12    1
     8     8     2    2
     9     6     9   ar
    10    12    11   ar
    11     9    11   ar
    12     9     1    1
    13    11     3    1
