@<TRIPOS>MOLECULE
3rwk_FRU_X_1.pdb
 12 12 0 0 0
SMALL
GASTEIGER

@<TRIPOS>ATOM
      1  C1        49.4560  -30.3970   15.5770 C.3   520  FRU520      0.2434
      2  C2        50.8830  -30.0430   15.0790 C.3   520  FRU520      0.2807
      3  C3        51.8910  -29.7070   16.2220 C.3   520  FRU520      0.2409
      4  C4        52.3290  -28.2540   16.1660 C.3   520  FRU520      0.2168
      5  C5        51.7130  -27.7970   14.8580 C.3   520  FRU520      0.1836
      6  C6        52.8560  -27.5560   13.8920 C.3   520  FRU520      0.2142
      7  O1        48.3480  -30.3600   14.6240 O.3   520  FRU520     -0.2148
      8  O2        51.2940  -31.1420   14.1810 O.3   520  FRU520     -0.1896
      9  O3        53.1870  -30.2620   16.0060 O.3   520  FRU520     -0.2149
     10  O4        52.0070  -27.3990   17.2890 O.3   520  FRU520     -0.2175
     11  O5        50.8000  -28.8030   14.3780 O.3   520  FRU520     -0.3253
     12  O6        53.5910  -26.5400   14.5740 O.3   520  FRU520     -0.2176
@<TRIPOS>BOND
     1     6    12    1
     2     6     5    1
     3     8     2    1
     4    11     5    1
     5    11     2    1
     6     7     1    1
     7     5     4    1
     8     2     1    1
     9     2     3    1
    10     9     3    1
    11     4     3    1
    12     4    10    1
