@<TRIPOS>MOLECULE
3rwk_MAN_X_1.pdb
 11 11 0 0 0
SMALL
GASTEIGER

@<TRIPOS>ATOM
      1  C1        59.3520  -20.5030    8.2370 C.3   519  MAN519      0.1777
      2  C2        58.2540  -19.4580    8.4290 C.3   519  MAN519      0.2141
      3  C3        57.2630  -19.7580    9.5770 C.3   519  MAN519      0.2173
      4  C4        56.8350  -21.2410    9.5820 C.3   519  MAN519      0.2142
      5  C5        58.1320  -22.0670    9.7100 C.3   519  MAN519      0.1810
      6  C6        57.8510  -23.5570    9.8830 C.3   519  MAN519      0.2141
      7  O2        57.6160  -19.4940    7.1730 O.3   519  MAN519     -0.2176
      8  O3        56.1460  -18.8830    9.4750 O.3   519  MAN519     -0.2175
      9  O4        55.8670  -21.5300   10.6260 O.3   519  MAN519     -0.2176
     10  O5        58.9610  -21.8560    8.5320 O.3   519  MAN519     -0.3481
     11  O6        59.1200  -24.2260   10.0650 O.3   519  MAN519     -0.2176
@<TRIPOS>BOND
     1     7     2    1
     2     1     2    1
     3     1    10    1
     4     2     3    1
     5    10     5    1
     6     8     3    1
     7     3     4    1
     8     4     5    1
     9     4     9    1
    10     5     6    1
    11     6    11    1
