@<TRIPOS>MOLECULE
3rwl_HEM_A_1.pdb
 43 50 0 0 0
SMALL
GASTEIGER

@<TRIPOS>ATOM
      1  CHA       25.0150  -21.2700   -1.8510 C.2   417  HEM417      0.0000
      2  CHB       27.9400  -17.5270   -2.1710 C.2   417  HEM417      0.0000
      3  CHC       24.1880  -14.5560   -1.3040 C.2   417  HEM417      0.0000
      4  CHD       21.5360  -18.3690   -0.1500 C.2   417  HEM417      0.0000
      5  C1A       26.1550  -20.5380   -2.0480 C.ar  417  HEM417      0.0000
      6  C2A       27.4660  -21.0400   -2.4160 C.ar  417  HEM417      0.0000
      7  C3A       28.3130  -20.0050   -2.4710 C.ar  417  HEM417      0.0000
      8  C4A       27.5030  -18.8220   -2.2030 C.ar  417  HEM417      0.0000
      9  CMA       29.8140  -19.8910   -2.7920 C.3   417  HEM417      0.0000
     10  CAA       27.7710  -22.5020   -2.6450 C.3   417  HEM417      0.0000
     11  CBA       28.1770  -22.6470   -4.1690 C.3   417  HEM417      0.0000
     12  CGA       28.6490  -24.0620   -4.5320 C.2   417  HEM417      0.0000
     13  O1A       28.7400  -24.3610   -5.7610 O.co2 417  HEM417      0.0000
     14  O2A       28.9360  -24.8660   -3.5770 O.co2 417  HEM417      0.0000
     15  C1B       27.1860  -16.3790   -2.0270 C.2   417  HEM417      0.0000
     16  C2B       27.6140  -15.0240   -2.2580 C.2   417  HEM417      0.0000
     17  C3B       26.5640  -14.2360   -1.9880 C.2   417  HEM417      0.0000
     18  C4B       25.4610  -15.0260   -1.5990 C.2   417  HEM417      0.0000
     19  CMB       29.0140  -14.5260   -2.6780 C.3   417  HEM417      0.0000
     20  CAB       26.4450  -12.7120   -2.0130 C.2   417  HEM417      0.0000
     21  CBB       27.1870  -11.8920   -2.7420 C.2   417  HEM417      0.0000
     22  C1C       23.1070  -15.2970   -0.9340 C.ar  417  HEM417      0.0000
     23  C2C       21.8080  -14.8160   -0.5300 C.ar  417  HEM417      0.0000
     24  C3C       21.1000  -15.8670   -0.1720 C.ar  417  HEM417      0.0000
     25  C4C       21.9100  -17.0470   -0.3790 C.ar  417  HEM417      0.0000
     26  CMC       21.4330  -13.3280   -0.5370 C.3   417  HEM417      0.0000
     27  CAC       19.7060  -15.9710    0.3680 C.2   417  HEM417      0.0000
     28  CBC       18.6960  -15.1770    0.1130 C.2   417  HEM417      0.0000
     29  C1D       22.1950  -19.5200   -0.5210 C.2   417  HEM417      0.0000
     30  C2D       21.6450  -20.8460   -0.3620 C.2   417  HEM417      0.0000
     31  C3D       22.6950  -21.7120   -0.9240 C.2   417  HEM417      0.0000
     32  C4D       23.7920  -20.8500   -1.3300 C.2   417  HEM417      0.0000
     33  CMD       20.3050  -21.2690    0.2470 C.3   417  HEM417      0.0000
     34  CAD       22.6670  -23.2220   -1.0090 C.3   417  HEM417      0.0000
     35  CBD       22.2590  -23.5840   -2.4110 C.3   417  HEM417      0.0000
     36  CGD       22.2280  -25.1110   -2.6310 C.2   417  HEM417      0.0000
     37  O1D       21.5860  -25.5970   -3.6270 O.co2 417  HEM417      0.0000
     38  O2D       22.8800  -25.8270   -1.8700 O.co2 417  HEM417      0.0000
     39  NA        26.2620  -19.2020   -1.9200 N.ar  417  HEM417      0.0000
     40  NB        25.8570  -16.3280   -1.6660 N.2   417  HEM417      0.0000
     41  NC        23.1250  -16.6280   -0.8140 N.ar  417  HEM417      0.0000
     42  ND        23.4620  -19.5920   -1.0400 N.2   417  HEM417      0.0000
     43 FE         24.5710  -17.8900   -1.5490 Fe    417  HEM417      0.0000
@<TRIPOS>BOND
     1    13    12   ar
     2    12    11    1
     3    12    14   ar
     4    11    10    1
     5    37    36   ar
     6     9     7    1
     7    21    20    2
     8    19    16    1
     9    10     6    1
    10    36    35    1
    11    36    38   ar
    12     7     6   ar
    13     7     8   ar
    14     6     5   ar
    15    35    34    1
    16    16    15    1
    17    16    17    2
    18     8     2    2
    19     8    39   ar
    20     2    15    1
    21     5    39   ar
    22     5     1    2
    23    15    40    2
    24    20    17    1
    25    17    18    1
    26    39    43    1
    27     1    32    1
    28    40    18    1
    29    40    43    1
    30    18     3    2
    31    43    42    1
    32    43    41    1
    33    32    42    2
    34    32    31    1
    35     3    22    1
    36    42    29    1
    37    34    31    1
    38    22    41   ar
    39    22    23   ar
    40    31    30    2
    41    41    25   ar
    42    26    23    1
    43    23    24   ar
    44    29    30    1
    45    29     4    2
    46    25    24   ar
    47    25     4    1
    48    30    33    1
    49    24    27    1
    50    28    27    2
