@<TRIPOS>MOLECULE
3rwm_GNP_B_1.pdb
 32 34 0 0 0
SMALL
GASTEIGER

@<TRIPOS>ATOM
      1  PG        20.6390   16.5970   12.2700 P.3   200  GNP200      0.4884
      2  O1G       21.9830   16.8450   12.1310 O.2   200  GNP200     -0.2331
      3  O2G       20.0950   17.4320   13.2220 O.3   200  GNP200     -0.1240
      4  O3G       20.5750   15.3770   12.6980 O.3   200  GNP200     -0.1240
      5  N3B       19.9120   16.7680   10.8340 N.3   200  GNP200     -0.0163
      6  PB        18.3250   16.6280   10.5550 P.3   200  GNP200      0.4669
      7  O1B       18.1730   15.3210   10.3680 O.2   200  GNP200     -0.2351
      8  O2B       17.5970   17.2800   11.5270 O.3   200  GNP200     -0.1253
      9  O3A       18.0850   17.2440    9.2140 O.3   200  GNP200     -0.2360
     10  PA        17.3530   18.6300    8.8040 P.3   200  GNP200      0.2220
     11  O1A       16.0040   18.5610    9.0930 O.2   200  GNP200     -0.5170
     12  O2A       18.0060   19.6230    9.4010 O.3   200  GNP200     -0.4370
     13  O5'       17.4120   18.7560    7.3040 O.3   200  GNP200     -0.3111
     14  C5'       18.5580   18.7570    6.5820 C.3   200  GNP200      0.1813
     15  C4'       18.4820   19.4400    5.2040 C.3   200  GNP200      0.1799
     16  O4'       17.6230   18.7400    4.3990 O.3   200  GNP200     -0.3326
     17  C3'       18.0090   20.8790    5.3620 C.3   200  GNP200      0.2158
     18  O3'       18.5850   21.6700    4.4000 O.3   200  GNP200     -0.2175
     19  C2'       16.5300   20.6630    5.1700 C.3   200  GNP200      0.2310
     20  O2'       15.8930   21.7930    4.7090 O.3   200  GNP200     -0.2158
     21  C1'       16.5530   19.5180    4.1340 C.3   200  GNP200      0.2293
     22  N9        15.3230   18.7500    4.0930 N.pl3 200  GNP200     -0.2354
     23  C8        14.6540   18.2520    5.0840 C.3   200  GNP200      0.2246
     24  N7        13.6070   17.6700    4.6340 N.2   200  GNP200     -0.2322
     25  C5        13.5630   17.7950    3.3650 C.2   200  GNP200      0.2182
     26  C6        12.6680   17.3700    2.3950 C.1   200  GNP200      0.2372
     27  O6        11.6710   16.7520    2.6330 O.2   200  GNP200     -0.2069
     28  N1        12.9520   17.6790    1.1090 N.2   200  GNP200     -0.2485
     29  C2        14.0730   18.4170    0.7980 C.1   200  GNP200      0.2531
     30  N2        14.3250   18.6720   -0.4480 N.pl3 200  GNP200     -0.0226
     31  N3        14.9090   18.7880    1.7460 N.2   200  GNP200     -0.3074
     32  C4        14.6710   18.4950    3.0050 C.2   200  GNP200      0.2300
@<TRIPOS>BOND
     1    30    29    1
     2    29    28    2
     3    29    31    2
     4    28    26    2
     5    31    32    2
     6    26    27    2
     7    26    25    1
     8    32    25    1
     9    32    22    1
    10    25    24    2
    11    22    21    1
    12    22    23    1
    13    21    16    1
    14    21    19    1
    15    16    15    1
    16    18    17    1
    17    24    23    1
    18    20    19    1
    19    19    17    1
    20    15    17    1
    21    15    14    1
    22    14    13    1
    23    13    10    1
    24    10    11    2
    25    10     9    1
    26    10    12    1
    27     9     6    1
    28     7     6    2
    29     6     5    1
    30     6     8    1
    31     5     1    1
    32     2     1    2
    33     1     4    1
    34     1     3    1
