@<TRIPOS>MOLECULE
3rwn_GLU_A_1.pdb
 18 17 0 0 0
SMALL
GASTEIGER

@<TRIPOS>ATOM
      1  N          2.2570  -18.9230   18.5330 N.4     1  GLU1        0.3871
      2  CA         3.3920  -18.0040   18.6350 C.3     1  GLU1        0.0210
      3  C          4.1030  -18.1620   19.9700 C.2     1  GLU1        0.3420
      4  O          3.5550  -18.8280   20.8610 O.co2   1  GLU1       -0.2483
      5  CB         2.9270  -16.5600   18.4570 C.3     1  GLU1       -0.0458
      6  CG         2.2240  -16.3270   17.1440 C.3     1  GLU1        0.0482
      7  CD         1.9110  -14.8660   16.9340 C.2     1  GLU1        0.3560
      8  OE1        0.7530  -14.4660   17.1640 O.co2   1  GLU1       -0.2464
      9  OE2        2.8340  -14.1070   16.5610 O.co2   1  GLU1       -0.2464
     10  OXT        5.2100  -17.6320   20.1600 O.co2   1  GLU1       -0.2483
     11  H1         2.0420  -19.0830   17.5690 H       1  GLU1       -0.0889
     12  H2         2.4900  -19.7910   18.9700 H       1  GLU1       -0.0889
     13  H          1.4620  -18.5240   18.9890 H       1  GLU1       -0.0889
     14  HA         4.1020  -18.2520   17.8330 H       1  GLU1        0.0198
     15  HB2        2.2500  -16.2940   19.2820 H       1  GLU1        0.0259
     16  HB3        3.7960  -15.8890   18.5260 H       1  GLU1        0.0259
     17  HG2        2.8550  -16.6900   16.3190 H       1  GLU1        0.0378
     18  HG3        1.2920  -16.9110   17.1170 H       1  GLU1        0.0378
@<TRIPOS>BOND
     1    17     6    1
     2     9     7   ar
     3     7     6    1
     4     7     8   ar
     5    18     6    1
     6     6     5    1
     7    11     1    1
     8    14     2    1
     9     5    16    1
    10     5     2    1
    11     5    15    1
    12     1     2    1
    13     1    12    1
    14     1    13    1
    15     2     3    1
    16     3    10   ar
    17     3     4   ar
