@<TRIPOS>MOLECULE
3rwo_GDP_A_1.pdb
 28 30 0 0 0
SMALL
GASTEIGER

@<TRIPOS>ATOM
      1  PB         4.0740   -6.2210   58.0800 P.3   4032  GDP4032     0.5373
      2  O1B        4.1860   -4.7180   58.0360 O.3   4032  GDP4032    -0.1143
      3  O2B        2.9420   -6.6460   59.0330 O.3   4032  GDP4032    -0.1143
      4  O3B        3.9360   -6.8550   56.6750 O.2   4032  GDP4032    -0.2221
      5  O3A        5.4320   -6.8010   58.7300 O.3   4032  GDP4032    -0.2261
      6  PA         6.7300   -7.3650   58.0170 P.3   4032  GDP4032     0.2231
      7  O1A        6.5410   -8.7880   57.5980 O.3   4032  GDP4032    -0.4370
      8  O2A        7.1890   -6.3700   56.8870 O.2   4032  GDP4032    -0.5169
      9  O5'        7.7870   -7.3280   59.2130 O.3   4032  GDP4032    -0.3111
     10  C5'        8.1410   -6.0470   59.7940 C.3   4032  GDP4032     0.1813
     11  C4'        9.5030   -6.1890   60.4800 C.3   4032  GDP4032     0.1799
     12  O4'        9.3220   -7.1690   61.5420 O.3   4032  GDP4032    -0.3326
     13  C3'       10.5720   -6.7200   59.5540 C.3   4032  GDP4032     0.2158
     14  O3'       11.8440   -6.1600   59.9310 O.3   4032  GDP4032    -0.2175
     15  C2'       10.5570   -8.2100   59.8710 C.3   4032  GDP4032     0.2310
     16  O2'       11.8260   -8.8100   59.5750 O.3   4032  GDP4032    -0.2158
     17  C1'       10.2840   -8.1870   61.3730 C.3   4032  GDP4032     0.2293
     18  N9         9.6120   -9.4670   61.7600 N.pl3 4032  GDP4032    -0.2354
     19  C8         8.5730  -10.0840   61.1380 C.3   4032  GDP4032     0.2246
     20  N7         8.2480  -11.1930   61.8140 N.2   4032  GDP4032    -0.2322
     21  C5         9.0870  -11.2980   62.8710 C.2   4032  GDP4032     0.2182
     22  C6         9.2470  -12.2220   63.9040 C.1   4032  GDP4032     0.2372
     23  O6         8.5670  -13.2380   64.0530 O.2   4032  GDP4032    -0.2069
     24  N1        10.2330  -11.9630   64.8690 N.2   4032  GDP4032    -0.2485
     25  C2        11.0440  -10.8300   64.7810 C.1   4032  GDP4032     0.2531
     26  N2        11.9860  -10.6200   65.7210 N.pl3 4032  GDP4032    -0.0226
     27  N3        10.8820   -9.9580   63.7650 N.2   4032  GDP4032    -0.3074
     28  C4         9.9240  -10.1790   62.8400 C.2   4032  GDP4032     0.2300
@<TRIPOS>BOND
     1     4     1    2
     2     8     6    2
     3     7     6    1
     4     6     5    1
     5     6     9    1
     6     2     1    1
     7     1     5    1
     8     1     3    1
     9     9    10    1
    10    13    15    1
    11    13    14    1
    12    13    11    1
    13    16    15    1
    14    10    11    1
    15    15    17    1
    16    11    12    1
    17    19    18    1
    18    19    20    1
    19    17    12    1
    20    17    18    1
    21    18    28    1
    22    20    21    2
    23    28    21    1
    24    28    27    2
    25    21    22    1
    26    27    25    2
    27    22    23    2
    28    22    24    2
    29    25    24    2
    30    25    26    1
