@<TRIPOS>MOLECULE
3rwp_ABQ_A_1.pdb
 34 38 0 0 0
SMALL
GASTEIGER

@<TRIPOS>ATOM
      1  C1        41.6170   27.5890   28.9170 C.ar  360  ABQ360     -0.0018
      2  C2        40.0570   25.7320   29.1040 C.ar  360  ABQ360     -0.0018
      3  C3        41.1640   28.0650   30.1260 C.ar  360  ABQ360      0.0293
      4  C4        39.6120   26.2120   30.3420 C.ar  360  ABQ360      0.0293
      5  C5        37.4060   30.1140   26.9890 C.3   360  ABQ360      0.1875
      6  C6        39.3320   29.0070   26.4450 C.2   360  ABQ360      0.1427
      7  C7        35.4090   26.5590   28.5820 C.2   360  ABQ360      0.1754
      8  C8        31.0370   26.2560   29.0630 C.3   360  ABQ360      0.5248
      9  C9        33.3170   27.4030   28.3310 C.3   360  ABQ360      0.2477
     10  C10       34.7290   27.6740   28.0890 C.2   360  ABQ360      0.0826
     11  C11       41.0610   26.4230   28.4020 C.ar  360  ABQ360     -0.0182
     12  C12       40.1820   27.3710   30.8160 C.ar  360  ABQ360      0.1401
     13  C13       36.7590   28.9050   27.0380 C.2   360  ABQ360      0.1736
     14  C14       33.2240   26.1560   28.9450 C.2   360  ABQ360      0.3198
     15  C15       38.6730   27.7930   26.4730 C.2   360  ABQ360      0.2178
     16  C16       32.1050   28.0630   28.1300 C.2   360  ABQ360      0.4066
     17  C17       35.3080   28.8290   27.3920 C.2   360  ABQ360      0.2233
     18  C18       41.7010   24.5070   26.9190 C.3   360  ABQ360      0.1483
     19  C19       40.8750   25.3420   24.8890 C.3   360  ABQ360      0.1641
     20  C20       41.5930   26.0210   27.0630 C.3   360  ABQ360      0.0744
     21  C21       40.7150   26.5050   25.8710 C.3   360  ABQ360      0.1310
     22  C22       36.2460   24.2710   30.1970 C.3   360  ABQ360      0.0511
     23  C23       34.5760   23.3780   28.5110 C.3   360  ABQ360      0.0511
     24  C24       34.7890   24.3270   29.6840 C.3   360  ABQ360      0.1650
     25  N25       38.7370   30.1990   26.6770 N.2   360  ABQ360     -0.2571
     26  N26       32.1030   25.5240   29.3220 N.2   360  ABQ360     -0.0107
     27  N27       30.9600   27.4510   28.4900 N.2   360  ABQ360     -0.0027
     28  N28       37.3590   27.7190   26.7800 N.2   360  ABQ360     -0.3830
     29  N29       34.5120   25.6500   29.0970 N.pl3 360  ABQ360     -0.1745
     30  N30       31.9790   29.3190   27.5510 N.pl3 360  ABQ360      0.2117
     31  N31       39.2760   26.5560   26.1520 N.pl3 360  ABQ360     -0.2073
     32  O32       34.5730   29.6890   26.8550 O.2   360  ABQ360     -0.2843
     33  O33       41.5790   24.2310   25.5000 O.3   360  ABQ360     -0.3515
     34  F34       39.8220   27.8780   32.0130 F     360  ABQ360     -0.2042
@<TRIPOS>BOND
     1    19    33    1
     2    19    21    1
     3    33    18    1
     4    21    31    1
     5    21    20    1
     6    31    15    1
     7     6    15    1
     8     6    25    2
     9    15    28    2
    10    25     5    1
    11    28    13    2
    12    32    17    2
    13    18    20    1
    14     5    13    1
    15    13    17    1
    16    20    11    1
    17    17    10    1
    18    30    16    1
    19    10     9    1
    20    10     7    2
    21    16     9    1
    22    16    27    2
    23     9    14    1
    24    11     1   ar
    25    11     2   ar
    26    27     8    1
    27    23    24    1
    28     7    29    1
    29     1     3   ar
    30    14    29    1
    31    14    26    2
    32     8    26    1
    33    29    24    1
    34     2     4   ar
    35    24    22    1
    36     3    12   ar
    37     4    12   ar
    38    12    34    1
