@<TRIPOS>MOLECULE
3rwq_3RW_A_1.pdb
 30 33 0 0 0
SMALL
GASTEIGER

@<TRIPOS>ATOM
      1  C1        31.1340  -26.4380  -13.3250 C.3     1  3RW1        0.5248
      2  N1        39.5550  -27.0330  -10.1830 N.pl3   1  3RW1       -0.2115
      3  O1        34.6670  -30.0230  -11.2340 O.2     1  3RW1       -0.2840
      4  C2        32.1920  -28.3170  -12.3180 C.2     1  3RW1        0.4066
      5  N2        31.0950  -27.6490  -12.7410 N.2     1  3RW1       -0.0027
      6  C3        35.6510  -26.7790  -12.7400 C.2     1  3RW1        0.1754
      7  N3        32.2830  -25.7740  -13.5420 N.2     1  3RW1       -0.0107
      8  C4        34.9730  -27.8890  -12.2620 C.2     1  3RW1        0.0830
      9  N4        34.7830  -25.8780  -13.2620 N.pl3   1  3RW1       -0.1745
     10  C5        33.5220  -27.6660  -12.5220 C.3     1  3RW1        0.2477
     11  N5        32.0490  -29.5190  -11.7360 N.pl3   1  3RW1        0.2117
     12  C6        33.5010  -26.3180  -13.1720 C.2     1  3RW1        0.3198
     13  N6        38.9540  -30.5440  -11.0400 N.2     1  3RW1       -0.2570
     14  C7        35.1570  -24.5750  -13.8820 C.3     1  3RW1        0.1650
     15  N7        37.6250  -28.1550  -10.8690 N.2     1  3RW1       -0.3831
     16  C8        34.8440  -23.4180  -12.9440 C.3     1  3RW1        0.0511
     17  N8        41.2070  -28.6870  -14.2810 N.ar    1  3RW1       -0.2426
     18  C9        35.4600  -29.1460  -11.5660 C.2     1  3RW1        0.2270
     19  C10       36.9400  -29.2690  -11.2450 C.2     1  3RW1        0.1898
     20  C11       37.6330  -30.4800  -11.3290 C.2     1  3RW1        0.1290
     21  C12       39.6290  -29.4260  -10.6650 C.3     1  3RW1        0.2013
     22  C13       38.9490  -28.1970  -10.5730 C.2     1  3RW1        0.2008
     23  C14       36.6390  -24.5920  -14.2470 C.3     1  3RW1        0.0511
     24  C15       40.9910  -26.7690  -12.8560 C.ar    1  3RW1       -0.0012
     25  C16       40.0030  -26.2270  -13.6990 C.ar    1  3RW1       -0.0011
     26  C17       41.5760  -28.0150  -13.1700 C.ar    1  3RW1        0.0946
     27  C18       41.3950  -26.0140  -11.5940 C.3     1  3RW1        0.0513
     28  C19       39.6480  -26.9420  -14.8350 C.ar    1  3RW1        0.0204
     29  C20       40.9930  -26.7660  -10.3020 C.3     1  3RW1        0.1193
     30  C21       40.2710  -28.1720  -15.1000 C.ar    1  3RW1        0.0989
@<TRIPOS>BOND
     1    30    28   ar
     2    30    17   ar
     3    28    25   ar
     4    17    26   ar
     5    23    14    1
     6    14     9    1
     7    14    16    1
     8    25    24   ar
     9     7     1    1
    10     7    12    2
    11     1     5    1
    12     9    12    1
    13     9     6    1
    14    12    10    1
    15    26    24   ar
    16    24    27    1
    17     5     4    2
    18     6     8    2
    19    10     4    1
    20    10     8    1
    21     4    11    1
    22     8    18    1
    23    27    29    1
    24    18    19    1
    25    18     3    2
    26    20    19    1
    27    20    13    2
    28    19    15    2
    29    13    21    1
    30    15    22    2
    31    21    22    1
    32    22     2    1
    33    29     2    1
