@<TRIPOS>MOLECULE
3rwr_TBR_J_1.pdb
 18 16 0 0 0
SMALL
GASTEIGER

@<TRIPOS>ATOM
      1 TA1       -50.5920    5.4600  -30.2060 Ta    164  TBR164      0.0000
      2 TA2       -49.2140    2.9200  -29.7560 Ta    164  TBR164      0.0000
      3 TA3       -48.2960    4.7120  -31.8880 Ta    164  TBR164      0.0000
      4 TA4       -46.6810    4.3460  -29.4610 Ta    164  TBR164      0.0000
      5 TA5       -48.0580    6.8840  -29.9140 Ta    164  TBR164      0.0000
      6 TA6       -48.9790    5.0930  -27.7810 Ta    164  TBR164      0.0000
      7 BR1       -51.7650    3.1290  -30.2250 Br    164  TBR164      0.0000
      8 BR2       -50.6700    5.3470  -32.8070 Br    164  TBR164      0.0000
      9 BR3       -50.3420    8.0270  -30.4080 Br    164  TBR164      0.0000
     10 BR4       -51.4640    5.8460  -27.7770 Br    164  TBR164      0.0000
     11 BR5       -48.9340    2.2010  -32.2300 Br    164  TBR164      0.0000
     12 BR6       -47.5290    7.1390  -32.4260 Br    164  TBR164      0.0000
     13 BR7       -45.5090    6.6750  -29.4450 Br    164  TBR164      0.0000
     14 BR8       -46.6050    4.4580  -26.8630 Br    164  TBR164      0.0000
     15 BR9       -46.9330    1.7750  -29.2630 Br    164  TBR164      0.0000
     16 BRA       -45.8100    3.9590  -31.8920 Br    164  TBR164      0.0000
     17 BRB       -48.3400    7.6030  -27.4370 Br    164  TBR164      0.0000
     18 BRC       -49.7460    2.6660  -27.2440 Br    164  TBR164      0.0000
@<TRIPOS>BOND
     1     8     1    1
     2    12     5    1
     3    11     2    1
     4    16     3    1
     5     9     1    1
     6     7     2    1
     7     1     5    1
     8     1     2    1
     9     5     4    1
    10     5    13    1
    11     5    17    1
    12     2     4    1
    13     2    18    1
    14     4    15    1
    15     4    14    1
    16     6    10    1
