@<TRIPOS>MOLECULE
3rws_ZEA_A_1.pdb
 16 17 0 0 0
SMALL
GASTEIGER

@<TRIPOS>ATOM
      1  O16        9.9470   40.7110   52.0640 O.3   164  ZEA164     -0.2155
      2  C14        9.4070   39.8500   53.0730 C.3   164  ZEA164      0.2042
      3  C13        8.0920   39.2800   52.5980 C.2   164  ZEA164     -0.0115
      4  C15        7.3040   38.3670   53.4900 C.3   164  ZEA164      0.0288
      5  C12        7.6280   39.5890   51.3790 C.2   164  ZEA164      0.0226
      6  C11        6.3150   39.0260   50.8930 C.3   164  ZEA164      0.2771
      7  N10        5.5610   40.0060   50.1350 N.pl3 164  ZEA164     -0.0246
      8  C6         5.2170   39.7510   48.8550 C.2   164  ZEA164      0.3858
      9  C5         4.4700   40.7450   48.0490 C.2   164  ZEA164      0.2255
     10  N9         3.9760   41.9810   48.2530 N.2   164  ZEA164     -0.2268
     11  C4         4.1390   40.3780   46.6630 C.1   164  ZEA164      0.0578
     12  N7         3.4750   41.4180   46.1470 N.2   164  ZEA164     -0.1914
     13  C8         3.3780   42.3800   47.1010 C.3   164  ZEA164      0.2618
     14  N3         4.5280   39.1650   46.2010 N.2   164  ZEA164     -0.1640
     15  C2         5.2050   38.3110   46.9900 C.3   164  ZEA164      0.4006
     16  N1         5.5420   38.5790   48.2650 N.2   164  ZEA164     -0.0304
@<TRIPOS>BOND
     1    12    11    2
     2    12    13    1
     3    14    11    2
     4    14    15    1
     5    11     9    1
     6    15    16    1
     7    13    10    1
     8     9    10    2
     9     9     8    1
    10    16     8    2
    11     8     7    1
    12     7     6    1
    13     6     5    1
    14     5     3    2
    15     1     2    1
    16     3     2    1
    17     3     4    1
