@<TRIPOS>MOLECULE
3rwu_ATP_A_1.pdb
 30 32 0 0 0
SMALL
GASTEIGER

@<TRIPOS>ATOM
      1  PG        -3.1540  -12.5530  -14.3910 P.3   902  ATP902      0.5373
      2  O1G       -1.8560  -12.3110  -13.6670 O.3   902  ATP902     -0.1143
      3  O2G       -4.3760  -12.7050  -13.5110 O.3   902  ATP902     -0.1143
      4  O3G       -3.0700  -13.6050  -15.4780 O.2   902  ATP902     -0.2221
      5  PB        -2.5760   -9.8770  -15.2670 P.3   902  ATP902      0.2277
      6  O1B       -3.3820   -8.8260  -15.9800 O.2   902  ATP902     -0.5168
      7  O2B       -2.0390   -9.5480  -13.8870 O.3   902  ATP902     -0.4368
      8  O3B       -3.4920  -11.1940  -15.2090 O.3   902  ATP902     -0.2258
      9  PA         0.1470  -10.2870  -16.1410 P.3   902  ATP902      0.2189
     10  O1A        0.7240  -11.0340  -17.3230 O.2   902  ATP902     -0.5170
     11  O2A        0.6280  -10.5670  -14.7310 O.3   902  ATP902     -0.4371
     12  O3A       -1.4470  -10.4930  -16.2370 O.3   902  ATP902     -0.2700
     13  O5'        0.3330   -8.7180  -16.4780 O.3   902  ATP902     -0.3112
     14  C5'        0.4090   -7.6660  -15.5110 C.3   902  ATP902      0.1813
     15  C4'       -0.1350   -6.3730  -16.1200 C.3   902  ATP902      0.1795
     16  O4'        0.6640   -5.9580  -17.2400 O.3   902  ATP902     -0.3155
     17  C3'       -1.5410   -6.5010  -16.6920 C.3   902  ATP902      0.1883
     18  O3'       -2.6050   -6.4200  -15.7330 O.3   902  ATP902     -0.2202
     19  C2'       -1.5780   -5.3510  -17.6830 C.3   902  ATP902      0.1151
     20  C1'       -0.1820   -5.4450  -18.2890 C.3   902  ATP902      0.2873
     21  N9        -0.2470   -6.3740  -19.4490 N.pl3 902  ATP902     -0.1460
     22  C8         0.1130   -7.6690  -19.4450 C.3   902  ATP902      0.3377
     23  N7        -0.0730   -8.2470  -20.6600 N.2   902  ATP902     -0.2095
     24  C5        -0.5860   -7.3030  -21.4500 C.2   902  ATP902      0.2526
     25  C6        -1.0030   -7.2600  -22.8580 C.2   902  ATP902      0.4393
     26  N6        -0.8920   -8.3800  -23.5940 N.pl3 902  ATP902      0.2180
     27  N1        -1.4770   -6.0900  -23.3470 N.2   902  ATP902      0.0021
     28  C2        -1.5690   -4.9830  -22.5630 C.3   902  ATP902      0.5254
     29  N3        -1.1770   -4.9520  -21.2670 N.2   902  ATP902     -0.0055
     30  C4        -0.6990   -6.0680  -20.6610 C.2   902  ATP902      0.3518
@<TRIPOS>BOND
     1    26    25    1
     2    27    25    2
     3    27    28    1
     4    25    24    1
     5    28    29    1
     6    24    30    1
     7    24    23    2
     8    29    30    2
     9    30    21    1
    10    23    22    1
    11    21    22    1
    12    21    20    1
    13    20    19    1
    14    20    16    1
    15    19    17    1
    16    10     9    2
    17    16    15    1
    18    17    15    1
    19    17    18    1
    20    13     9    1
    21    13    14    1
    22    12     9    1
    23    12     5    1
    24     9    11    1
    25    15    14    1
    26     6     5    2
    27     4     1    2
    28     5     8    1
    29     5     7    1
    30     8     1    1
    31     1     2    1
    32     1     3    1
