@<TRIPOS>MOLECULE
3rx2_SLO_A_1.pdb
 26 28 0 0 0
SMALL
GASTEIGER

@<TRIPOS>ATOM
      1  F         -5.6740   11.0280   15.1900 F     317  SLO317     -0.2042
      2  S        -14.1540   13.0170   18.6670 S.O2  317  SLO317      0.0104
      3  C1        -7.1360    7.3240   18.0680 C.2   317  SLO317     -0.0295
      4  O1        -4.8470    5.6170   16.0470 O.co2 317  SLO317     -0.2453
      5  C2        -9.1660    8.2750   18.5440 C.2   317  SLO317     -0.0364
      6  O2        -7.1420    5.6390   15.9970 O.co2 317  SLO317     -0.2453
      7  C3        -8.2820    7.1250   18.7480 C.3   317  SLO317      0.0374
      8  O3       -14.2170   13.6140   19.9950 O.2   317  SLO317     -0.1686
      9  C4        -7.2330    8.6080   17.3680 C.ar  317  SLO317     -0.0054
     10  O4       -13.7810   13.8280   17.5040 O.2   317  SLO317     -0.1686
     11  C5        -8.4660    9.2190   17.6480 C.ar  317  SLO317     -0.0077
     12  C6        -5.9090    6.5140   17.8980 C.3   317  SLO317      0.1364
     13  C7       -10.3870    8.3970   19.0810 C.3   317  SLO317      0.0486
     14  C8        -6.2870    9.2020   16.5430 C.ar  317  SLO317      0.0290
     15  C9        -8.7700   10.4540   17.0930 C.ar  317  SLO317      0.0017
     16  C10       -8.6760    5.9710   19.6030 C.3   317  SLO317      0.0087
     17  C11      -11.3360    9.5140   18.9620 C.ar  317  SLO317     -0.0180
     18  C12       -6.5850   10.4420   15.9860 C.ar  317  SLO317      0.1401
     19  C13       -7.8240   11.0610   16.2560 C.ar  317  SLO317      0.0296
     20  C14      -12.6620    9.2820   18.6180 C.ar  317  SLO317     -0.0026
     21  C15      -10.8680   10.7940   19.2360 C.ar  317  SLO317     -0.0026
     22  C16      -13.0700   11.6580   18.7770 C.ar  317  SLO317      0.1057
     23  C17       -6.0710    5.8760   16.5480 C.2   317  SLO317      0.3689
     24  C18      -13.5360   10.3660   18.5210 C.ar  317  SLO317      0.0180
     25  C19      -11.7440   11.8760   19.1490 C.ar  317  SLO317      0.0180
     26  C20      -15.7300   12.2820   18.2830 C.3   317  SLO317      0.1816
@<TRIPOS>BOND
     1     1    18    1
     2    18    19   ar
     3    18    14   ar
     4     6    23   ar
     5     4    23   ar
     6    19    15   ar
     7    14     9   ar
     8    23    12    1
     9    15    11   ar
    10     9    11   ar
    11     9     3    2
    12    10     2    2
    13    11     5    2
    14    12     3    1
    15     3     7    1
    16    26     2    1
    17    24    20   ar
    18    24    22   ar
    19     5     7    1
    20     5    13    1
    21    20    17   ar
    22     2    22    1
    23     2     8    2
    24     7    16    1
    25    22    25   ar
    26    17    13    1
    27    17    21   ar
    28    25    21   ar
