@<TRIPOS>MOLECULE
3rx2_NAP_A_1.pdb
 48 52 0 0 0
SMALL
GASTEIGER

@<TRIPOS>ATOM
      1  PA         2.4720    4.6620   23.7190 P.3   316  NAP316      0.2189
      2  O1A        2.0400    3.5770   24.6740 O.3   316  NAP316     -0.4371
      3  O2A        3.5050    4.3500   22.6570 O.2   316  NAP316     -0.5170
      4  O5B        2.9660    5.8870   24.6470 O.3   316  NAP316     -0.3112
      5  C5B        3.4060    7.1290   24.0740 C.3   316  NAP316      0.1813
      6  C4B        3.7740    8.0350   25.2460 C.3   316  NAP316      0.1820
      7  O4B        4.7940    7.4030   26.0290 O.3   316  NAP316     -0.3136
      8  C3B        4.3220    9.3890   24.8380 C.3   316  NAP316      0.2157
      9  O3B        3.8060   10.3390   25.7690 O.3   316  NAP316     -0.2175
     10  C2B        5.8160    9.2740   25.0450 C.3   316  NAP316      0.2314
     11  O2B        6.3960   10.5340   25.3790 O.3   316  NAP316     -0.2630
     12  C1B        5.8850    8.3050   26.2100 C.3   316  NAP316      0.3158
     13  N9A        7.1500    7.5360   26.2030 N.pl3 316  NAP316     -0.1439
     14  C8A        7.7110    6.9560   25.1280 C.3   316  NAP316      0.3377
     15  N7A        8.8580    6.3550   25.5210 N.2   316  NAP316     -0.2095
     16  C5A        9.0150    6.5690   26.8430 C.2   316  NAP316      0.2526
     17  C6A        9.9850    6.1930   27.7640 C.2   316  NAP316      0.4393
     18  N6A       11.0600    5.4660   27.3770 N.pl3 316  NAP316      0.2180
     19  N1A        9.8520    6.5770   29.0530 N.2   316  NAP316      0.0021
     20  C2A        8.7940    7.3090   29.4450 C.3   316  NAP316      0.5254
     21  N3A        7.8390    7.6830   28.5770 N.2   316  NAP316     -0.0055
     22  C4A        7.9270    7.3140   27.2710 C.2   316  NAP316      0.3518
     23  O3         1.1250    5.3470   23.1390 O.3   316  NAP316     -0.2703
     24  PN         0.4760    5.4560   21.6620 P.3   316  NAP316      0.2189
     25  O1N        1.0330    6.6570   20.9230 O.2   316  NAP316     -0.5170
     26  O2N       -1.0110    5.4080   21.8790 O.3   316  NAP316     -0.4371
     27  O5D        0.8170    4.0580   20.9240 O.3   316  NAP316     -0.3112
     28  C5D        1.9570    3.8670   20.0890 C.3   316  NAP316      0.1813
     29  C4D        1.5700    3.9220   18.6150 C.3   316  NAP316      0.1799
     30  O4D        0.6320    2.8910   18.2570 O.3   316  NAP316     -0.3327
     31  C3D        0.8470    5.2000   18.2160 C.3   316  NAP316      0.2158
     32  O3D        1.7240    6.3270   18.1140 O.3   316  NAP316     -0.2175
     33  C2D        0.2650    4.7640   16.8840 C.3   316  NAP316      0.2309
     34  O2D        1.3100    4.7110   15.8980 O.3   316  NAP316     -0.2158
     35  C1D       -0.1980    3.3430   17.1790 C.3   316  NAP316      0.2263
     36  N1N       -1.6240    3.3220   17.5740 N.pl3 316  NAP316     -0.2787
     37  C2N       -2.5390    2.7880   16.7440 C.3   316  NAP316      0.1244
     38  C3N       -3.8950    2.7600   17.0860 C.2   316  NAP316      0.0544
     39  C7N       -4.9100    2.1430   16.1570 C.2   316  NAP316      0.2818
     40  O7N       -6.0860    2.4390   16.2640 O.2   316  NAP316     -0.2670
     41  N7N       -4.5060    1.2590   15.2530 N.am  316  NAP316     -0.0839
     42  C4N       -4.3090    3.2920   18.3050 C.2   316  NAP316      0.0033
     43  C5N       -3.3520    3.8430   19.1570 C.2   316  NAP316      0.0157
     44  C6N       -2.0090    3.8340   18.7540 C.2   316  NAP316      0.0633
     45  P2B        7.2900   11.4200   24.3640 P.3   316  NAP316      0.5328
     46  O1X        6.6870   11.1960   23.0030 O.2   316  NAP316     -0.2224
     47  O2X        7.0540   12.8220   24.8840 O.3   316  NAP316     -0.1145
     48  O3X        8.7120   10.9240   24.5240 O.3   316  NAP316     -0.1145
@<TRIPOS>BOND
     1    41    39   am
     2    34    33    1
     3    39    40    2
     4    39    38    1
     5    37    38    1
     6    37    36    1
     7    33    35    1
     8    33    31    1
     9    38    42    2
    10    35    36    1
    11    35    30    1
    12    36    44    1
    13    32    31    1
    14    31    29    1
    15    30    29    1
    16    42    43    1
    17    29    28    1
    18    44    43    2
    19    28    27    1
    20    25    24    2
    21    27    24    1
    22    24    26    1
    23    24    23    1
    24     3     1    2
    25    46    45    2
    26    23     1    1
    27     1     4    1
    28     1     2    1
    29     5     4    1
    30     5     6    1
    31    45    48    1
    32    45    47    1
    33    45    11    1
    34     8    10    1
    35     8     6    1
    36     8     9    1
    37    10    11    1
    38    10    12    1
    39    14    15    1
    40    14    13    1
    41     6     7    1
    42    15    16    2
    43     7    12    1
    44    13    12    1
    45    13    22    1
    46    16    22    1
    47    16    17    1
    48    22    21    2
    49    18    17    1
    50    17    19    2
    51    21    20    1
    52    19    20    1
