@<TRIPOS>MOLECULE
3rx3_SUZ_A_1.pdb
 25 27 0 0 0
SMALL
GASTEIGER

@<TRIPOS>ATOM
      1  C20      -13.6020   10.4410   18.4700 C.ar  317  SUZ317      0.0083
      2  C19      -12.7150    9.3660   18.5750 C.ar  317  SUZ317     -0.0034
      3  C5       -11.3990    9.6090   18.9470 C.ar  317  SUZ317     -0.0181
      4  C6       -10.4480    8.4960   19.0700 C.3   317  SUZ317      0.0486
      5  C7        -9.2360    8.3790   18.5110 C.2   317  SUZ317     -0.0364
      6  C18       -8.5650    9.3250   17.5950 C.ar  317  SUZ317     -0.0077
      7  C17       -8.8980   10.5590   17.0440 C.ar  317  SUZ317      0.0017
      8  C16       -7.9780   11.1790   16.1850 C.ar  317  SUZ317      0.0296
      9  C15       -6.7410   10.5730   15.8910 C.ar  317  SUZ317      0.1401
     10  F         -5.8560   11.1760   15.0740 F     317  SUZ317     -0.2042
     11  C14       -6.4150    9.3380   16.4480 C.ar  317  SUZ317      0.0290
     12  C13       -7.3300    8.7280   17.2940 C.ar  317  SUZ317     -0.0054
     13  C10       -7.2090    7.4450   18.0030 C.2   317  SUZ317     -0.0295
     14  C11       -5.9970    6.6170   17.8320 C.3   317  SUZ317      0.1364
     15  C12       -6.2120    5.9590   16.4990 C.2   317  SUZ317      0.3689
     16  O3        -5.0110    5.6660   15.9510 O.co2 317  SUZ317     -0.2453
     17  O2        -7.3060    5.7390   15.9860 O.co2 317  SUZ317     -0.2453
     18  C8        -8.3430    7.2390   18.7060 C.3   317  SUZ317      0.0374
     19  C9        -8.7080    6.0900   19.5800 C.3   317  SUZ317      0.0087
     20  C4       -10.9470   10.8900   19.2250 C.ar  317  SUZ317     -0.0034
     21  C3       -11.8330   11.9600   19.1270 C.ar  317  SUZ317      0.0083
     22  C2       -13.1550   11.7370   18.7390 C.ar  317  SUZ317      0.0562
     23  S        -14.2780   13.1300   18.6180 S.O   317  SUZ317      0.0658
     24  O1       -13.7610   14.1560   19.5910 O.2   317  SUZ317     -0.2514
     25  C1       -15.7550   12.3870   19.3500 C.3   317  SUZ317      0.1110
@<TRIPOS>BOND
     1    10     9    1
     2     9     8   ar
     3     9    11   ar
     4    16    15   ar
     5    17    15   ar
     6     8     7   ar
     7    11    12   ar
     8    15    14    1
     9     7     6   ar
    10    12     6   ar
    11    12    13    2
    12     6     5    2
    13    14    13    1
    14    13    18    1
    15     1     2   ar
    16     1    22   ar
    17     5    18    1
    18     5     4    1
    19     2     3   ar
    20    23    22    1
    21    23    25    1
    22    23    24    2
    23    18    19    1
    24    22    21   ar
    25     3     4    1
    26     3    20   ar
    27    21    20   ar
