@<TRIPOS>MOLECULE
3rx3_NAP_A_1.pdb
 48 52 0 0 0
SMALL
GASTEIGER

@<TRIPOS>ATOM
      1  PA         2.5070    4.7810   23.6740 P.3   316  NAP316      0.2189
      2  O1A        2.0410    3.6770   24.6000 O.3   316  NAP316     -0.4371
      3  O2A        3.5140    4.4780   22.5970 O.2   316  NAP316     -0.5170
      4  O5B        3.0200    5.9730   24.6190 O.3   316  NAP316     -0.3112
      5  C5B        3.5050    7.2010   24.0450 C.3   316  NAP316      0.1813
      6  C4B        3.8210    8.1390   25.2020 C.3   316  NAP316      0.1820
      7  O4B        4.8490    7.5260   25.9760 O.3   316  NAP316     -0.3136
      8  C3B        4.3360    9.5110   24.7890 C.3   316  NAP316      0.2157
      9  O3B        3.7930   10.4510   25.7140 O.3   316  NAP316     -0.2175
     10  C2B        5.8370    9.4030   24.9810 C.3   316  NAP316      0.2314
     11  O2B        6.4550   10.6420   25.3260 O.3   316  NAP316     -0.2630
     12  C1B        5.9290    8.4260   26.1440 C.3   316  NAP316      0.3158
     13  N9A        7.1790    7.6410   26.1310 N.pl3 316  NAP316     -0.1439
     14  C8A        7.7180    7.0250   25.0690 C.3   316  NAP316      0.3377
     15  N7A        8.8610    6.4230   25.4680 N.2   316  NAP316     -0.2095
     16  C5A        9.0220    6.6600   26.7810 C.2   316  NAP316      0.2526
     17  C6A        9.9880    6.3010   27.7090 C.2   316  NAP316      0.4393
     18  N6A       11.0550    5.5460   27.3410 N.pl3 316  NAP316      0.2180
     19  N1A        9.8540    6.7230   28.9850 N.2   316  NAP316      0.0021
     20  C2A        8.8080    7.4630   29.3650 C.3   316  NAP316      0.5254
     21  N3A        7.8580    7.8160   28.4920 N.2   316  NAP316     -0.0055
     22  C4A        7.9500    7.4270   27.1940 C.2   316  NAP316      0.3518
     23  O3         1.1920    5.5160   23.0940 O.3   316  NAP316     -0.2703
     24  PN         0.5220    5.5620   21.6210 P.3   316  NAP316      0.2189
     25  O1N        1.1080    6.7150   20.8420 O.2   316  NAP316     -0.5170
     26  O2N       -0.9740    5.5100   21.8450 O.3   316  NAP316     -0.4371
     27  O5D        0.8550    4.1610   20.9070 O.3   316  NAP316     -0.3112
     28  C5D        1.9830    3.9810   20.0510 C.3   316  NAP316      0.1813
     29  C4D        1.5540    4.0210   18.5850 C.3   316  NAP316      0.1799
     30  O4D        0.5840    3.0120   18.2550 O.3   316  NAP316     -0.3327
     31  C3D        0.8650    5.3130   18.1860 C.3   316  NAP316      0.2158
     32  O3D        1.7870    6.4070   18.0800 O.3   316  NAP316     -0.2175
     33  C2D        0.2550    4.8940   16.8680 C.3   316  NAP316      0.2309
     34  O2D        1.3010    4.8700   15.8810 O.3   316  NAP316     -0.2158
     35  C1D       -0.2270    3.4710   17.1680 C.3   316  NAP316      0.2263
     36  N1N       -1.6570    3.4620   17.5440 N.pl3 316  NAP316     -0.2787
     37  C2N       -2.5550    2.9410   16.6880 C.3   316  NAP316      0.1244
     38  C3N       -3.9180    2.9310   16.9970 C.2   316  NAP316      0.0544
     39  C7N       -4.8960    2.3150   16.0350 C.2   316  NAP316      0.2818
     40  O7N       -4.4810    1.5320   15.1890 O.2   316  NAP316     -0.2670
     41  N7N       -6.1840    2.5930   16.1500 N.am  316  NAP316     -0.0839
     42  C4N       -4.3560    3.4550   18.2060 C.2   316  NAP316      0.0033
     43  C5N       -3.4160    3.9840   19.0910 C.2   316  NAP316      0.0157
     44  C6N       -2.0660    3.9700   18.7190 C.2   316  NAP316      0.0633
     45  P2B        7.2970   11.5500   24.2970 P.3   316  NAP316      0.5328
     46  O1X        7.0430   12.9360   24.8310 O.3   316  NAP316     -0.1145
     47  O2X        8.7310   11.0970   24.4390 O.3   316  NAP316     -0.1145
     48  O3X        6.7070   11.2920   22.9320 O.2   316  NAP316     -0.2224
@<TRIPOS>BOND
     1    40    39    2
     2    34    33    1
     3    39    41   am
     4    39    38    1
     5    37    38    1
     6    37    36    1
     7    33    35    1
     8    33    31    1
     9    38    42    2
    10    35    36    1
    11    35    30    1
    12    36    44    1
    13    32    31    1
    14    31    29    1
    15    42    43    1
    16    30    29    1
    17    29    28    1
    18    44    43    2
    19    28    27    1
    20    25    24    2
    21    27    24    1
    22    24    26    1
    23    24    23    1
    24     3     1    2
    25    48    45    2
    26    23     1    1
    27     1     2    1
    28     1     4    1
    29     5     4    1
    30     5     6    1
    31    45    47    1
    32    45    46    1
    33    45    11    1
    34     8    10    1
    35     8     6    1
    36     8     9    1
    37    10    11    1
    38    10    12    1
    39    14    15    1
    40    14    13    1
    41     6     7    1
    42    15    16    2
    43     7    12    1
    44    13    12    1
    45    13    22    1
    46    16    22    1
    47    16    17    1
    48    22    21    2
    49    18    17    1
    50    17    19    2
    51    21    20    1
    52    19    20    1
