@<TRIPOS>MOLECULE
3rx4_SFI_A_1.pdb
 24 26 0 0 0
SMALL
GASTEIGER

@<TRIPOS>ATOM
      1  F         -5.7400   10.8580   15.0510 F     317  SFI317     -0.2042
      2  S        -14.5370   12.3340   19.0670 S.3   317  SFI317     -0.1127
      3  C1        -6.8900    7.2690   18.1960 C.2   317  SFI317     -0.0295
      4  O1        -4.6110    5.3130   16.3260 O.co2 317  SFI317     -0.2453
      5  C2        -7.0840    8.5030   17.4250 C.ar  317  SFI317     -0.0054
      6  O2        -6.8980    5.1850   16.4700 O.co2 317  SFI317     -0.2453
      7  C3        -8.0100    7.0700   18.9280 C.3   317  SFI317      0.0374
      8  C4        -8.3420    9.0700   17.7100 C.ar  317  SFI317     -0.0077
      9  C5        -8.9590    8.1490   18.6800 C.2   317  SFI317     -0.0364
     10  C6        -5.6240    6.4980   18.0500 C.3   317  SFI317      0.1364
     11  C7        -6.2080    9.0960   16.5340 C.ar  317  SFI317      0.0290
     12  C8        -8.7390   10.2500   17.0890 C.ar  317  SFI317      0.0017
     13  C9       -10.1600    8.2110   19.2740 C.3   317  SFI317      0.0486
     14  C10       -8.3630    5.9780   19.8790 C.3   317  SFI317      0.0087
     15  C11       -6.5930   10.2810   15.9130 C.ar  317  SFI317      0.1401
     16  C12       -7.8510   10.8520   16.1860 C.ar  317  SFI317      0.0296
     17  C13      -11.2420    9.2060   19.1940 C.ar  317  SFI317     -0.0181
     18  C14       -5.8110    5.5920   16.8810 C.2   317  SFI317      0.3689
     19  C15      -10.9260   10.5440   19.3890 C.ar  317  SFI317     -0.0034
     20  C16      -12.5480    8.8010   18.9770 C.ar  317  SFI317     -0.0034
     21  C17      -11.9300   11.5120   19.3430 C.ar  317  SFI317      0.0058
     22  C18      -13.5560    9.7660   18.9360 C.ar  317  SFI317      0.0058
     23  C19      -13.2440   11.1170   19.1070 C.ar  317  SFI317      0.0252
     24  C20      -15.3020   12.0060   17.4570 C.3   317  SFI317      0.0742
@<TRIPOS>BOND
     1     1    15    1
     2    15    16   ar
     3    15    11   ar
     4    16    12   ar
     5     4    18   ar
     6     6    18   ar
     7    11     5   ar
     8    18    10    1
     9    12     8   ar
    10     5     8   ar
    11     5     3    2
    12    24     2    1
    13     8     9    2
    14    10     3    1
    15     3     7    1
    16     9     7    1
    17     9    13    1
    18     7    14    1
    19    22    20   ar
    20    22    23   ar
    21    20    17   ar
    22     2    23    1
    23    23    21   ar
    24    17    13    1
    25    17    19   ar
    26    21    19   ar
