@<TRIPOS>MOLECULE
3rx4_NAP_A_1.pdb
 48 52 0 0 0
SMALL
GASTEIGER

@<TRIPOS>ATOM
      1  PA         2.8290    4.5090   23.7230 P.3   316  NAP316      0.2189
      2  O1A        2.4160    3.4000   24.6680 O.3   316  NAP316     -0.4371
      3  O2A        3.8420    4.2140   22.6500 O.2   316  NAP316     -0.5170
      4  O5B        3.4060    5.6860   24.6570 O.3   316  NAP316     -0.3112
      5  C5B        3.8400    6.9280   24.0910 C.3   316  NAP316      0.1813
      6  C4B        4.1430    7.8960   25.2320 C.3   316  NAP316      0.1820
      7  O4B        5.1830    7.3650   26.0490 O.3   316  NAP316     -0.3136
      8  C3B        4.6140    9.2610   24.7780 C.3   316  NAP316      0.2157
      9  O3B        4.0380   10.1950   25.6990 O.3   316  NAP316     -0.2175
     10  C2B        6.1180    9.2040   24.9630 C.3   316  NAP316      0.2314
     11  O2B        6.6550   10.4820   25.2630 O.3   316  NAP316     -0.2630
     12  C1B        6.2690    8.2700   26.1550 C.3   316  NAP316      0.3158
     13  N9A        7.5140    7.4620   26.1250 N.pl3 316  NAP316     -0.1439
     14  C8A        8.0380    6.8580   25.0460 C.3   316  NAP316      0.3377
     15  N7A        9.1650    6.2180   25.4150 N.2   316  NAP316     -0.2095
     16  C5A        9.3470    6.4140   26.7370 C.2   316  NAP316      0.2526
     17  C6A       10.3180    6.0080   27.6470 C.2   316  NAP316      0.4393
     18  N6A       11.3730    5.2330   27.2760 N.pl3 316  NAP316      0.2180
     19  N1A       10.2000    6.3880   28.9370 N.2   316  NAP316      0.0021
     20  C2A        9.1760    7.1590   29.3370 C.3   316  NAP316      0.5254
     21  N3A        8.2300    7.5620   28.4780 N.2   316  NAP316     -0.0055
     22  C4A        8.2970    7.2040   27.1730 C.2   316  NAP316      0.3518
     23  O3         1.4960    5.2320   23.1630 O.3   316  NAP316     -0.2703
     24  PN         0.7830    5.2970   21.7130 P.3   316  NAP316      0.2189
     25  O1N        1.3320    6.4480   20.9180 O.2   316  NAP316     -0.5170
     26  O2N       -0.7020    5.2440   21.9940 O.3   316  NAP316     -0.4371
     27  O5D        1.0800    3.9090   20.9370 O.3   316  NAP316     -0.3112
     28  C5D        2.2570    3.7260   20.1540 C.3   316  NAP316      0.1813
     29  C4D        1.8720    3.7540   18.6770 C.3   316  NAP316      0.1799
     30  O4D        0.9400    2.7240   18.3600 O.3   316  NAP316     -0.3327
     31  C3D        1.1240    5.0070   18.2660 C.3   316  NAP316      0.2158
     32  O3D        2.0090    6.1210   18.1150 O.3   316  NAP316     -0.2175
     33  C2D        0.5050    4.5530   16.9590 C.3   316  NAP316      0.2309
     34  O2D        1.5270    4.5420   15.9530 O.3   316  NAP316     -0.2158
     35  C1D        0.0830    3.1260   17.2780 C.3   316  NAP316      0.2263
     36  N1N       -1.3440    3.1000   17.6720 N.pl3 316  NAP316     -0.2787
     37  C2N       -2.2670    2.5930   16.8330 C.3   316  NAP316      0.1244
     38  C3N       -3.6220    2.5840   17.1880 C.2   316  NAP316      0.0544
     39  C7N       -4.6510    1.9900   16.2660 C.2   316  NAP316      0.2818
     40  O7N       -5.8260    2.2950   16.3860 O.2   316  NAP316     -0.2670
     41  N7N       -4.2470    1.1100   15.3590 N.am  316  NAP316     -0.0839
     42  C4N       -4.0190    3.0940   18.4190 C.2   316  NAP316      0.0033
     43  C5N       -3.0530    3.6120   19.2790 C.2   316  NAP316      0.0157
     44  C6N       -1.7210    3.5990   18.8650 C.2   316  NAP316      0.0633
     45  P2B        7.5500   11.3250   24.2180 P.3   316  NAP316      0.5328
     46  O1X        6.9940   11.0680   22.8360 O.2   316  NAP316     -0.2224
     47  O2X        7.3250   12.7200   24.7180 O.3   316  NAP316     -0.1145
     48  O3X        8.9600   10.8140   24.3950 O.3   316  NAP316     -0.1145
@<TRIPOS>BOND
     1    41    39   am
     2    34    33    1
     3    39    40    2
     4    39    38    1
     5    37    38    1
     6    37    36    1
     7    33    35    1
     8    33    31    1
     9    38    42    2
    10    35    36    1
    11    35    30    1
    12    36    44    1
    13    32    31    1
    14    31    29    1
    15    30    29    1
    16    42    43    1
    17    29    28    1
    18    44    43    2
    19    28    27    1
    20    25    24    2
    21    27    24    1
    22    24    26    1
    23    24    23    1
    24     3     1    2
    25    46    45    2
    26    23     1    1
    27     1     4    1
    28     1     2    1
    29     5     4    1
    30     5     6    1
    31    45    48    1
    32    45    47    1
    33    45    11    1
    34     8    10    1
    35     8     6    1
    36     8     9    1
    37    10    11    1
    38    10    12    1
    39    14    15    1
    40    14    13    1
    41     6     7    1
    42    15    16    2
    43     7    12    1
    44    13    12    1
    45    13    22    1
    46    16    22    1
    47    16    17    1
    48    22    21    2
    49    18    17    1
    50    17    19    2
    51    21    20    1
    52    19    20    1
