@<TRIPOS>MOLECULE
3rx5_G2I_A_1.pdb
 32 34 0 0 0
SMALL
GASTEIGER

@<TRIPOS>ATOM
      1  O61      -12.6100   35.4870  -23.4860 O.3   604  G2I604     -0.2203
      2  C61      -13.2970   34.5110  -22.6830 C.3   604  G2I604      0.1860
      3  C51      -13.4700   33.2110  -23.5000 C.3   604  G2I604      0.0802
      4  C71      -14.6760   33.3680  -24.5190 C.3   604  G2I604      0.0939
      5  N11      -15.0560   32.0110  -25.0500 N.3   604  G2I604     -0.2151
      6  C21      -13.9450   31.6990  -26.0560 C.3   604  G2I604      0.1240
      7  C31      -12.6610   31.4260  -25.1410 C.3   604  G2I604      0.1963
      8  O31      -11.5330   31.1070  -25.9020 O.3   604  G2I604     -0.2190
      9  C41      -12.2130   32.7130  -24.3150 C.3   604  G2I604      0.1533
     10  O41      -11.2050   32.2420  -23.3600 O.3   604  G2I604     -0.3283
     11  C12      -10.1400   33.1380  -23.2280 C.3   604  G2I604      0.2695
     12  C22       -9.3070   32.8070  -21.9410 C.3   604  G2I604      0.2404
     13  O22      -10.1620   33.2390  -20.9540 O.3   604  G2I604     -0.2149
     14  C32       -8.0170   33.6820  -22.0180 C.3   604  G2I604      0.2167
     15  O32       -7.1600   33.3380  -20.8730 O.3   604  G2I604     -0.2175
     16  O52       -9.3290   32.8900  -24.4050 O.3   604  G2I604     -0.3257
     17  C52       -8.2190   33.7590  -24.5400 C.3   604  G2I604      0.1803
     18  C62       -7.8140   33.8460  -26.1240 C.3   604  G2I604      0.2141
     19  O62       -7.1840   32.6260  -26.3280 O.3   604  G2I604     -0.2176
     20  C42       -7.2380   33.4070  -23.4300 C.3   604  G2I604      0.1804
     21  O42       -6.4730   34.5190  -23.5310 O.3   604  G2I604     -0.3257
     22  C13       -5.1390   34.3510  -23.1170 C.3   604  G2I604      0.2695
     23  C23       -4.0450   35.3450  -23.8130 C.3   604  G2I604      0.2406
     24  O23       -4.0110   35.1740  -25.0600 O.3   604  G2I604     -0.2149
     25  C33       -2.6320   35.2760  -23.2910 C.3   604  G2I604      0.2198
     26  O33       -1.8060   36.3770  -23.7200 O.3   604  G2I604     -0.2174
     27  C43       -2.7110   35.3680  -21.7570 C.3   604  G2I604      0.2144
     28  O43       -1.4700   34.9170  -21.3700 O.3   604  G2I604     -0.2176
     29  O53       -5.0330   34.5940  -21.7150 O.3   604  G2I604     -0.3256
     30  C53       -3.7400   34.2660  -21.1630 C.3   604  G2I604      0.1835
     31  C63       -3.8290   34.1790  -19.5940 C.3   604  G2I604      0.2142
     32  O63       -5.0470   33.5700  -19.2190 O.3   604  G2I604     -0.2176
@<TRIPOS>BOND
     1    19    18    1
     2    18    17    1
     3     6     7    1
     4     6     5    1
     5     8     7    1
     6     7     9    1
     7    24    23    1
     8     5     4    1
     9    17    16    1
    10    17    20    1
    11     4     3    1
    12    16    11    1
    13     9     3    1
    14     9    10    1
    15    23    25    1
    16    23    22    1
    17    26    25    1
    18    21    20    1
    19    21    22    1
    20     3     2    1
    21     1     2    1
    22    20    14    1
    23    10    11    1
    24    25    27    1
    25    11    12    1
    26    22    29    1
    27    14    12    1
    28    14    15    1
    29    12    13    1
    30    27    28    1
    31    27    30    1
    32    29    30    1
    33    30    31    1
    34    31    32    1
