@<TRIPOS>MOLECULE
3rx5_CBI_A_1.pdb
 23 24 0 0 0
SMALL
GASTEIGER

@<TRIPOS>ATOM
      1  C1       -14.6140   36.5100  -30.6180 C.3   605  CBI605      0.2695
      2  C2       -15.5830   35.6920  -29.7660 C.3   605  CBI605      0.2406
      3  C3       -15.0930   35.6270  -28.3290 C.3   605  CBI605      0.2198
      4  C4       -13.7020   35.0360  -28.3290 C.3   605  CBI605      0.2144
      5  C5       -12.7240   35.7220  -29.2780 C.3   605  CBI605      0.1835
      6  C6       -11.5890   34.7070  -29.4690 C.3   605  CBI605      0.2142
      7  O2       -16.8810   36.2790  -29.8120 O.3   605  CBI605     -0.2149
      8  O3       -15.9130   34.7260  -27.5790 O.3   605  CBI605     -0.2174
      9  O4       -13.1730   35.1150  -27.0000 O.3   605  CBI605     -0.2176
     10  O5       -13.3030   35.9180  -30.5710 O.3   605  CBI605     -0.3256
     11  O6       -10.3790   35.4070  -29.7060 O.3   605  CBI605     -0.2176
     12  C1'      -14.3920   38.1250  -35.6320 C.3   605  CBI605      0.3023
     13  C2'      -13.1370   37.5530  -34.9610 C.3   605  CBI605      0.2433
     14  C3'      -13.5680   36.6320  -33.8080 C.3   605  CBI605      0.2168
     15  C4'      -14.5100   37.3600  -32.8470 C.3   605  CBI605      0.1804
     16  C5'      -15.6540   37.9660  -33.6570 C.3   605  CBI605      0.1804
     17  C6'      -16.6900   38.7060  -32.8200 C.3   605  CBI605      0.2141
     18  O1'      -14.1210   39.0060  -36.7320 O.3   605  CBI605     -0.1869
     19  O2'      -12.3600   36.7940  -35.8940 O.3   605  CBI605     -0.2148
     20  O3'      -12.4300   36.0750  -33.1330 O.3   605  CBI605     -0.2175
     21  O4'      -15.0890   36.4150  -31.9570 O.3   605  CBI605     -0.3257
     22  O5'      -15.1120   38.8470  -34.6360 O.3   605  CBI605     -0.3237
     23  O6'      -16.0530   39.8460  -32.2420 O.3   605  CBI605     -0.2176
@<TRIPOS>BOND
     1    18    12    1
     2    19    13    1
     3    12    13    1
     4    12    22    1
     5    13    14    1
     6    22    16    1
     7    14    20    1
     8    14    15    1
     9    16    15    1
    10    16    17    1
    11    15    21    1
    12    17    23    1
    13    21     1    1
    14     1    10    1
    15     1     2    1
    16    10     5    1
    17     7     2    1
    18     2     3    1
    19    11     6    1
    20     6     5    1
    21     5     4    1
    22     4     3    1
    23     4     9    1
    24     3     8    1
