@<TRIPOS>MOLECULE
3rx7_9MR_A_1.pdb
 21 22 0 0 0
SMALL
GASTEIGER

@<TRIPOS>ATOM
      1  O2B      -17.0270   35.9140  -29.9110 O.3   605  9MR605     -0.2149
      2  C2B      -15.7240   35.4230  -29.7900 C.3   605  9MR605      0.2406
      3  C3B      -15.1650   35.3600  -28.2940 C.3   605  9MR605      0.2198
      4  O3B      -15.9510   34.4100  -27.6370 O.3   605  9MR605     -0.2174
      5  C4B      -13.7480   34.8850  -28.2270 C.3   605  9MR605      0.2144
      6  O4B      -13.0320   34.9350  -26.9900 O.3   605  9MR605     -0.2176
      7  C5B      -12.7540   35.5010  -29.2350 C.3   605  9MR605      0.1835
      8  C6B      -11.9570   34.1440  -29.5100 C.3   605  9MR605      0.2142
      9  O6B      -10.7570   34.6870  -29.6870 O.3   605  9MR605     -0.2176
     10  O5B      -13.3380   35.6620  -30.4690 O.3   605  9MR605     -0.3256
     11  C1B      -14.7100   36.2640  -30.6370 C.3   605  9MR605      0.2695
     12  O3A      -15.2100   36.2190  -31.9940 O.3   605  9MR605     -0.3279
     13  C3A      -14.4380   37.0630  -32.8280 C.3   605  9MR605      0.1581
     14  C4A      -13.3240   36.2570  -33.6910 C.3   605  9MR605      0.2035
     15  O4A      -12.1470   35.7080  -32.9680 O.3   605  9MR605     -0.2184
     16  C5M      -12.8990   36.9800  -35.0900 C.3   605  9MR605      0.1604
     17  N5A      -13.4610   38.4420  -35.2680 N.2   605  9MR605     -0.2706
     18  C1A      -14.6460   38.7970  -34.4750 C.2   605  9MR605      0.0716
     19  C2A      -15.4340   37.7530  -33.7740 C.3   605  9MR605      0.1037
     20  C6A      -16.7690   38.3620  -33.1700 C.3   605  9MR605      0.1905
     21  O6A      -16.5060   39.5220  -32.3650 O.3   605  9MR605     -0.2199
@<TRIPOS>BOND
     1    17    16    1
     2    17    18    2
     3    16    14    1
     4    18    19    1
     5    19    20    1
     6    19    13    1
     7    14    15    1
     8    14    13    1
     9    20    21    1
    10    13    12    1
    11    12    11    1
    12    11    10    1
    13    11     2    1
    14    10     7    1
    15     1     2    1
    16     2     3    1
    17     9     8    1
    18     8     7    1
    19     7     5    1
    20     3     5    1
    21     3     4    1
    22     5     6    1
