@<TRIPOS>MOLECULE
3rx7_G3I_A_1.pdb
 43 46 0 0 0
SMALL
GASTEIGER

@<TRIPOS>ATOM
      1  O24       -0.3980   33.6830  -18.9230 O.3   604  G3I604     -0.2149
      2  C24        0.2450   34.7880  -19.7090 C.3   604  G3I604      0.2406
      3  C34        1.2790   35.6600  -18.9470 C.3   604  G3I604      0.2198
      4  O34        2.2940   34.8700  -18.4560 O.3   604  G3I604     -0.2174
      5  C44        2.0680   36.6240  -19.8220 C.3   604  G3I604      0.2144
      6  O44        2.6800   37.4870  -18.8490 O.3   604  G3I604     -0.2176
      7  C54        1.2300   37.3820  -20.9320 C.3   604  G3I604      0.1835
      8  C64        2.1750   37.6480  -22.1000 C.3   604  G3I604      0.2142
      9  O64        1.5910   37.3240  -23.4270 O.3   604  G3I604     -0.2176
     10  O54       -0.0340   36.7190  -21.3400 O.3   604  G3I604     -0.3256
     11  C14       -0.6880   35.6950  -20.5350 C.3   604  G3I604      0.2695
     12  O43       -1.4330   34.7460  -21.3390 O.3   604  G3I604     -0.3257
     13  C43       -2.7220   35.1590  -21.6850 C.3   604  G3I604      0.1804
     14  C53       -3.7600   34.0550  -21.0900 C.3   604  G3I604      0.1803
     15  O53       -5.0530   34.2810  -21.6790 O.3   604  G3I604     -0.3257
     16  C63       -4.0320   34.0050  -19.5180 C.3   604  G3I604      0.2141
     17  O63       -5.0180   33.0440  -19.2570 O.3   604  G3I604     -0.2176
     18  C33       -2.6890   35.1460  -23.2590 C.3   604  G3I604      0.2167
     19  O33       -1.9600   36.3370  -23.5970 O.3   604  G3I604     -0.2175
     20  C23       -4.1320   35.1840  -23.7950 C.3   604  G3I604      0.2404
     21  O23       -4.2410   35.2260  -25.1320 O.3   604  G3I604     -0.2149
     22  C13       -5.1630   34.1920  -23.1380 C.3   604  G3I604      0.2695
     23  O42       -6.5260   34.3920  -23.5570 O.3   604  G3I604     -0.3257
     24  C42       -7.2810   33.2300  -23.4830 C.3   604  G3I604      0.1804
     25  C52       -8.2600   33.5990  -24.6210 C.3   604  G3I604      0.1803
     26  O52       -9.3640   32.7570  -24.5680 O.3   604  G3I604     -0.3257
     27  C62       -7.8100   33.5750  -26.1210 C.3   604  G3I604      0.2141
     28  O62       -6.9850   32.4480  -26.2780 O.3   604  G3I604     -0.2176
     29  C32       -8.0880   33.3700  -22.0910 C.3   604  G3I604      0.2167
     30  O32       -7.3440   33.2290  -20.8500 O.3   604  G3I604     -0.2175
     31  C22       -9.3670   32.5770  -22.1070 C.3   604  G3I604      0.2404
     32  O22      -10.1990   32.9710  -21.0380 O.3   604  G3I604     -0.2149
     33  C12      -10.1390   32.9720  -23.3930 C.3   604  G3I604      0.2695
     34  O41      -11.2340   32.0970  -23.5080 O.3   604  G3I604     -0.3283
     35  C41      -12.2560   32.4750  -24.3920 C.3   604  G3I604      0.1533
     36  C31      -12.6080   31.1800  -25.2070 C.3   604  G3I604      0.1963
     37  O31      -11.4750   30.8360  -26.0060 O.3   604  G3I604     -0.2190
     38  C21      -13.9450   31.2970  -26.0300 C.3   604  G3I604      0.1240
     39  N11      -15.1070   31.7380  -25.0870 N.3   604  G3I604     -0.2151
     40  C71      -14.6520   33.0960  -24.5850 C.3   604  G3I604      0.0939
     41  C51      -13.5270   32.9110  -23.5410 C.3   604  G3I604      0.0802
     42  C61      -13.4240   34.1700  -22.6970 C.3   604  G3I604      0.1860
     43  O61      -12.7360   35.2110  -23.4540 O.3   604  G3I604     -0.2203
@<TRIPOS>BOND
     1    28    27    1
     2    27    25    1
     3    38    36    1
     4    38    39    1
     5    37    36    1
     6    36    35    1
     7    21    20    1
     8    39    40    1
     9    25    26    1
    10    25    24    1
    11    40    41    1
    12    26    33    1
    13    35    41    1
    14    35    34    1
    15    20    18    1
    16    20    22    1
    17    19    18    1
    18    23    24    1
    19    23    22    1
    20    41    42    1
    21    34    33    1
    22    24    29    1
    23    43    42    1
    24     9     8    1
    25    33    31    1
    26    18    13    1
    27    22    15    1
    28    31    29    1
    29    31    32    1
    30     8     7    1
    31    29    30    1
    32    13    12    1
    33    13    14    1
    34    15    14    1
    35    10     7    1
    36    10    11    1
    37    12    11    1
    38    14    16    1
    39     7     5    1
    40    11     2    1
    41     5     3    1
    42     5     6    1
    43     2     3    1
    44     2     1    1
    45    16    17    1
    46     3     4    1
