@<TRIPOS>MOLECULE
3rx8_9MR_A_1.pdb
 21 22 0 0 0
SMALL
GASTEIGER

@<TRIPOS>ATOM
      1  O2B      -12.7060   35.7470  -33.7090 O.3   603  9MR603     -0.2149
      2  C2B      -14.1260   35.8420  -33.9310 C.3   603  9MR603      0.2406
      3  C3B      -14.5640   36.9740  -34.9650 C.3   603  9MR603      0.2198
      4  O3B      -14.5110   36.7960  -36.4340 O.3   603  9MR603     -0.2174
      5  C4B      -15.9370   37.7240  -34.6880 C.3   603  9MR603      0.2144
      6  O4B      -15.4110   38.9170  -35.0680 O.3   603  9MR603     -0.2176
      7  C5B      -15.9760   38.0070  -33.1740 C.3   603  9MR603      0.1835
      8  C6B      -16.7980   39.1380  -32.4660 C.3   603  9MR603      0.2142
      9  O6B      -17.9520   39.2630  -33.1440 O.3   603  9MR603     -0.2176
     10  O5B      -15.9590   36.7420  -32.4810 O.3   603  9MR603     -0.3256
     11  C1B      -14.6130   36.2330  -32.4910 C.3   603  9MR603      0.2695
     12  O3A      -14.5540   35.9560  -31.2560 O.3   603  9MR603     -0.3283
     13  C3A      -14.5960   35.8910  -29.8250 C.3   603  9MR603      0.1533
     14  C4A      -15.9630   35.2000  -29.6190 C.3   603  9MR603      0.1963
     15  O4A      -17.0330   36.0210  -30.0530 O.3   603  9MR603     -0.2190
     16  C5M      -16.2480   34.6610  -28.2000 C.3   603  9MR603      0.1240
     17  N5A      -15.0090   34.2550  -27.4320 N.3   603  9MR603     -0.2151
     18  C1A      -13.6350   34.8690  -27.7370 C.3   603  9MR603      0.0939
     19  C2A      -13.5890   34.8600  -29.2870 C.3   603  9MR603      0.0802
     20  C6A      -12.2110   34.5970  -29.9660 C.3   603  9MR603      0.1860
     21  O6A      -11.2800   35.5640  -29.6880 O.3   603  9MR603     -0.2203
@<TRIPOS>BOND
     1     4     3    1
     2     6     5    1
     3     3     5    1
     4     3     2    1
     5     5     7    1
     6     2     1    1
     7     2    11    1
     8     7    10    1
     9     7     8    1
    10     9     8    1
    11    11    10    1
    12    11    12    1
    13    12    13    1
    14    15    14    1
    15    20    21    1
    16    20    19    1
    17    13    14    1
    18    13    19    1
    19    14    16    1
    20    19    18    1
    21    16    17    1
    22    18    17    1
