@<TRIPOS>MOLECULE
3rxb_ALG_A_1.pdb
 10 9 0 0 0
SMALL
GASTEIGER

@<TRIPOS>ATOM
      1  C         -1.5150  -16.7930   14.4380 C.2     6  ALG6        0.3650
      2  O         -1.8670  -17.0730   15.5740 O.co2   6  ALG6       -0.2457
      3  CA        -0.6160  -15.6130   14.1430 C.3     6  ALG6        0.1178
      4  CB        -0.5470  -14.6440   15.3190 C.3     6  ALG6        0.0587
      5  CD        -1.8630  -13.9040   15.5130 C.3     6  ALG6        0.2210
      6  NE        -1.9700  -13.2890   16.8210 N.pl3   6  ALG6       -0.0865
      7  CZ        -2.2600  -13.9520   17.9490 C.cat   6  ALG6        0.5346
      8  NH1       -2.4110  -15.2070   17.9950 N.pl3   6  ALG6        0.1354
      9  NH2       -2.4090  -13.2670   19.0760 N.pl3   6  ALG6        0.1354
     10  OXT       -1.9460  -17.5560   13.4450 O.co2   6  ALG6       -0.2457
@<TRIPOS>BOND
     1    10     1   ar
     2     3     1    1
     3     3     4    1
     4     1     2   ar
     5     4     5    1
     6     5     6    1
     7     6     7    2
     8     7     8    1
     9     7     9    1
