@<TRIPOS>MOLECULE
3rxd_SZ4_A_1.pdb
 10 10 0 0 0
SMALL
GASTEIGER

@<TRIPOS>ATOM
      1  N         -3.0990  -13.4560   18.8870 N.3     6  SZ46       -0.1262
      2  O         -2.5500  -17.4520   15.6230 O.3     6  SZ46       -0.4714
      3  C1        -1.8080  -13.3330   18.2350 C.3     6  SZ46        0.1357
      4  C2        -1.7610  -14.1020   16.9290 C.ar    6  SZ46       -0.0002
      5  C3        -1.2870  -13.4970   15.7670 C.ar    6  SZ46       -0.0026
      6  C4        -1.2420  -14.2100   14.5720 C.ar    6  SZ46        0.0028
      7  C5        -1.6680  -15.5340   14.5320 C.ar    6  SZ46        0.0369
      8  C6        -2.1380  -16.1440   15.6890 C.ar    6  SZ46        0.1385
      9  C7        -3.0580  -18.1250   16.7780 C.3     6  SZ46        0.2525
     10  C8        -2.1820  -15.4280   16.8870 C.ar    6  SZ46        0.0341
@<TRIPOS>BOND
     1     7     6   ar
     2     7     8   ar
     3     6     5   ar
     4     2     8    1
     5     2     9    1
     6     8    10   ar
     7     5     4   ar
     8    10     4   ar
     9     4     3    1
    10     3     1    1
