@<TRIPOS>MOLECULE
3rxi_TSS_A_1.pdb
 12 13 0 0 0
SMALL
GASTEIGER

@<TRIPOS>ATOM
      1  N1        -1.8700  -12.6160   18.0770 N.3     6  TSS6       -0.1310
      2  CA        -2.0810  -13.3560   16.8440 C.3     6  TSS6        0.1140
      3  CB        -0.9290  -14.3270   16.6480 C.3     6  TSS6        0.0485
      4  CG        -1.2040  -15.3060   15.5340 C.2     6  TSS6       -0.0004
      5  CD1       -0.6300  -15.3160   14.2650 C.2     6  TSS6        0.0946
      6  NE1       -1.1060  -16.3600   13.5250 N.2     6  TSS6       -0.2442
      7  CE2       -1.9930  -17.0870   14.2300 C.2     6  TSS6        0.0804
      8  CD2       -2.1140  -16.4670   15.5580 C.2     6  TSS6        0.0113
      9  CZ2       -2.7550  -18.2190   13.9610 C.2     6  TSS6        0.0148
     10  CH2       -3.6010  -18.7290   14.9480 C.2     6  TSS6       -0.0199
     11  CZ3       -3.7030  -18.1280   16.2110 C.3     6  TSS6        0.0521
     12  CE3       -2.9550  -16.9920   16.5260 C.2     6  TSS6       -0.0202
@<TRIPOS>BOND
     1     6     7    2
     2     6     5    1
     3     9     7    1
     4     9    10    2
     5     7     8    1
     6     5     4    2
     7    10    11    1
     8     4     8    1
     9     4     3    1
    10     8    12    2
    11    11    12    1
    12     3     2    1
    13     2     1    1
