@<TRIPOS>MOLECULE
3rxj_GBS_A_1.pdb
 13 13 0 0 0
SMALL
GASTEIGER

@<TRIPOS>ATOM
      1  CD        -0.2630  -15.1340   13.4860 C.2     9  GBS9        0.3878
      2  OD        -0.5370  -16.2780   12.7900 O.co2   9  GBS9       -0.2406
      3  C1        -0.9620  -14.9950   14.7640 C.ar    9  GBS9        0.0800
      4  C21       -0.7010  -13.9270   15.6300 C.ar    9  GBS9        0.0096
      5  C22       -1.9090  -15.9640   15.1260 C.ar    9  GBS9        0.0096
      6  C31       -1.2860  -13.8840   16.8890 C.ar    9  GBS9        0.0373
      7  C32       -2.4990  -15.9310   16.3820 C.ar    9  GBS9        0.0373
      8  C4        -2.1520  -14.9190   17.3100 C.ar    9  GBS9        0.1592
      9  NE        -2.7620  -14.8980   18.5790 N.pl3   9  GBS9       -0.0605
     10  CZ        -2.5200  -13.7590   19.4550 C.cat   9  GBS9        0.5393
     11  NH1       -2.1750  -12.6040   18.9560 N.pl3   9  GBS9        0.1358
     12  NH2       -2.6050  -14.0820   20.8430 N.pl3   9  GBS9        0.1358
     13  OXT        0.5440  -14.3600   12.9560 O.co2   9  GBS9       -0.2406
@<TRIPOS>BOND
     1     2     1   ar
     2    13     1   ar
     3     1     3    1
     4     3     5   ar
     5     3     4   ar
     6     5     7   ar
     7     4     6   ar
     8     7     8   ar
     9     6     8   ar
    10     8     9    1
    11     9    10    2
    12    11    10    1
    13    10    12    1
