@<TRIPOS>MOLECULE
3rxk_SZ8_A_1.pdb
 11 11 0 0 0
SMALL
GASTEIGER

@<TRIPOS>ATOM
      1  C1        -1.9180  -13.6920   17.0890 C.3     8  SZ88        0.1096
      2  N1        -1.6460  -12.9600   18.2640 N.3     8  SZ88       -0.1314
      3  O1        -3.5930  -17.4980   16.4300 O.3     8  SZ88       -0.4435
      4  C2        -0.9480  -13.6180   15.9520 C.3     8  SZ88        0.0917
      5  N2        -1.1960  -14.8060   15.1790 N.3     8  SZ88       -0.2624
      6  O2        -2.5750  -17.3230   14.4470 O.2     8  SZ88       -0.2486
      7  C3        -0.7650  -15.0530   13.8070 C.3     8  SZ88        0.0901
      8  C4        -1.9540  -15.7200   15.9800 C.3     8  SZ88        0.1592
      9  C5        -2.7180  -16.8790   15.5140 C.2     8  SZ88        0.3317
     10  C6        -4.4800  -18.4550   15.8810 C.3     8  SZ88        0.2556
     11  C7        -2.4480  -15.0860   17.2380 C.3     8  SZ88        0.0478
@<TRIPOS>BOND
     1     7     5    1
     2     6     9    2
     3     5     4    1
     4     5     8    1
     5     9     8    1
     6     9     3    1
     7    10     3    1
     8     4     1    1
     9     8    11    1
    10     1    11    1
    11     1     2    1
