@<TRIPOS>MOLECULE
3rxm_SW1_A_1.pdb
 12 13 0 0 0
SMALL
GASTEIGER

@<TRIPOS>ATOM
      1  C1        -1.8110  -13.2780   18.3170 C.3     8  SW18        0.1642
      2  N1        -3.1100  -13.4840   18.9220 N.3     8  SW18       -0.1237
      3  S1        -1.2070  -14.5710   14.5140 S.3     8  SW18       -0.0746
      4  C2        -1.7380  -13.9920   16.9860 C.2     8  SW18        0.1177
      5  N2        -2.2930  -15.2280   16.7640 N.2     8  SW18       -0.4014
      6  S2        -3.9090  -17.7880   15.8520 S.2     8  SW18       -0.0833
      7  C3        -1.0970  -13.4800   15.8520 C.3     8  SW18        0.1203
      8  C4        -2.0970  -15.6720   15.5040 C.2     8  SW18        0.1625
      9  C5        -2.6200  -16.9860   15.0450 C.ar    8  SW18        0.0650
     10  C6        -2.1340  -17.6890   13.9500 C.ar    8  SW18        0.0101
     11  C7        -2.8280  -18.8980   13.7750 C.ar    8  SW18        0.0076
     12  C8        -3.8260  -19.0960   14.7240 C.ar    8  SW18        0.0355
@<TRIPOS>BOND
     1    11    10   ar
     2    11    12   ar
     3    10     9   ar
     4     3     8    1
     5     3     7    1
     6    12     6   ar
     7     9     8    1
     8     9     6   ar
     9     8     5    2
    10     7     4    1
    11     5     4    2
    12     4     1    1
    13     1     2    1
