@<TRIPOS>MOLECULE
3rxo_SW2_A_1.pdb
 13 14 0 0 0
SMALL
GASTEIGER

@<TRIPOS>ATOM
      1  C1        -1.7030  -13.4820   18.3010 C.3     7  SW27        0.1357
      2  N1        -3.0300  -13.4880   18.8880 N.3     7  SW27       -0.1262
      3  C2        -1.6840  -14.1980   16.9640 C.ar    7  SW27       -0.0017
      4  N2        -2.9610  -17.3110   15.3810 N.ar    7  SW27       -0.3036
      5  C3        -1.0160  -13.6220   15.8960 C.ar    7  SW27       -0.0027
      6  C4        -0.9950  -14.2710   14.6750 C.ar    7  SW27        0.0012
      7  C5        -1.6420  -15.4930   14.5190 C.ar    7  SW27        0.0175
      8  C6        -2.3260  -16.1280   15.5640 C.ar    7  SW27        0.0638
      9  C7        -2.5980  -18.2220   14.4730 C.ar    7  SW27        0.0802
     10  C8        -3.5160  -19.2510   14.5990 C.ar    7  SW27        0.0205
     11  C9        -4.4160  -18.8950   15.5900 C.ar    7  SW27        0.0205
     12  C10       -4.0510  -17.6570   16.0690 C.ar    7  SW27        0.0802
     13  C11       -2.3230  -15.4290   16.7870 C.ar    7  SW27        0.0147
@<TRIPOS>BOND
     1     9    10   ar
     2     9     4   ar
     3     7     6   ar
     4     7     8   ar
     5    10    11   ar
     6     6     5   ar
     7     4     8    1
     8     4    12   ar
     9     8    13   ar
    10    11    12   ar
    11     5     3   ar
    12    13     3   ar
    13     3     1    1
    14     1     2    1
