@<TRIPOS>MOLECULE
3rxs_SZ4_A_1.pdb
 10 10 0 0 0
SMALL
GASTEIGER

@<TRIPOS>ATOM
      1  N         -2.8810  -13.4320   18.8800 N.3     6  SZ46       -0.1262
      2  O         -2.7560  -17.2410   15.4910 O.3     6  SZ46       -0.4714
      3  C1        -1.7470  -13.1880   18.0250 C.3     6  SZ46        0.1357
      4  C2        -1.7200  -14.0490   16.7650 C.ar    6  SZ46       -0.0002
      5  C3        -1.1170  -13.5680   15.6510 C.ar    6  SZ46       -0.0026
      6  C4        -1.0760  -14.2940   14.4920 C.ar    6  SZ46        0.0028
      7  C5        -1.6140  -15.5410   14.4360 C.ar    6  SZ46        0.0369
      8  C6        -2.2230  -16.0360   15.5570 C.ar    6  SZ46        0.1385
      9  C7        -3.0700  -17.9230   16.6800 C.3     6  SZ46        0.2525
     10  C8        -2.2830  -15.3210   16.7270 C.ar    6  SZ46        0.0341
@<TRIPOS>BOND
     1     7     6   ar
     2     7     8   ar
     3     6     5   ar
     4     2     8    1
     5     2     9    1
     6     8    10   ar
     7     5     4   ar
     8    10     4   ar
     9     4     3    1
    10     3     1    1
