@<TRIPOS>MOLECULE
3rxt_SZ4_A_1.pdb
 10 10 0 0 0
SMALL
GASTEIGER

@<TRIPOS>ATOM
      1  N         -3.0600  -13.4020   18.8570 N.3     6  SZ46       -0.1262
      2  O         -2.6720  -17.2340   15.4930 O.3     6  SZ46       -0.4714
      3  C1        -1.8100  -13.3490   18.2040 C.3     6  SZ46        0.1357
      4  C2        -1.8040  -14.0770   16.8810 C.ar    6  SZ46       -0.0002
      5  C3        -1.2970  -13.4640   15.7760 C.ar    6  SZ46       -0.0026
      6  C4        -1.2710  -14.0900   14.5680 C.ar    6  SZ46        0.0028
      7  C5        -1.7500  -15.3650   14.4640 C.ar    6  SZ46        0.0369
      8  C6        -2.2340  -15.9860   15.5850 C.ar    6  SZ46        0.1385
      9  C7        -2.7850  -17.9650   16.6640 C.3     6  SZ46        0.2525
     10  C8        -2.2570  -15.3590   16.8060 C.ar    6  SZ46        0.0341
@<TRIPOS>BOND
     1     7     6   ar
     2     7     8   ar
     3     6     5   ar
     4     2     8    1
     5     2     9    1
     6     8    10   ar
     7     5     4   ar
     8    10     4   ar
     9     4     3    1
    10     3     1    1
