@<TRIPOS>MOLECULE
3rxw_SR3_A_1.pdb
 21 20 0 0 0
SMALL
GASTEIGER

@<TRIPOS>ATOM
      1  C          6.0630    4.0320   -0.2230 C.2     1  SR31        0.3863
      2  N          8.2840    4.3250    0.7920 N.pl3   1  SR31       -0.2244
      3  O          5.9640    5.1910   -0.6660 O.co2   1  SR31       -0.2437
      4  CA         7.4780    3.4450   -0.0690 C.3     1  SR31        0.2252
      5  CB         8.2290    3.2430   -1.4080 C.3     1  SR31        0.2249
      6  CG         8.6840    4.5790   -2.0690 C.2     1  SR31        0.3393
      7  CAA        9.4470    2.3250   -1.1800 C.3     1  SR31        0.0372
      8  NAB        6.9070    7.8360   -4.3220 N.am    1  SR31       -0.0845
      9  OAC        7.6380    4.1230    5.0330 O.2     1  SR31       -0.2831
     10  OAD        9.0570    7.4570   -3.7430 O.2     1  SR31       -0.2676
     11  OAG        6.3430    1.3770   -1.9780 O.3     1  SR31       -0.0777
     12  OAH        8.0610    1.7340   -3.6610 O.3     1  SR31       -0.0777
     13  CAJ        6.8240    3.6390    4.2590 C.2     1  SR31        0.2356
     14  CAK        7.1160    3.4550    2.8000 C.2     1  SR31        0.0628
     15  CAL        7.8960    4.3530    2.2100 C.2     1  SR31        0.0841
     16  CAM        7.4200    6.6030   -2.2400 C.3     1  SR31        0.2959
     17  CAP        7.8540    7.3400   -3.5150 C.2     1  SR31        0.3053
     18  SAT        7.1860    2.4140   -2.6490 S.3     1  SR31       -0.0090
     19  OD1        9.3130    4.5450   -3.1280 O.2     1  SR31       -0.2482
     20  OD2        8.4340    5.8180   -1.5250 O.3     1  SR31       -0.4371
     21  OXT        5.1170    3.3420    0.1980 O.co2   1  SR31       -0.2437
@<TRIPOS>BOND
     1     8    17   am
     2    10    17    2
     3    12    18    1
     4    17    16    1
     5    19     6    2
     6    18    11    1
     7    18     5    1
     8    16    20    1
     9     6    20    1
    10     6     5    1
    11     5     7    1
    12     5     4    1
    13     3     1   ar
    14     1     4    1
    15     1    21   ar
    16     4     2    1
    17     2    15    1
    18    15    14    2
    19    14    13    1
    20    13     9    2
