@<TRIPOS>MOLECULE
3rxx_NPB_A_1.pdb
 12 12 0 0 0
SMALL
GASTEIGER

@<TRIPOS>ATOM
      1  B         -7.0880    3.3490   -4.9250 B     600  NPB600      0.0000
      2  OB1       -5.9400    4.2320   -4.4830 O.3   600  NPB600      0.0000
      3  OB2       -8.2240    3.8770   -5.7630 O.3   600  NPB600      0.0000
      4  CP1       -7.7630    2.5740   -3.6910 C.ar  600  NPB600      0.0000
      5  CP2       -8.3850    1.3550   -3.9420 C.ar  600  NPB600      0.0000
      6  CP3       -8.9910    0.6220   -2.9210 C.ar  600  NPB600      0.0000
      7  NT        -9.6540   -0.7070   -3.2550 N.pl3 600  NPB600      0.0000
      8  O1       -10.0300   -1.4610   -2.3640 O.2   600  NPB600      0.0000
      9  O2        -9.7960   -1.0290   -4.4180 O.2   600  NPB600      0.0000
     10  CP4       -8.9770    1.1230   -1.6170 C.ar  600  NPB600      0.0000
     11  CP5       -8.3610    2.3410   -1.3460 C.ar  600  NPB600      0.0000
     12  CP6       -7.7440    3.0660   -2.3820 C.ar  600  NPB600      0.0000
@<TRIPOS>BOND
     1     3     1    1
     2     1     2    1
     3     1     4    1
     4     9     7    2
     5     5     4   ar
     6     5     6   ar
     7     4    12   ar
     8     7     6    1
     9     7     8    2
    10     6    10   ar
    11    12    11   ar
    12    10    11   ar
