@<TRIPOS>MOLECULE
3ry2_BTN_A_1.pdb
 16 17 0 0 0
SMALL
GASTEIGER

@<TRIPOS>ATOM
      1  C11       32.7620   18.2190   14.0340 C.2   5001  BTN5001     0.3649
      2  O11       33.6690   17.5090   13.5040 O.co2 5001  BTN5001    -0.2457
      3  O12       32.6820   19.4650   13.8290 O.co2 5001  BTN5001    -0.2457
      4  C10       31.7530   17.5720   14.9490 C.3   5001  BTN5001     0.1141
      5  C9        31.3230   16.1740   14.5610 C.3   5001  BTN5001     0.0118
      6  C8        30.5930   16.1270   13.2310 C.3   5001  BTN5001     0.0015
      7  C7        30.1480   14.7140   12.8350 C.3   5001  BTN5001     0.0129
      8  C2        29.3360   14.6570   11.5470 C.3   5001  BTN5001     0.0729
      9  S1        27.6530   15.2910   11.7220 S.3   5001  BTN5001    -0.1369
     10  C6        27.2850   14.6750   10.0540 C.3   5001  BTN5001     0.0848
     11  C5        27.9460   13.2940    9.9790 C.3   5001  BTN5001     0.1509
     12  N1        27.0810   12.2510   10.5300 N.2   5001  BTN5001    -0.1859
     13  C3        27.6090   11.7300   11.6130 C.1   5001  BTN5001     0.2386
     14  O3        27.0480   10.7730   12.2940 O.2   5001  BTN5001    -0.2023
     15  N2        28.7920   12.2330   11.9080 N.2   5001  BTN5001    -0.1860
     16  C4        29.1570   13.2680   10.9360 C.3   5001  BTN5001     0.1500
@<TRIPOS>BOND
     1    11    10    1
     2    11    12    1
     3    11    16    1
     4    10     9    1
     5    12    13    2
     6    16     8    1
     7    16    15    1
     8     8     9    1
     9     8     7    1
    10    13    15    2
    11    13    14    2
    12     7     6    1
    13     6     5    1
    14     2     1   ar
    15     3     1   ar
    16     1     4    1
    17     5     4    1
