@<TRIPOS>MOLECULE
3ry8_FLC_A_1.pdb
 13 12 0 0 0
SMALL
GASTEIGER

@<TRIPOS>ATOM
      1  CAC        4.5180   13.5750   39.7130 C.2     1  FLC1        0.3680
      2  CA         4.8140   12.4740   40.6540 C.3     1  FLC1        0.1560
      3  CB         4.8420   11.0960   40.0410 C.3     1  FLC1        0.2402
      4  CBC        3.5000   10.7540   39.4830 C.2     1  FLC1        0.3927
      5  CG         5.2210   10.1660   41.1570 C.3     1  FLC1        0.1560
      6  CGC        5.3320    8.7300   40.7660 C.2     1  FLC1        0.3680
      7  OA1        3.6220   13.4510   38.8500 O.co2   1  FLC1       -0.2455
      8  OA2        5.1710   14.6450   39.8240 O.co2   1  FLC1       -0.2455
      9  OB1        2.4820   10.6640   40.2360 O.co2   1  FLC1       -0.2429
     10  OB2        3.3370   10.5520   38.2400 O.co2   1  FLC1       -0.2429
     11  OG1        5.2620    8.3480   39.5680 O.co2   1  FLC1       -0.2455
     12  OG2        5.5110    7.8470   41.6490 O.co2   1  FLC1       -0.2455
     13  OHB        5.8150   11.0420   39.0390 O.3     1  FLC1       -0.2129
@<TRIPOS>BOND
     1    10     4   ar
     2     7     1   ar
     3    13     3    1
     4     4     3    1
     5     4     9   ar
     6    11     6   ar
     7     1     8   ar
     8     1     2    1
     9     3     2    1
    10     3     5    1
    11     6     5    1
    12     6    12   ar
