@<TRIPOS>MOLECULE
3ry9_1CA_A_1.pdb
 24 27 0 0 0
SMALL
GASTEIGER

@<TRIPOS>ATOM
      1  C1       -15.4780   34.0340   32.9710 C.3   249  1CA249      0.0118
      2  C2       -14.5990   35.0830   33.6330 C.3   249  1CA249      0.0694
      3  C3       -13.3260   34.5740   33.9270 C.2   249  1CA249      0.1725
      4  C4       -12.7830   33.5080   33.2080 C.2   249  1CA249      0.0289
      5  C5       -13.4760   32.8430   32.1880 C.2   249  1CA249     -0.0420
      6  C6       -12.7910   31.7930   31.5230 C.3   249  1CA249      0.0221
      7  C7       -13.6450   30.5490   31.2320 C.3   249  1CA249      0.0044
      8  C8       -15.0020   30.9650   30.6480 C.3   249  1CA249      0.0006
      9  C9       -15.6600   31.9830   31.6240 C.3   249  1CA249      0.0035
     10  C10      -14.7930   33.2490   31.8200 C.3   249  1CA249      0.0157
     11  C11      -17.1270   32.3440   31.2100 C.3   249  1CA249      0.0003
     12  C12      -17.9680   31.0640   31.0680 C.3   249  1CA249      0.0004
     13  C13      -17.3430   30.1480   30.0130 C.3   249  1CA249      0.0066
     14  C14      -15.9270   29.7570   30.5160 C.3   249  1CA249      0.0004
     15  C15      -15.4820   28.6730   29.5100 C.3   249  1CA249      0.0004
     16  C16      -16.7850   27.8550   29.3510 C.3   249  1CA249      0.0074
     17  C17      -17.9200   28.7210   29.9870 C.3   249  1CA249      0.0603
     18  C18      -17.3980   30.8330   28.6240 C.3   249  1CA249      0.0004
     19  C19      -14.7440   34.1310   30.5570 C.3   249  1CA249      0.0041
     20  C20      -19.2510   28.5700   29.2040 C.2   249  1CA249      0.1834
     21  C21      -20.5390   28.9500   29.9410 C.3   249  1CA249      0.2458
     22  O3       -12.6590   35.0950   34.8170 O.2   249  1CA249     -0.2914
     23  O20      -19.2910   28.1130   28.0660 O.2   249  1CA249     -0.2933
     24  O21      -21.6160   29.1160   29.0130 O.3   249  1CA249     -0.2119
@<TRIPOS>BOND
     1    23    20    2
     2    18    13    1
     3    24    21    1
     4    20    21    1
     5    20    17    1
     6    16    15    1
     7    16    17    1
     8    15    14    1
     9    17    13    1
    10    13    14    1
    11    13    12    1
    12    14     8    1
    13    19    10    1
    14     8     7    1
    15     8     9    1
    16    12    11    1
    17    11     9    1
    18     7     6    1
    19     6     5    1
    20     9    10    1
    21    10     5    1
    22    10     1    1
    23     5     4    2
    24     1     2    1
    25     4     3    1
    26     2     3    1
    27     3    22    2
