@<TRIPOS>MOLECULE
3ryc_GTP_A_1.pdb
 32 34 0 0 0
SMALL
GASTEIGER

@<TRIPOS>ATOM
      1  PG         3.1050   49.6840   76.1590 P.3   600  GTP600      0.5373
      2  O1G        4.3370   50.4690   76.2650 O.3   600  GTP600     -0.1143
      3  O2G        2.3290   50.0710   74.8520 O.2   600  GTP600     -0.2221
      4  O3G        2.2200   49.7690   77.4340 O.3   600  GTP600     -0.1143
      5  O3B        3.4080   48.0830   75.9490 O.3   600  GTP600     -0.2258
      6  PB         4.8570   47.4410   75.6620 P.3   600  GTP600      0.2277
      7  O1B        5.6940   48.2350   74.7100 O.2   600  GTP600     -0.5168
      8  O2B        4.5680   46.0480   75.0890 O.3   600  GTP600     -0.4368
      9  O3A        5.4840   47.4480   77.1590 O.3   600  GTP600     -0.2700
     10  PA         6.7200   46.4930   77.6450 P.3   600  GTP600      0.2189
     11  O1A        7.8380   47.4630   77.9390 O.3   600  GTP600     -0.4371
     12  O2A        7.1320   45.4740   76.5700 O.2   600  GTP600     -0.5170
     13  O5'        6.1310   45.8240   79.0350 O.3   600  GTP600     -0.3112
     14  C5'        6.7840   46.1140   80.2390 C.3   600  GTP600      0.1813
     15  C4'        7.1030   44.7590   80.7750 C.3   600  GTP600      0.1799
     16  O4'        8.0590   44.0360   79.8830 O.3   600  GTP600     -0.3326
     17  C3'        7.8060   44.8770   82.1720 C.3   600  GTP600      0.2158
     18  O3'        7.6720   43.5940   82.7950 O.3   600  GTP600     -0.2175
     19  C2'        9.2550   45.0190   81.7150 C.3   600  GTP600      0.2310
     20  O2'       10.1470   44.5960   82.7150 O.3   600  GTP600     -0.2158
     21  C1'        9.3620   44.0480   80.4880 C.3   600  GTP600      0.2293
     22  N9        10.3120   44.4830   79.5040 N.pl3 600  GTP600     -0.2354
     23  C8        10.3770   45.6680   78.7900 C.3   600  GTP600      0.2246
     24  N7        11.4240   45.6620   78.0150 N.2   600  GTP600     -0.2322
     25  C5        12.1270   44.5050   78.2120 C.2   600  GTP600      0.2182
     26  C6        13.3030   43.8830   77.6300 C.1   600  GTP600      0.2372
     27  O6        14.0050   44.4130   76.7640 O.2   600  GTP600     -0.2069
     28  N1        13.6690   42.6310   78.0910 N.2   600  GTP600     -0.2485
     29  C2        12.9460   41.9870   79.0590 C.1   600  GTP600      0.2531
     30  N2        13.3790   40.7670   79.4800 N.pl3 600  GTP600     -0.0226
     31  N3        11.8370   42.5240   79.5820 N.2   600  GTP600     -0.3074
     32  C4        11.3990   43.7390   79.1570 C.2   600  GTP600      0.2300
@<TRIPOS>BOND
     1     7     6    2
     2     3     1    2
     3     8     6    1
     4     6     5    1
     5     6     9    1
     6     5     1    1
     7     1     2    1
     8     1     4    1
     9    12    10    2
    10    27    26    2
    11     9    10    1
    12    26    28    2
    13    26    25    1
    14    10    11    1
    15    10    13    1
    16    24    25    2
    17    24    23    1
    18    28    29    2
    19    25    32    1
    20    23    22    1
    21    13    14    1
    22    29    30    1
    23    29    31    2
    24    32    22    1
    25    32    31    2
    26    22    21    1
    27    16    21    1
    28    16    15    1
    29    14    15    1
    30    21    19    1
    31    15    17    1
    32    19    17    1
    33    19    20    1
    34    17    18    1
