@<TRIPOS>MOLECULE
3ryc_GDP_B_1.pdb
 28 30 0 0 0
SMALL
GASTEIGER

@<TRIPOS>ATOM
      1  PB        -4.6220   85.4310   91.6900 P.3   600  GDP600      0.5373
      2  O1B       -4.6700   84.0600   91.0430 O.3   600  GDP600     -0.1143
      3  O2B       -3.6010   86.3020   90.8960 O.2   600  GDP600     -0.2221
      4  O3B       -6.1090   85.9230   91.6160 O.3   600  GDP600     -0.1143
      5  O3A       -4.3450   85.3270   93.2440 O.3   600  GDP600     -0.2261
      6  PA        -3.0010   84.5290   93.8340 P.3   600  GDP600      0.2231
      7  O1A       -2.0210   85.6170   94.2180 O.3   600  GDP600     -0.4370
      8  O2A       -2.5090   83.5480   92.7150 O.2   600  GDP600     -0.5169
      9  O5'       -3.7430   83.8240   95.0460 O.3   600  GDP600     -0.3111
     10  C5'       -3.3730   84.0740   96.4040 C.3   600  GDP600      0.1813
     11  C4'       -2.9520   82.6630   96.8850 C.3   600  GDP600      0.1799
     12  O4'       -1.6850   82.3260   96.2320 O.3   600  GDP600     -0.3326
     13  C3'       -2.6010   82.7290   98.3850 C.3   600  GDP600      0.2158
     14  O3'       -2.7180   81.3890   98.9680 O.3   600  GDP600     -0.2175
     15  C2'       -1.1630   83.2820   98.3710 C.3   600  GDP600      0.2310
     16  O2'       -0.4720   82.7960   99.5680 O.3   600  GDP600     -0.2158
     17  C1'       -0.6180   82.4310   97.2010 C.3   600  GDP600      0.2293
     18  N9         0.5750   82.9600   96.5380 N.pl3 600  GDP600     -0.2354
     19  C8         0.7000   84.1940   95.8790 C.3   600  GDP600      0.2246
     20  N7         1.8900   84.2730   95.3750 N.2   600  GDP600     -0.2322
     21  C5         2.6140   83.1340   95.6720 C.2   600  GDP600      0.2182
     22  C6         3.9430   82.6440   95.3910 C.1   600  GDP600      0.2372
     23  O6         4.7730   83.2750   94.7240 O.2   600  GDP600     -0.2069
     24  N1         4.2790   81.4100   95.9150 N.2   600  GDP600     -0.2485
     25  C2         3.3990   80.6400   96.6230 C.1   600  GDP600      0.2531
     26  N2         3.8180   79.4360   97.0790 N.pl3 600  GDP600     -0.0226
     27  N3         2.1610   81.0580   96.8920 N.2   600  GDP600     -0.3074
     28  C4         1.7410   82.2690   96.4150 C.2   600  GDP600      0.2300
@<TRIPOS>BOND
     1     3     1    2
     2     2     1    1
     3     4     1    1
     4     1     5    1
     5     8     6    2
     6     5     6    1
     7     6     7    1
     8     6     9    1
     9    23    22    2
    10     9    10    1
    11    20    21    2
    12    20    19    1
    13    22    21    1
    14    22    24    2
    15    21    28    1
    16    19    18    1
    17    24    25    2
    18    12    11    1
    19    12    17    1
    20    10    11    1
    21    28    18    1
    22    28    27    2
    23    18    17    1
    24    25    27    2
    25    25    26    1
    26    11    13    1
    27    17    15    1
    28    15    13    1
    29    15    16    1
    30    13    14    1
