@<TRIPOS>MOLECULE
3rye_UNR_A_1.pdb
 18 18 0 0 0
SMALL
GASTEIGER

@<TRIPOS>ATOM
      1  C1        15.3870  -34.3610   26.0240 C.3   901  UNR901      0.2200
      2  P1        15.6580  -35.9030   25.0880 P.3   901  UNR901      0.1514
      3  O2        14.1070  -34.4700   26.6690 O.3   901  UNR901     -0.2105
      4  C3        15.3660  -33.2250   25.0030 C.3   901  UNR901      0.0722
      5  P4        16.6670  -34.1940   27.3140 P.3   901  UNR901      0.1514
      6  O5        17.9600  -34.0330   26.5460 O.2   901  UNR901     -0.4572
      7  O6        16.5450  -35.4830   28.0930 O.3   901  UNR901     -0.3553
      8  O7        16.4170  -32.9910   28.1980 O.3   901  UNR901     -0.3553
      9  O8        15.5270  -36.9890   26.1310 O.3   901  UNR901     -0.3553
     10  O9        17.0330  -35.8430   24.4640 O.3   901  UNR901     -0.3553
     11  O10       14.6520  -35.9150   23.9860 O.2   901  UNR901     -0.4572
     12  C17       14.2690  -31.6080   26.6440 C.2   901  UNR901     -0.0058
     13  C18       14.7730  -29.2550   26.4760 C.3   901  UNR901      0.1175
     14  C22       16.2840  -28.3990   24.7820 C.3   901  UNR901      0.1125
     15  C23       15.7590  -30.7540   24.9770 C.2   901  UNR901      0.0574
     16  C25       14.0970  -30.3000   27.0980 C.2   901  UNR901     -0.0050
     17  N26       15.5830  -29.5040   25.4360 N.pl3 901  UNR901     -0.3011
     18  C27       15.1190  -31.8400   25.5660 C.2   901  UNR901     -0.0045
@<TRIPOS>BOND
     1    11     2    2
     2    10     2    1
     3    14    17    1
     4    15    17    1
     5    15    18    2
     6     4    18    1
     7     4     1    1
     8     2     1    1
     9     2     9    1
    10    17    13    1
    11    18    12    1
    12     1     3    1
    13     1     5    1
    14    13    16    1
    15     6     5    2
    16    12    16    2
    17     5     7    1
    18     5     8    1
