@<TRIPOS>MOLECULE
3ryf_GTP_A_1.pdb
 32 34 0 0 0
SMALL
GASTEIGER

@<TRIPOS>ATOM
      1  PG         3.0120   49.7000   76.1110 P.3   600  GTP600      0.5373
      2  O1G        4.2770   50.4330   76.2720 O.3   600  GTP600     -0.1143
      3  O2G        2.2160   50.2280   74.8870 O.2   600  GTP600     -0.2221
      4  O3G        2.1440   49.8150   77.4160 O.3   600  GTP600     -0.1143
      5  O3B        3.2920   48.1280   75.8240 O.3   600  GTP600     -0.2258
      6  PB         4.7900   47.4820   75.6230 P.3   600  GTP600      0.2277
      7  O1B        5.6210   48.2930   74.7190 O.2   600  GTP600     -0.5168
      8  O2B        4.5350   46.0550   75.0030 O.3   600  GTP600     -0.4368
      9  O3A        5.3820   47.4660   77.1140 O.3   600  GTP600     -0.2700
     10  PA         6.5870   46.4680   77.5990 P.3   600  GTP600      0.2189
     11  O1A        7.7870   47.3420   77.8060 O.3   600  GTP600     -0.4371
     12  O2A        6.9660   45.4030   76.4970 O.2   600  GTP600     -0.5170
     13  O5'        5.9620   45.8690   79.0300 O.3   600  GTP600     -0.3112
     14  C5'        6.6560   46.0850   80.2090 C.3   600  GTP600      0.1813
     15  C4'        6.9920   44.7020   80.6760 C.3   600  GTP600      0.1799
     16  O4'        7.9680   44.0340   79.7410 O.3   600  GTP600     -0.3326
     17  C3'        7.6880   44.7860   82.0790 C.3   600  GTP600      0.2158
     18  O3'        7.5210   43.5570   82.7780 O.3   600  GTP600     -0.2175
     19  C2'        9.1460   44.9370   81.6430 C.3   600  GTP600      0.2310
     20  O2'       10.0400   44.5720   82.6820 O.3   600  GTP600     -0.2158
     21  C1'        9.2520   43.9750   80.4260 C.3   600  GTP600      0.2293
     22  N9        10.1890   44.4220   79.4630 N.pl3 600  GTP600     -0.2354
     23  C8        10.1910   45.6380   78.7880 C.3   600  GTP600      0.2246
     24  N7        11.2400   45.7220   78.0350 N.2   600  GTP600     -0.2322
     25  C5        11.9610   44.5490   78.1590 C.2   600  GTP600      0.2182
     26  C6        13.1790   43.9910   77.5800 C.1   600  GTP600      0.2372
     27  O6        13.8980   44.5360   76.6940 O.2   600  GTP600     -0.2069
     28  N1        13.5720   42.7610   78.0680 N.2   600  GTP600     -0.2485
     29  C2        12.8710   42.0600   78.9830 C.1   600  GTP600      0.2531
     30  N2        13.3560   40.8310   79.3420 N.pl3 600  GTP600     -0.0226
     31  N3        11.7760   42.5490   79.5160 N.2   600  GTP600     -0.3074
     32  C4        11.2800   43.7300   79.1090 C.2   600  GTP600      0.2300
@<TRIPOS>BOND
     1     7     6    2
     2     3     1    2
     3     8     6    1
     4     6     5    1
     5     6     9    1
     6     5     1    1
     7     1     2    1
     8     1     4    1
     9    12    10    2
    10    27    26    2
    11     9    10    1
    12    26    28    2
    13    26    25    1
    14    10    11    1
    15    10    13    1
    16    24    25    2
    17    24    23    1
    18    28    29    2
    19    25    32    1
    20    23    22    1
    21    29    30    1
    22    29    31    2
    23    13    14    1
    24    32    22    1
    25    32    31    2
    26    22    21    1
    27    16    21    1
    28    16    15    1
    29    14    15    1
    30    21    19    1
    31    15    17    1
    32    19    17    1
    33    19    20    1
    34    17    18    1
