@<TRIPOS>MOLECULE
3ryh_G2P_B_1.pdb
 32 34 0 0 0
SMALL
GASTEIGER

@<TRIPOS>ATOM
      1  PG        -6.8990   88.3260   91.7170 P.3   600  G2P600      0.5389
      2  O1G       -5.8740   89.1360   92.2560 O.3   600  G2P600     -0.1143
      3  O2G       -7.5010   88.9240   90.3210 O.2   600  G2P600     -0.2220
      4  O3G       -8.1040   88.1040   92.6270 O.3   600  G2P600     -0.1143
      5  O3B       -6.2430   86.8550   91.3030 O.3   600  G2P600     -0.2026
      6  PB        -4.7890   86.2370   91.5760 P.3   600  G2P600      0.3895
      7  O1B       -3.6520   87.3580   91.2560 O.3   600  G2P600     -0.1388
      8  O2B       -4.9210   84.7910   90.8880 O.2   600  G2P600     -0.2544
      9  C3A       -4.5850   86.1390   93.1570 C.3   600  G2P600      0.2357
     10  PA        -3.0250   85.7400   93.8410 P.3   600  G2P600      0.3820
     11  O1A       -1.8830   86.5650   93.8220 O.3   600  G2P600     -0.1392
     12  O2A       -2.6060   84.4850   92.9040 O.2   600  G2P600     -0.2548
     13  O5'       -3.5960   84.8980   95.1670 O.3   600  G2P600     -0.2896
     14  C5'       -3.6270   84.8270   96.4370 C.3   600  G2P600      0.1836
     15  C4'       -3.4020   83.4110   96.7390 C.3   600  G2P600      0.1800
     16  O4'       -2.0830   82.8400   96.2860 O.3   600  G2P600     -0.3326
     17  C3'       -2.9280   83.2700   98.2670 C.3   600  G2P600      0.2158
     18  O3'       -3.0720   81.8130   98.9500 O.3   600  G2P600     -0.2175
     19  C2'       -1.6260   83.9480   98.2950 C.3   600  G2P600      0.2310
     20  O2'       -1.3850   83.7860   99.5420 O.3   600  G2P600     -0.2158
     21  C1'       -0.9690   82.9440   97.1790 C.3   600  G2P600      0.2293
     22  N9         0.1350   83.5000   96.5360 N.pl3 600  G2P600     -0.2354
     23  C8         0.2060   84.6500   95.9780 C.3   600  G2P600      0.2246
     24  N7         1.3060   84.9120   95.4540 N.2   600  G2P600     -0.2322
     25  C5         2.0420   83.7810   95.7430 C.2   600  G2P600      0.2182
     26  C6         3.4790   83.3630   95.4470 C.1   600  G2P600      0.2372
     27  O6         4.1850   84.0930   94.8490 O.2   600  G2P600     -0.2069
     28  N1         3.8840   82.1200   95.9610 N.2   600  G2P600     -0.2485
     29  C2         3.0910   81.1510   96.7440 C.1   600  G2P600      0.2531
     30  N2         3.7940   79.8930   97.1740 N.pl3 600  G2P600     -0.0226
     31  N3         1.7030   81.5910   96.9440 N.2   600  G2P600     -0.3074
     32  C4         1.2080   82.8610   96.4770 C.2   600  G2P600      0.2300
@<TRIPOS>BOND
     1     3     1    2
     2     8     6    2
     3     7     6    1
     4     5     6    1
     5     5     1    1
     6     6     9    1
     7     1     2    1
     8     1     4    1
     9    12    10    2
    10     9    10    1
    11    11    10    1
    12    10    13    1
    13    27    26    2
    14    13    14    1
    15    26    25    1
    16    26    28    2
    17    24    25    2
    18    24    23    1
    19    25    32    1
    20    28    29    2
    21    23    22    1
    22    16    15    1
    23    16    21    1
    24    14    15    1
    25    32    22    1
    26    32    31    2
    27    22    21    1
    28    15    17    1
    29    29    31    2
    30    29    30    1
    31    21    19    1
    32    17    19    1
    33    17    18    1
    34    19    20    1
