@<TRIPOS>MOLECULE
3ryh_GTP_A_1.pdb
 32 34 0 0 0
SMALL
GASTEIGER

@<TRIPOS>ATOM
      1  PG         2.6310   50.5730   76.0660 P.3   600  GTP600      0.5373
      2  O1G        3.8230   51.4270   76.0290 O.3   600  GTP600     -0.1143
      3  O2G        1.6510   51.0100   74.8620 O.2   600  GTP600     -0.2221
      4  O3G        2.0290   50.7070   77.5120 O.3   600  GTP600     -0.1143
      5  O3B        2.8430   48.9840   75.7650 O.3   600  GTP600     -0.2258
      6  PB         4.3440   48.3840   75.5770 P.3   600  GTP600      0.2277
      7  O1B        5.1320   49.2210   74.7170 O.2   600  GTP600     -0.5168
      8  O2B        4.1580   47.0240   74.8080 O.3   600  GTP600     -0.4368
      9  O3A        4.9880   48.3800   77.0920 O.3   600  GTP600     -0.2700
     10  PA         6.2040   47.3970   77.4610 P.3   600  GTP600      0.2189
     11  O1A        7.3880   48.1650   77.8540 O.3   600  GTP600     -0.4371
     12  O2A        6.4860   46.4110   76.2290 O.2   600  GTP600     -0.5170
     13  O5'        5.6110   46.5430   78.7040 O.3   600  GTP600     -0.3112
     14  C5'        6.0960   46.7830   80.0280 C.3   600  GTP600      0.1813
     15  C4'        6.4660   45.4160   80.6370 C.3   600  GTP600      0.1799
     16  O4'        7.5010   44.7930   79.8630 O.3   600  GTP600     -0.3326
     17  C3'        7.1830   45.4540   81.9860 C.3   600  GTP600      0.2158
     18  O3'        7.0970   44.1490   82.5650 O.3   600  GTP600     -0.2175
     19  C2'        8.6250   45.8330   81.5910 C.3   600  GTP600      0.2310
     20  O2'        9.5810   45.5470   82.5850 O.3   600  GTP600     -0.2158
     21  C1'        8.7920   44.8420   80.5000 C.3   600  GTP600      0.2293
     22  N9         9.7690   45.2480   79.5180 N.pl3 600  GTP600     -0.2354
     23  C8         9.7550   46.3850   78.7450 C.3   600  GTP600      0.2246
     24  N7        10.8090   46.4220   78.0220 N.2   600  GTP600     -0.2322
     25  C5        11.5160   45.2460   78.1910 C.2   600  GTP600      0.2182
     26  C6        12.7270   44.6640   77.6290 C.1   600  GTP600      0.2372
     27  O6        13.3620   45.2330   76.7320 O.2   600  GTP600     -0.2069
     28  N1        13.1900   43.4620   78.1510 N.2   600  GTP600     -0.2485
     29  C2        12.4980   42.7670   79.1170 C.1   600  GTP600      0.2531
     30  N2        13.0040   41.5410   79.4860 N.pl3 600  GTP600     -0.0226
     31  N3        11.3660   43.2580   79.6190 N.2   600  GTP600     -0.3074
     32  C4        10.8500   44.4690   79.1810 C.2   600  GTP600      0.2300
@<TRIPOS>BOND
     1     7     6    2
     2     8     6    1
     3     3     1    2
     4     6     5    1
     5     6     9    1
     6     5     1    1
     7     2     1    1
     8     1     4    1
     9    12    10    2
    10    27    26    2
    11     9    10    1
    12    10    11    1
    13    10    13    1
    14    26    28    2
    15    26    25    1
    16    24    25    2
    17    24    23    1
    18    28    29    2
    19    25    32    1
    20    13    14    1
    21    23    22    1
    22    29    30    1
    23    29    31    2
    24    32    22    1
    25    32    31    2
    26    22    21    1
    27    16    21    1
    28    16    15    1
    29    14    15    1
    30    21    19    1
    31    15    17    1
    32    19    17    1
    33    19    20    1
    34    17    18    1
