@<TRIPOS>MOLECULE
3ryi_GTP_A_1.pdb
 32 34 0 0 0
SMALL
GASTEIGER

@<TRIPOS>ATOM
      1  PG         2.9620   49.7710   76.0510 P.3   600  GTP600      0.5373
      2  O1G        4.2460   50.4740   76.2020 O.3   600  GTP600     -0.1143
      3  O2G        2.2090   50.3440   74.7700 O.2   600  GTP600     -0.2221
      4  O3G        2.0480   49.8750   77.3230 O.3   600  GTP600     -0.1143
      5  O3B        3.2290   48.1680   75.7970 O.3   600  GTP600     -0.2258
      6  PB         4.7130   47.5370   75.6000 P.3   600  GTP600      0.2277
      7  O1B        5.4970   48.3610   74.6570 O.2   600  GTP600     -0.5168
      8  O2B        4.4010   46.1180   75.0270 O.3   600  GTP600     -0.4368
      9  O3A        5.3800   47.6030   77.0470 O.3   600  GTP600     -0.2700
     10  PA         6.5480   46.5910   77.5400 P.3   600  GTP600      0.2189
     11  O1A        7.7420   47.4800   77.8150 O.3   600  GTP600     -0.4371
     12  O2A        6.8370   45.4850   76.4620 O.2   600  GTP600     -0.5170
     13  O5'        5.9060   45.9990   78.9720 O.3   600  GTP600     -0.3112
     14  C5'        6.6710   46.2270   80.1320 C.3   600  GTP600      0.1813
     15  C4'        6.9530   44.8580   80.6810 C.3   600  GTP600      0.1799
     16  O4'        7.8530   44.1440   79.7630 O.3   600  GTP600     -0.3326
     17  C3'        7.6690   44.9060   82.0760 C.3   600  GTP600      0.2158
     18  O3'        7.5140   43.6370   82.7150 O.3   600  GTP600     -0.2175
     19  C2'        9.1250   45.0320   81.5990 C.3   600  GTP600      0.2310
     20  O2'       10.0590   44.6180   82.5850 O.3   600  GTP600     -0.2158
     21  C1'        9.1650   44.0870   80.3650 C.3   600  GTP600      0.2293
     22  N9        10.1330   44.5490   79.4080 N.pl3 600  GTP600     -0.2354
     23  C8        10.1580   45.7410   78.6920 C.3   600  GTP600      0.2246
     24  N7        11.1950   45.7790   77.9020 N.2   600  GTP600     -0.2322
     25  C5        11.9030   44.6240   78.0890 C.2   600  GTP600      0.2182
     26  C6        13.1090   44.0460   77.5280 C.1   600  GTP600      0.2372
     27  O6        13.7910   44.6360   76.6940 O.2   600  GTP600     -0.2069
     28  N1        13.5090   42.8140   78.0140 N.2   600  GTP600     -0.2485
     29  C2        12.8030   42.1210   78.9620 C.1   600  GTP600      0.2531
     30  N2        13.2790   40.8950   79.3430 N.pl3 600  GTP600     -0.0226
     31  N3        11.6720   42.6010   79.4790 N.2   600  GTP600     -0.3074
     32  C4        11.2120   43.8240   79.0730 C.2   600  GTP600      0.2300
@<TRIPOS>BOND
     1     7     6    2
     2     3     1    2
     3     8     6    1
     4     6     5    1
     5     6     9    1
     6     5     1    1
     7     1     2    1
     8     1     4    1
     9    12    10    2
    10    27    26    2
    11     9    10    1
    12    26    28    2
    13    26    25    1
    14    10    11    1
    15    10    13    1
    16    24    25    2
    17    24    23    1
    18    28    29    2
    19    25    32    1
    20    23    22    1
    21    29    30    1
    22    29    31    2
    23    13    14    1
    24    32    22    1
    25    32    31    2
    26    22    21    1
    27    16    21    1
    28    16    15    1
    29    14    15    1
    30    21    19    1
    31    15    17    1
    32    19    17    1
    33    19    20    1
    34    17    18    1
