@<TRIPOS>MOLECULE
3ryi_GDP_B_1.pdb
 28 30 0 0 0
SMALL
GASTEIGER

@<TRIPOS>ATOM
      1  PB        -4.4930   85.5050   91.5510 P.3   600  GDP600      0.5373
      2  O1B       -4.4320   84.1200   90.9950 O.3   600  GDP600     -0.1143
      3  O2B       -3.3630   86.3160   90.8370 O.2   600  GDP600     -0.2221
      4  O3B       -5.9770   86.0890   91.4020 O.3   600  GDP600     -0.1143
      5  O3A       -4.2270   85.5190   93.1240 O.3   600  GDP600     -0.2261
      6  PA        -2.8820   84.8190   93.7300 P.3   600  GDP600      0.2231
      7  O1A       -2.0010   85.8970   94.2480 O.3   600  GDP600     -0.4370
      8  O2A       -2.1360   83.9380   92.6550 O.2   600  GDP600     -0.5169
      9  O5'       -3.4880   83.8120   94.8000 O.3   600  GDP600     -0.3111
     10  C5'       -3.3480   84.1790   96.1700 C.3   600  GDP600      0.1813
     11  C4'       -2.9000   82.8650   96.8220 C.3   600  GDP600      0.1799
     12  O4'       -1.6030   82.5530   96.2230 O.3   600  GDP600     -0.3326
     13  C3'       -2.6020   82.9750   98.3380 C.3   600  GDP600      0.2158
     14  O3'       -2.7810   81.6580   98.9300 O.3   600  GDP600     -0.2175
     15  C2'       -1.1020   83.4110   98.3310 C.3   600  GDP600      0.2310
     16  O2'       -0.4190   82.9460   99.4890 O.3   600  GDP600     -0.2158
     17  C1'       -0.5510   82.5290   97.1920 C.3   600  GDP600      0.2293
     18  N9         0.6070   83.0310   96.4760 N.pl3 600  GDP600     -0.2354
     19  C8         0.7240   84.2120   95.7600 C.3   600  GDP600      0.2246
     20  N7         1.8920   84.3270   95.2140 N.2   600  GDP600     -0.2322
     21  C5         2.6070   83.1800   95.5110 C.2   600  GDP600      0.2182
     22  C6         3.9330   82.6860   95.2090 C.1   600  GDP600      0.2372
     23  O6         4.7100   83.3060   94.4920 O.2   600  GDP600     -0.2069
     24  N1         4.3110   81.4840   95.7530 N.2   600  GDP600     -0.2485
     25  C2         3.4730   80.7600   96.5430 C.1   600  GDP600      0.2531
     26  N2         3.9510   79.5590   96.9860 N.pl3 600  GDP600     -0.0226
     27  N3         2.2350   81.1750   96.8250 N.2   600  GDP600     -0.3074
     28  C4         1.7820   82.3550   96.3410 C.2   600  GDP600      0.2300
@<TRIPOS>BOND
     1     3     1    2
     2     2     1    1
     3     4     1    1
     4     1     5    1
     5     8     6    2
     6     5     6    1
     7     6     7    1
     8     6     9    1
     9    23    22    2
    10     9    10    1
    11    22    21    1
    12    22    24    2
    13    20    21    2
    14    20    19    1
    15    21    28    1
    16    24    25    2
    17    19    18    1
    18    10    11    1
    19    12    11    1
    20    12    17    1
    21    28    18    1
    22    28    27    2
    23    18    17    1
    24    25    27    2
    25    25    26    1
    26    11    13    1
    27    17    15    1
    28    15    13    1
    29    15    16    1
    30    13    14    1
