@<TRIPOS>MOLECULE
3ryj_RYJ_B_1.pdb
 18 18 0 0 0
SMALL
GASTEIGER

@<TRIPOS>ATOM
      1  S         15.2460    0.2580   16.9200 S.O2    1  RYJ1        0.0935
      2  N'        18.6140    5.2240   13.7110 N.am    1  RYJ1       -0.1925
      3  O'        16.5250    6.0240   13.6890 O.2     1  RYJ1       -0.2684
      4  C1        16.8220    3.9130   14.7590 C.ar    1  RYJ1        0.0551
      5  C2        17.1920    1.8280   15.8600 C.ar    1  RYJ1        0.0202
      6  C3        17.6960    2.9480   15.1220 C.ar    1  RYJ1        0.0059
      7  C4        15.7990    1.6260   16.0950 C.ar    1  RYJ1        0.1251
      8  C5        15.4820    3.7720   15.0360 C.ar    1  RYJ1        0.0059
      9  C6        14.9530    2.6690   15.6920 C.ar    1  RYJ1        0.0202
     10  C7        17.3320    5.1050   14.0010 C.2     1  RYJ1        0.2650
     11 F2'1       20.6470    7.0170   14.6370 F       1  RYJ1       -0.1681
     12 F2'2       18.7960    7.8360   14.7740 F       1  RYJ1       -0.1681
     13 F2'3       20.0480    8.4640   13.1210 F       1  RYJ1       -0.1681
     14  C1'       19.1000    6.3550   12.9040 C.3     1  RYJ1        0.2182
     15  O1S       15.7540    0.3430   18.2730 O.2     1  RYJ1       -0.1503
     16  C2'       19.6310    7.4340   13.8550 C.3     1  RYJ1        0.4175
     17  O2S       15.8230   -1.0240   16.2060 O.2     1  RYJ1       -0.1503
     18  N3S       13.7800    0.3260   16.7620 N.3     1  RYJ1        0.0392
@<TRIPOS>BOND
     1    14     2    1
     2    14    16    1
     3    13    16    1
     4     3    10    2
     5     2    10   am
     6    16    11    1
     7    16    12    1
     8    10     4    1
     9     4     8   ar
    10     4     6   ar
    11     8     9   ar
    12     6     5   ar
    13     9     7   ar
    14     5     7   ar
    15     7     1    1
    16    17     1    2
    17    18     1    1
    18     1    15    2
