@<TRIPOS>MOLECULE
3ryk_TYD_A_1.pdb
 25 26 0 0 0
SMALL
GASTEIGER

@<TRIPOS>ATOM
      1  PA         6.9820   21.0840  -40.0020 P.3   183  TYD183      0.2231
      2  O1A        7.7660   22.2870  -40.4810 O.2   183  TYD183     -0.5169
      3  O2A        7.4680   20.3080  -38.7970 O.3   183  TYD183     -0.4370
      4  O3A        6.8400   20.0940  -41.2610 O.3   183  TYD183     -0.2261
      5  PB         7.5820   18.6660  -41.4120 P.3   183  TYD183      0.5373
      6  O1B        6.6950   17.7080  -40.6500 O.3   183  TYD183     -0.1143
      7  O2B        7.5470   18.4650  -42.9150 O.2   183  TYD183     -0.2221
      8  O3B        8.9740   18.8760  -40.8400 O.3   183  TYD183     -0.1143
      9  O5'        5.4730   21.5740  -39.6970 O.3   183  TYD183     -0.3111
     10  C5'        4.3090   20.8180  -40.0430 C.3   183  TYD183      0.1812
     11  C4'        3.2060   21.7680  -40.4850 C.3   183  TYD183      0.1773
     12  O4'        2.8240   22.5620  -39.3650 O.3   183  TYD183     -0.3339
     13  C3'        3.6470   22.7300  -41.5790 C.3   183  TYD183      0.1857
     14  O3'        2.8240   22.5470  -42.7380 O.3   183  TYD183     -0.2203
     15  C2'        3.4890   24.1320  -41.0150 C.3   183  TYD183      0.0874
     16  C1'        2.6970   23.9400  -39.7270 C.3   183  TYD183      0.2090
     17  N1         3.1540   24.7700  -38.5980 N.am  183  TYD183     -0.1794
     18  C2         2.3000   25.6300  -37.9950 C.1   183  TYD183      0.2844
     19  O2         1.0080   25.7410  -38.4170 O.2   183  TYD183     -0.1918
     20  N3         2.6830   26.4040  -36.9530 N.2   183  TYD183     -0.2455
     21  C4         3.9400   26.3420  -36.4710 C.1   183  TYD183      0.2134
     22  O4         4.2940   27.1200  -35.4110 O.2   183  TYD183     -0.2088
     23  C5         4.8920   25.4060  -37.1180 C.2   183  TYD183      0.0891
     24  C5M        6.3200   25.2540  -36.6720 C.3   183  TYD183      0.0462
     25  C6         4.4280   24.6490  -38.1790 C.2   183  TYD183      0.0877
@<TRIPOS>BOND
     1     7     5    2
     2    14    13    1
     3    13    15    1
     4    13    11    1
     5     5     4    1
     6     5     8    1
     7     5     6    1
     8     4     1    1
     9    15    16    1
    10    11    10    1
    11    11    12    1
    12     2     1    2
    13    10     9    1
    14     1     9    1
    15     1     3    1
    16    16    12    1
    17    16    17    1
    18    17    25    1
    19    17    18   am
    20    19    18    2
    21    25    23    2
    22    18    20    2
    23    23    24    1
    24    23    21    1
    25    20    21    2
    26    21    22    2
