@<TRIPOS>MOLECULE
3ryp_CMP_A_1.pdb
 22 25 0 0 0
SMALL
GASTEIGER

@<TRIPOS>ATOM
      1  P         40.0720   41.6520   52.1370 P.3   301  CMP301      0.2141
      2  O1P       39.8200   40.6320   51.1020 O.2   301  CMP301     -0.5172
      3  O2P       40.1710   41.1970   53.5360 O.3   301  CMP301     -0.4373
      4  O5'       41.4150   42.4640   51.7580 O.3   301  CMP301     -0.3114
      5  C5'       41.3330   43.1310   50.4830 C.3   301  CMP301      0.1812
      6  C4'       40.2690   44.2100   50.6110 C.3   301  CMP301      0.1793
      7  O4'       40.0230   44.9040   49.3720 O.3   301  CMP301     -0.3136
      8  C3'       38.9620   43.4670   50.7770 C.3   301  CMP301      0.1884
      9  O3'       38.9330   42.8000   52.0510 O.3   301  CMP301     -0.3111
     10  C2'       37.9990   44.6340   50.6060 C.3   301  CMP301      0.2541
     11  O2'       38.0890   45.5450   51.7110 O.3   301  CMP301     -0.2131
     12  C1'       38.6360   45.3190   49.3980 C.3   301  CMP301      0.3185
     13  N9        37.9900   44.9030   48.1290 N.pl3 301  CMP301     -0.1439
     14  C8        38.1080   43.7460   47.4740 C.3   301  CMP301      0.3377
     15  N7        37.2970   43.7780   46.4190 N.2   301  CMP301     -0.2095
     16  C5        36.6540   44.9490   46.4130 C.2   301  CMP301      0.2526
     17  C6        35.7180   45.4660   45.6110 C.2   301  CMP301      0.4393
     18  N6        35.2420   44.7650   44.5770 N.pl3 301  CMP301      0.2180
     19  N1        35.2330   46.6910   45.8420 N.2   301  CMP301      0.0021
     20  C2        35.6760   47.4360   46.9400 C.3   301  CMP301      0.5254
     21  N3        36.6510   46.8690   47.7630 N.2   301  CMP301     -0.0055
     22  C4        37.0890   45.6340   47.4750 C.2   301  CMP301      0.3518
@<TRIPOS>BOND
     1    18    17    1
     2    17    19    2
     3    17    16    1
     4    19    20    1
     5    16    15    2
     6    16    22    1
     7    15    14    1
     8    20    21    1
     9    14    13    1
    10    22    21    2
    11    22    13    1
    12    13    12    1
    13     7    12    1
    14     7     6    1
    15    12    10    1
    16     5     6    1
    17     5     4    1
    18    10     8    1
    19    10    11    1
    20     6     8    1
    21     8     9    1
    22     2     1    2
    23     4     1    1
    24     9     1    1
    25     1     3    1
