@<TRIPOS>MOLECULE
3ryr_CMP_A_1.pdb
 22 25 0 0 0
SMALL
GASTEIGER

@<TRIPOS>ATOM
      1  P        -14.1130    1.8150   16.8320 P.3   301  CMP301      0.2141
      2  O1P      -13.2380    0.7650   17.4130 O.3   301  CMP301     -0.4373
      3  O2P      -15.3480    1.4020   16.1550 O.2   301  CMP301     -0.5172
      4  O5'      -14.6510    2.7280   18.1030 O.3   301  CMP301     -0.3114
      5  C5'      -14.2660    4.1230   18.4030 C.3   301  CMP301      0.1812
      6  C4'      -13.2770    4.7810   17.4200 C.3   301  CMP301      0.1793
      7  O4'      -12.2500    5.5000   18.0230 O.3   301  CMP301     -0.3136
      8  C3'      -12.5150    3.7380   16.6730 C.3   301  CMP301      0.1884
      9  O3'      -13.3160    2.8420   15.9180 O.3   301  CMP301     -0.3111
     10  C2'      -11.4840    4.5060   16.0130 C.3   301  CMP301      0.2541
     11  O2'      -11.9440    5.0630   14.8030 O.3   301  CMP301     -0.2131
     12  C1'      -11.2580    5.6540   17.0010 C.3   301  CMP301      0.3185
     13  N9        -9.9460    5.4600   17.6380 N.pl3 301  CMP301     -0.1439
     14  C8        -9.6050    4.5020   18.5890 C.3   301  CMP301      0.3377
     15  N7        -8.3680    4.5280   18.9810 N.2   301  CMP301     -0.2095
     16  C5        -7.8330    5.5710   18.2490 C.2   301  CMP301      0.2526
     17  C6        -6.5330    6.1140   18.1990 C.2   301  CMP301      0.4393
     18  N6        -5.5480    5.6070   18.9530 N.pl3 301  CMP301      0.2180
     19  N1        -6.2930    7.1760   17.3530 N.2   301  CMP301      0.0021
     20  C2        -7.3190    7.6480   16.6090 C.3   301  CMP301      0.5254
     21  N3        -8.5950    7.2220   16.5610 N.2   301  CMP301     -0.0055
     22  C4        -8.7890    6.1570   17.4240 C.2   301  CMP301      0.3518
@<TRIPOS>BOND
     1    11    10    1
     2     9     8    1
     3     9     1    1
     4    10     8    1
     5    10    12    1
     6     3     1    2
     7    21    20    1
     8    21    22    2
     9    20    19    1
    10     8     6    1
    11     1     2    1
    12     1     4    1
    13    12    13    1
    14    12     7    1
    15    19    17    2
    16     6     7    1
    17     6     5    1
    18    22    13    1
    19    22    16    1
    20    13    14    1
    21     4     5    1
    22    17    16    1
    23    17    18    1
    24    16    15    2
    25    14    15    1
