@<TRIPOS>MOLECULE
3rys_ADE_A_1.pdb
 10 11 0 0 0
SMALL
GASTEIGER

@<TRIPOS>ATOM
      1  N9        -2.7640   24.3200  -32.7510 N.2   345  ADE345     -0.1914
      2  C8        -1.5200   23.9370  -33.1780 C.3   345  ADE345      0.2618
      3  N7        -1.4630   23.6060  -34.4510 N.2   345  ADE345     -0.2267
      4  C5        -2.7690   23.7830  -34.8870 C.2   345  ADE345      0.2303
      5  C6        -3.3810   23.6000  -36.1460 C.2   345  ADE345      0.4393
      6  N6        -2.7150   23.1780  -37.2270 N.pl3 345  ADE345      0.2185
      7  N1        -4.7030   23.8670  -36.2460 N.2   345  ADE345     -0.0265
      8  C2        -5.3620   24.2870  -35.1560 C.3   345  ADE345      0.4008
      9  N3        -4.8990   24.4980  -33.9210 N.2   345  ADE345     -0.1640
     10  C4        -3.5840   24.2230  -33.8540 C.1   345  ADE345      0.0579
@<TRIPOS>BOND
     1     6     5    1
     2     7     5    2
     3     7     8    1
     4     5     4    1
     5     8     9    1
     6     4     3    2
     7     4    10    1
     8     3     2    1
     9     9    10    2
    10    10     1    2
    11     2     1    1
