@<TRIPOS>MOLECULE
3ryt_GNP_C_1.pdb
 32 34 0 0 0
SMALL
GASTEIGER

@<TRIPOS>ATOM
      1  PG       -63.4900  -58.3120  -12.9620 P.3   179  GNP179      0.4884
      2  O1G      -62.5650  -58.3260  -14.1540 O.2   179  GNP179     -0.2331
      3  O2G      -62.9020  -57.7690  -11.6810 O.3   179  GNP179     -0.1240
      4  O3G      -64.7390  -57.6310  -13.4650 O.3   179  GNP179     -0.1240
      5  N3B      -63.9230  -59.7980  -12.6340 N.3   179  GNP179     -0.0163
      6  PB       -62.8290  -60.9000  -12.3300 P.3   179  GNP179      0.4669
      7  O1B      -62.2910  -61.4490  -13.5940 O.2   179  GNP179     -0.2351
      8  O2B      -61.8860  -60.2690  -11.3810 O.3   179  GNP179     -0.1253
      9  O3A      -63.4960  -62.0580  -11.6030 O.3   179  GNP179     -0.2360
     10  PA       -63.0930  -62.4010  -10.1790 P.3   179  GNP179      0.2220
     11  O1A      -61.7480  -63.0150  -10.2380 O.2   179  GNP179     -0.5170
     12  O2A      -63.2810  -61.2190   -9.3090 O.3   179  GNP179     -0.4370
     13  O5'      -64.0750  -63.5130   -9.6460 O.3   179  GNP179     -0.3111
     14  C5'      -65.4750  -63.3810   -9.8320 C.3   179  GNP179      0.1813
     15  C4'      -66.1780  -64.5810   -9.2310 C.3   179  GNP179      0.1799
     16  O4'      -65.7130  -65.7710   -9.9100 O.3   179  GNP179     -0.3326
     17  C3'      -65.9080  -64.7840   -7.7440 C.3   179  GNP179      0.2158
     18  O3'      -67.1240  -64.6900   -7.0040 O.3   179  GNP179     -0.2175
     19  C2'      -65.2890  -66.1770   -7.6250 C.3   179  GNP179      0.2310
     20  O2'      -65.9010  -66.9320   -6.5960 O.3   179  GNP179     -0.2158
     21  C1'      -65.5500  -66.8220   -8.9850 C.3   179  GNP179      0.2293
     22  N9       -64.4470  -67.6500   -9.4630 N.pl3 179  GNP179     -0.2354
     23  C8       -63.3650  -67.2280  -10.1950 C.3   179  GNP179      0.2246
     24  N7       -62.5280  -68.1820  -10.4900 N.2   179  GNP179     -0.2322
     25  C5       -63.0910  -69.3110   -9.9150 C.2   179  GNP179      0.2182
     26  C6       -62.6310  -70.6470   -9.9050 C.1   179  GNP179      0.2372
     27  O6       -61.6010  -71.1030  -10.4190 O.2   179  GNP179     -0.2069
     28  N1       -63.4990  -71.4840   -9.2100 N.2   179  GNP179     -0.2485
     29  C2       -64.6650  -71.0780   -8.6040 C.1   179  GNP179      0.2531
     30  N2       -65.3740  -72.0300   -7.9800 N.pl3 179  GNP179     -0.0226
     31  N3       -65.1080  -69.8280   -8.6080 N.2   179  GNP179     -0.3074
     32  C4       -64.2730  -69.0020   -9.2800 C.2   179  GNP179      0.2300
@<TRIPOS>BOND
     1     2     1    2
     2     7     6    2
     3     4     1    1
     4     1     5    1
     5     1     3    1
     6     5     6    1
     7     6     9    1
     8     6     8    1
     9     9    10    1
    10    24    23    1
    11    24    25    2
    12    27    26    2
    13    11    10    2
    14    23    22    1
    15    10    13    1
    16    10    12    1
    17    25    26    1
    18    25    32    1
    19    16    15    1
    20    16    21    1
    21    26    28    2
    22    14    13    1
    23    14    15    1
    24    22    32    1
    25    22    21    1
    26    32    31    2
    27    15    17    1
    28    28    29    2
    29    21    19    1
    30    31    29    2
    31    29    30    1
    32    17    19    1
    33    17    18    1
    34    19    20    1
