@<TRIPOS>MOLECULE
3ryv_RYV_B_1.pdb
 15 15 0 0 0
SMALL
GASTEIGER

@<TRIPOS>ATOM
      1  S         15.0830   -0.0050   16.8010 S.O2    1  RYV1        0.0935
      2  N'        18.6830    4.7570   13.6040 N.am    1  RYV1       -0.2017
      3  O'        16.6900    5.7540   13.6820 O.2     1  RYV1       -0.2684
      4  C1        16.8540    3.6010   14.6440 C.ar    1  RYV1        0.0551
      5  C2        14.9090    2.4100   15.5030 C.ar    1  RYV1        0.0202
      6  C3        15.4640    3.5180   14.8420 C.ar    1  RYV1        0.0059
      7  C4        15.7320    1.3580   15.9510 C.ar    1  RYV1        0.1251
      8  C5        17.6880    2.5520   15.1200 C.ar    1  RYV1        0.0059
      9  C6        17.1360    1.4600   15.7910 C.ar    1  RYV1        0.0202
     10  C7        17.4400    4.7600   13.9120 C.2     1  RYV1        0.2648
     11  C1'       19.2990    5.8870   12.8630 C.3     1  RYV1        0.1155
     12  O1S       13.6680    0.0790   16.6480 O.2     1  RYV1       -0.1503
     13  C2'       19.4690    6.9820   13.9400 C.3     1  RYV1        0.0253
     14  O2S       15.5900    0.0490   18.1750 O.2     1  RYV1       -0.1503
     15  N3S       15.6990   -1.3180   16.0630 N.3     1  RYV1        0.0392
@<TRIPOS>BOND
     1    11     2    1
     2    11    13    1
     3     2    10   am
     4     3    10    2
     5    10     4    1
     6     4     6   ar
     7     4     8   ar
     8     6     5   ar
     9     8     9   ar
    10     5     7   ar
    11     9     7   ar
    12     7     1    1
    13    15     1    1
    14    12     1    2
    15     1    14    2
