@<TRIPOS>MOLECULE
3ryw_K9H_A_1.pdb
 27 27 0 0 0
SMALL
GASTEIGER

@<TRIPOS>ATOM
      1  CAA       35.4510    5.7750   31.6180 C.3   2001  K9H2001     0.0000
      2  OAB       33.9950   11.1190   14.8190 O.2   2001  K9H2001    -0.4597
      3  OAC       30.3270   10.7850   16.3160 O.3   2001  K9H2001    -0.3568
      4  OAD       34.4310   11.4940   17.4030 O.3   2001  K9H2001    -0.3568
      5  OAE       35.4890    9.5200   16.1770 O.3   2001  K9H2001    -0.3568
      6  OAF       31.7970   10.4780   14.1840 O.2   2001  K9H2001    -0.4597
      7  OAG       30.6570    8.4530   15.3130 O.3   2001  K9H2001    -0.3568
      8  CAH       34.8410    6.8610   16.6190 C.ar  2001  K9H2001     0.0948
      9  CAI       36.4530    6.1220   18.0770 C.ar  2001  K9H2001     0.1356
     10  CAJ       34.5200    7.2240   18.9730 C.ar  2001  K9H2001     0.0358
     11  CAK       34.7710    6.4910   30.4320 C.3   2001  K9H2001     0.0000
     12  CAL       35.8080    6.8730   29.3530 C.3   2001  K9H2001     0.0000
     13  CAM       35.7830    5.9440   28.1340 C.3   2001  K9H2001     0.0000
     14  CAN       36.1730    6.7370   26.8850 C.3   2001  K9H2001     0.0000
     15  CAO       36.9720    5.8970   25.9050 C.3   2001  K9H2001     0.0000
     16  CAP       37.1960    6.7020   24.6430 C.3   2001  K9H2001     0.0001
     17  CAQ       36.7050    5.9120   23.4480 C.3   2001  K9H2001     0.0038
     18  CAR       35.5930    6.6750   22.7820 C.3   2001  K9H2001     0.0473
     19  CAS       36.0630    7.2860   21.4600 C.3   2001  K9H2001     0.2055
     20  CAT       32.7400    8.0250   17.2340 C.3   2001  K9H2001     0.0426
     21  NAU       35.9980    6.2710   16.8380 N.ar  2001  K9H2001    -0.2395
     22  OAV       36.3570    6.3440   20.3920 O.3   2001  K9H2001    -0.4739
     23  CAW       34.0760    7.3690   17.6540 C.ar  2001  K9H2001     0.0009
     24  CAX       35.7510    6.5820   19.1810 C.ar  2001  K9H2001     0.1573
     25  CAY       32.6850    9.5190   16.7910 C.3   2001  K9H2001     0.1083
     26  PAZ       34.2600   10.3560   16.2160 P.3   2001  K9H2001     0.1239
     27  PBA       31.3100    9.7310   15.5620 P.3   2001  K9H2001     0.1239
@<TRIPOS>BOND
     1     6    27    2
     2     2    26    2
     3     7    27    1
     4    27     3    1
     5    27    25    1
     6     5    26    1
     7    26    25    1
     8    26     4    1
     9     8    21   ar
    10     8    23   ar
    11    25    20    1
    12    21     9   ar
    13    20    23    1
    14    23    10   ar
    15     9    24   ar
    16    10    24   ar
    17    24    22    1
    18    22    19    1
    19    19    18    1
    20    18    17    1
    21    17    16    1
    22    16    15    1
    23    15    14    1
    24    14    13    1
    25    13    12    1
    26    12    11    1
    27    11     1    1
