@<TRIPOS>MOLECULE
3ryx_RYX_B_1.pdb
 21 21 0 0 0
SMALL
GASTEIGER

@<TRIPOS>ATOM
      1  S         15.3200   -0.0610   16.9560 S.O2    1  RYX1        0.0935
      2  N'        18.6740    4.8340   13.6410 N.am    1  RYX1       -0.1955
      3  O'        16.6340    5.7160   13.7550 O.2     1  RYX1       -0.2684
      4  C1        16.8450    3.6210   14.7750 C.ar    1  RYX1        0.0551
      5  C2        17.2920    1.4320   15.8440 C.ar    1  RYX1        0.0202
      6  C3        17.7040    2.5550   15.1230 C.ar    1  RYX1        0.0059
      7  C4        15.9090    1.2880   16.1400 C.ar    1  RYX1        0.1251
      8  C5        15.4790    3.5400   15.0770 C.ar    1  RYX1        0.0059
      9  C6        15.0580    2.3560   15.7010 C.ar    1  RYX1        0.0202
     10  C7        17.3920    4.7960   14.0350 C.2     1  RYX1        0.2650
     11 F2'1       21.2210    5.9120   13.4060 F       1  RYX1       -0.1932
     12 F3'1       20.3440    8.3910   12.5280 F       1  RYX1       -0.1649
     13 F2'2       19.9110    6.4730   15.1970 F       1  RYX1       -0.1932
     14 F3'2       20.8790    8.7160   14.6690 F       1  RYX1       -0.1649
     15 F3'3       18.8560    8.1270   14.3260 F       1  RYX1       -0.1649
     16  C1'       19.1600    5.9710   12.8980 C.3     1  RYX1        0.1906
     17  O1S       13.8650    0.0450   16.8310 O.2     1  RYX1       -0.1503
     18  C2'       20.1680    6.5780   13.8780 C.3     1  RYX1        0.3686
     19  O2S       15.8390    0.0180   18.2890 O.2     1  RYX1       -0.1503
     20  C3'       20.0870    8.0650   13.8130 C.3     1  RYX1        0.4563
     21  N3S       15.9410   -1.3240   16.2230 N.3     1  RYX1        0.0392
@<TRIPOS>BOND
     1    12    20    1
     2    16     2    1
     3    16    18    1
     4    11    18    1
     5     2    10   am
     6     3    10    2
     7    20    18    1
     8    20    15    1
     9    20    14    1
    10    18    13    1
    11    10     4    1
    12     4     8   ar
    13     4     6   ar
    14     8     9   ar
    15     6     5   ar
    16     9     7   ar
    17     5     7   ar
    18     7     1    1
    19    21     1    1
    20    17     1    2
    21     1    19    2
