@<TRIPOS>MOLECULE
3ryy_RYY_A_1.pdb
 16 16 0 0 0
SMALL
GASTEIGER

@<TRIPOS>ATOM
      1  N         18.5170    5.7450   13.5730 N.am  262  RYY262     -0.2017
      2  S         15.1030    0.9020   16.8800 S.O2  262  RYY262      0.0935
      3  C1        16.7630    4.5320   14.6920 C.ar  262  RYY262      0.0551
      4  C2        15.3780    4.4480   14.9410 C.ar  262  RYY262      0.0059
      5  C3        14.8680    3.3380   15.6160 C.ar  262  RYY262      0.0202
      6  C4        15.7400    2.3080   16.0770 C.ar  262  RYY262      0.1251
      7  C5        17.1160    2.4270   15.8230 C.ar  262  RYY262      0.0202
      8  C6        17.6310    3.5150   15.1390 C.ar  262  RYY262      0.0059
      9  C7        17.2660    5.7260   13.9230 C.2   262  RYY262      0.2648
     10  O7        16.4970    6.6680   13.6900 O.2   262  RYY262     -0.2684
     11  C1'       19.0250    6.8480   12.7240 C.3   262  RYY262      0.1155
     12  C16       19.5680    8.2250   14.6180 C.3   262  RYY262      0.0019
     13  O1S       13.6560    0.9670   16.7210 O.2   262  RYY262     -0.1503
     14  C2'       20.0920    7.5370   13.4110 C.3   262  RYY262      0.0234
     15  O2S       15.6430    0.9820   18.2400 O.2   262  RYY262     -0.1503
     16  N3S       15.6800   -0.3700   16.1230 N.3   262  RYY262      0.0392
@<TRIPOS>BOND
     1    11    14    1
     2    11     1    1
     3    14    12    1
     4     1     9   am
     5    10     9    2
     6     9     3    1
     7     3     4   ar
     8     3     8   ar
     9     4     5   ar
    10     8     7   ar
    11     5     6   ar
    12     7     6   ar
    13     6     2    1
    14    16     2    1
    15    13     2    2
    16     2    15    2
