@<TRIPOS>MOLECULE
3ryz_RYZ_A_1.pdb
 24 24 0 0 0
SMALL
GASTEIGER

@<TRIPOS>ATOM
      1  S         15.1040    0.9880   16.8390 S.O2  262  RYZ262      0.0935
      2  N'        18.5310    5.8400   13.5380 N.am  262  RYZ262     -0.1956
      3  O'        16.4300    6.6550   13.5280 O.2   262  RYZ262     -0.2684
      4  C1        16.7230    4.6060   14.6110 C.ar  262  RYZ262      0.0551
      5  C2        17.0410    2.4570   15.8020 C.ar  262  RYZ262      0.0202
      6  C3        17.5720    3.5920   15.0880 C.ar  262  RYZ262      0.0059
      7  C4        15.6480    2.3260   16.0060 C.ar  262  RYZ262      0.1251
      8  C5        15.3340    4.5110   14.8270 C.ar  262  RYZ262      0.0059
      9  C6        14.7890    3.4040   15.5440 C.ar  262  RYZ262      0.0202
     10  C7        17.2400    5.7600   13.8490 C.2   262  RYZ262      0.2650
     11 F2'1       20.3320    7.6460   14.7320 F     262  RYZ262     -0.1961
     12 F3'1       19.1060    9.6650   12.1060 F     262  RYZ262     -0.1891
     13 F4'1       21.0910   11.1990   13.0750 F     262  RYZ262     -0.1648
     14 F2'2       18.5850    8.4970   14.5200 F     262  RYZ262     -0.1961
     15 F3'2       21.0520    8.7730   12.2830 F     262  RYZ262     -0.1891
     16 F4'2       20.9180   10.1310   14.9930 F     262  RYZ262     -0.1648
     17 F4'3       19.2270   11.0340   14.2300 F     262  RYZ262     -0.1648
     18  C1'       19.0970    6.9690   12.7710 C.3   262  RYZ262      0.1877
     19  O1S       13.6350    1.0140   16.7140 O.2   262  RYZ262     -0.1503
     20  C2'       19.5480    8.0920   13.7510 C.3   262  RYZ262      0.3466
     21  O2S       15.6060    1.0450   18.1780 O.2   262  RYZ262     -0.1503
     22  C3'       20.0450    9.2570   12.9640 C.3   262  RYZ262      0.4049
     23  N3S       15.7080   -0.3050   16.0840 N.3   262  RYZ262      0.0392
     24  C4'       20.3610   10.4530   13.8530 C.3   262  RYZ262      0.4602
@<TRIPOS>BOND
     1    12    22    1
     2    15    22    1
     3    18     2    1
     4    18    20    1
     5    22    20    1
     6    22    24    1
     7    13    24    1
     8     3    10    2
     9     2    10   am
    10    20    14    1
    11    20    11    1
    12    10     4    1
    13    24    17    1
    14    24    16    1
    15     4     8   ar
    16     4     6   ar
    17     8     9   ar
    18     6     5   ar
    19     9     7   ar
    20     5     7   ar
    21     7     1    1
    22    23     1    1
    23    19     1    2
    24     1    21    2
