@<TRIPOS>MOLECULE
3rz0_RZ0_B_1.pdb
 17 17 0 0 0
SMALL
GASTEIGER

@<TRIPOS>ATOM
      1  S         15.3240    0.2730   16.9610 S.O2    1  RZ01        0.0935
      2  N'        18.4980    5.2960   13.4880 N.am    1  RZ01       -0.2017
      3  O'        16.6560    5.9550   13.6820 O.2     1  RZ01       -0.2684
      4  C1        16.9030    3.8300   14.8090 C.ar    1  RZ01        0.0551
      5  C2        17.2810    1.7410   15.9160 C.ar    1  RZ01        0.0202
      6  C3        17.8050    2.8440   15.2040 C.ar    1  RZ01        0.0059
      7  C4        15.9080    1.5890   16.1340 C.ar    1  RZ01        0.1251
      8  C5        15.5380    3.7430   15.0770 C.ar    1  RZ01        0.0059
      9  C6        15.0400    2.6120   15.7390 C.ar    1  RZ01        0.0202
     10  C7        17.3860    5.0480   14.0630 C.2     1  RZ01        0.2648
     11  C1'       19.8640    5.2350   13.2870 C.3     1  RZ01        0.1155
     12  O1S       13.8810    0.3040   16.8460 O.2     1  RZ01       -0.1503
     13  C2'       20.0270    6.7430   13.1270 C.3     1  RZ01        0.0234
     14  O2S       15.8420    0.2550   18.2990 O.2     1  RZ01       -0.1503
     15  C3'       19.7290    7.5190   14.4490 C.3     1  RZ01        0.0018
     16  N3S       15.8590   -1.0240   16.2840 N.3     1  RZ01        0.0392
     17  C4'       20.5120    8.8240   14.6280 C.3     1  RZ01        0.0001
@<TRIPOS>BOND
     1    13    11    1
     2    13    15    1
     3    11     2    1
     4     2    10   am
     5     3    10    2
     6    10     4    1
     7    15    17    1
     8     4     8   ar
     9     4     6   ar
    10     8     9   ar
    11     6     5   ar
    12     9     7   ar
    13     5     7   ar
    14     7     1    1
    15    16     1    1
    16    12     1    2
    17     1    14    2
