@<TRIPOS>MOLECULE
3rz1_RZ1_B_1.pdb
 27 27 0 0 0
SMALL
GASTEIGER

@<TRIPOS>ATOM
      1  S         15.0320    0.9630   16.8950 S.O2    1  RZ11        0.0935
      2  N'        18.4380    5.7950   13.5160 N.am    1  RZ11       -0.1956
      3  O'        16.3570    6.6410   13.5250 O.2     1  RZ11       -0.2684
      4  C1        16.6170    4.5570   14.6220 C.ar    1  RZ11        0.0551
      5  C2        17.0450    2.4410   15.7830 C.ar    1  RZ11        0.0202
      6  C3        17.5010    3.5550   15.0600 C.ar    1  RZ11        0.0059
      7  C4        15.6400    2.3200   16.0370 C.ar    1  RZ11        0.1251
      8  C5        15.2400    4.4630   14.8810 C.ar    1  RZ11        0.0059
      9  C6        14.7530    3.3690   15.5850 C.ar    1  RZ11        0.0202
     10  C7        17.1510    5.7170   13.8420 C.2     1  RZ11        0.2650
     11 F2'1       20.4280    7.4840   14.4460 F       1  RZ11       -0.1963
     12 F3'1       18.8090    9.6780   12.2750 F       1  RZ11       -0.1920
     13 F4'1       20.7630    9.9010   15.3950 F       1  RZ11       -0.1889
     14 F5'1       22.4090   10.0310   13.7550 F       1  RZ11       -0.1648
     15 F2'2       18.5620    8.3570   14.5730 F       1  RZ11       -0.1963
     16 F3'2       20.7940    8.8810   12.1470 F       1  RZ11       -0.1920
     17 F4'2       19.1460   11.0040   14.1990 F       1  RZ11       -0.1889
     18 F5'2       21.6080   12.0200   14.4730 F       1  RZ11       -0.1648
     19 F5'3       21.0730   11.3970   12.3790 F       1  RZ11       -0.1648
     20  C1'       18.9730    6.8860   12.7310 C.3     1  RZ11        0.1876
     21  O1S       13.5690    0.9980   16.7560 O.2     1  RZ11       -0.1503
     22  C2'       19.4690    7.9620   13.7020 C.3     1  RZ11        0.3439
     23  O2S       15.5810    1.0440   18.2360 O.2     1  RZ11       -0.1503
     24  C3'       19.8650    9.2310   13.0060 C.3     1  RZ11        0.3830
     25  N3S       15.6550   -0.3490   16.1820 N.3     1  RZ11        0.0392
     26  C4'       20.2590   10.2590   14.1310 C.3     1  RZ11        0.4086
     27  C5'       21.4370   10.9980   13.6240 C.3     1  RZ11        0.4603
@<TRIPOS>BOND
     1    16    24    1
     2    12    24    1
     3    19    27    1
     4    20     2    1
     5    20    22    1
     6    24    22    1
     7    24    26    1
     8     2    10   am
     9     3    10    2
    10    27    14    1
    11    27    26    1
    12    27    18    1
    13    22    11    1
    14    22    15    1
    15    10     4    1
    16    26    17    1
    17    26    13    1
    18     4     8   ar
    19     4     6   ar
    20     8     9   ar
    21     6     5   ar
    22     9     7   ar
    23     5     7   ar
    24     7     1    1
    25    25     1    1
    26    21     1    2
    27     1    23    2
