@<TRIPOS>MOLECULE
3rz3_U94_A_1.pdb
 29 30 0 0 0
SMALL
GASTEIGER

@<TRIPOS>ATOM
      1  O1        -3.8060  -38.0130  -22.0570 O.co2   1  U941       -0.2427
      2  C2        -3.3550  -36.8190  -22.1160 C.2     1  U941        0.3973
      3  C3        -3.9980  -35.7630  -23.1250 C.3     1  U941        0.2856
      4  O4        -2.3860  -36.3830  -21.4260 O.co2   1  U941       -0.2427
      5  C5        -4.3710  -36.3220  -24.5000 C.3     1  U941        0.2134
      6  C6        -3.2460  -36.2250  -25.5640 C.3     1  U941        0.1331
      7  C7        -2.3880  -34.9580  -25.5450 C.3     1  U941        0.0507
      8  O8        -5.1580  -35.0460  -22.6270 O.3     1  U941       -0.2080
      9  O9        -5.5610  -35.6880  -24.9460 O.3     1  U941       -0.2179
     10  N10       -3.7740  -36.2110  -26.8920 N.am    1  U941       -0.2020
     11  C11       -3.8390  -37.2130  -27.7540 C.2     1  U941        0.2716
     12  O12       -3.6230  -38.4010  -27.5590 O.2     1  U941       -0.2706
     13  C13       -4.3400  -36.7960  -29.1000 C.3     1  U941        0.2287
     14  O14       -4.3360  -37.7690  -30.0280 O.3     1  U941       -0.3417
     15  C15       -5.1940  -37.0830  -30.8660 C.3     1  U941        0.1748
     16  C16       -0.9740  -35.3790  -25.9690 C.ar    1  U941       -0.0204
     17  C17       -0.1380  -35.8920  -24.9990 C.ar    1  U941       -0.0042
     18  C18        1.1280  -36.2760  -25.3490 C.ar    1  U941       -0.0003
     19  C19        1.5650  -36.1390  -26.6420 C.ar    1  U941        0.0000
     20  C20        0.7380  -35.6280  -27.6180 C.ar    1  U941       -0.0003
     21  C21       -0.5450  -35.2570  -27.2930 C.ar    1  U941       -0.0042
     22  C22        2.8280  -36.5880  -26.9230 C.ar    1  U941        0.0017
     23  C23        3.8810  -36.3650  -26.0580 C.ar    1  U941        0.0114
     24  C24        5.1430  -36.8540  -26.3550 C.ar    1  U941        0.0585
     25  C25        5.3500  -37.5990  -27.5120 C.ar    1  U941        0.0228
     26  C26        4.2830  -37.8120  -28.3690 C.ar    1  U941        0.0585
     27  C27        3.0200  -37.3250  -28.0740 C.ar    1  U941        0.0114
     28 CL28        4.5240  -38.7120  -29.8010 Cl      1  U941       -0.0822
     29 CL29        6.4610  -36.5710  -25.2850 Cl      1  U941       -0.0822
@<TRIPOS>BOND
     1    15    14    1
     2    14    13    1
     3    28    26    1
     4    13    11    1
     5    26    27   ar
     6    26    25   ar
     7    27    22   ar
     8    11    12    2
     9    11    10   am
    10    20    21   ar
    11    20    19   ar
    12    25    24   ar
    13    21    16   ar
    14    22    19    1
    15    22    23   ar
    16    10     6    1
    17    19    18   ar
    18    24    23   ar
    19    24    29    1
    20    16     7    1
    21    16    17   ar
    22     6     7    1
    23     6     5    1
    24    18    17   ar
    25     9     5    1
    26     5     3    1
    27     3     8    1
    28     3     2    1
    29     2     1   ar
    30     2     4   ar
