@<TRIPOS>MOLECULE
3rz4_EPE_A_1.pdb
 15 15 0 0 0
SMALL
GASTEIGER

@<TRIPOS>ATOM
      1  N1        24.2740    9.3920   -4.8990 N.3   3380  EPE3380    -0.2689
      2  C2        24.9700    8.8760   -3.7500 C.3   3380  EPE3380     0.0897
      3  C3        24.5060    7.4440   -3.4720 C.3   3380  EPE3380     0.0897
      4  N4        23.4920    6.8490   -4.2950 N.3   3380  EPE3380    -0.2681
      5  C5        23.4700    7.2080   -5.6850 C.3   3380  EPE3380     0.0897
      6  C6        24.1840    8.5040   -6.0340 C.3   3380  EPE3380     0.0897
      7  C7        23.1150    5.4770   -4.0320 C.3   3380  EPE3380     0.1081
      8  C8        23.2920    4.9880   -2.6110 C.3   3380  EPE3380     0.1993
      9  O8        24.6600    4.8150   -2.3900 O.3   3380  EPE3380    -0.2189
     10  C9        24.3300   10.8330   -5.1740 C.3   3380  EPE3380     0.0939
     11  C10       25.6830   11.4740   -5.1350 C.3   3380  EPE3380     0.1225
     12  S         25.5600   13.2440   -5.5880 S.3   3380  EPE3380    -0.1946
     13  O1S       24.4640   13.8030   -4.8920 O.3   3380  EPE3380    -0.3074
     14  O2S       25.3920   13.3410   -6.9370 O.3   3380  EPE3380    -0.3074
     15  O3S       26.7060   13.8850   -5.1530 O.3   3380  EPE3380    -0.3074
@<TRIPOS>BOND
     1    14    12    1
     2     6     5    1
     3     6     1    1
     4     5     4    1
     5    12    15    1
     6    12    11    1
     7    12    13    1
     8    10    11    1
     9    10     1    1
    10     1     2    1
    11     4     7    1
    12     4     3    1
    13     7     8    1
    14     2     3    1
    15     8     9    1
