@<TRIPOS>MOLECULE
3rz5_RZ5_A_1.pdb
 18 18 0 0 0
SMALL
GASTEIGER

@<TRIPOS>ATOM
      1  S         15.0430    0.9770   16.8780 S.O2  262  RZ5262      0.0935
      2  N'        18.5540    5.7500   13.5970 N.am  262  RZ5262     -0.2017
      3  O'        16.4660    6.6910   13.5840 O.2   262  RZ5262     -0.2684
      4  C1        16.6720    4.5790   14.6460 C.ar  262  RZ5262      0.0551
      5  C2        17.0120    2.4570   15.7980 C.ar  262  RZ5262      0.0202
      6  C3        17.5260    3.5630   15.0850 C.ar  262  RZ5262      0.0059
      7  C4        15.6270    2.3040   16.0670 C.ar  262  RZ5262      0.1251
      8  C5        15.2980    4.4290   14.8710 C.ar  262  RZ5262      0.0059
      9  C6        14.7700    3.3550   15.5940 C.ar  262  RZ5262      0.0202
     10  C7        17.2340    5.7470   13.8940 C.2   262  RZ5262      0.2648
     11  C1'       19.2410    6.8540   12.8650 C.3   262  RZ5262      0.1155
     12  O1S       13.5900    1.0140   16.7640 O.2   262  RZ5262     -0.1503
     13  C2'       19.6380    7.8610   13.9610 C.3   262  RZ5262      0.0234
     14  O2S       15.5900    1.0310   18.2070 O.2   262  RZ5262     -0.1503
     15  C3'       19.9940    9.1990   13.3810 C.3   262  RZ5262      0.0018
     16  N3S       15.6350   -0.3410   16.2120 N.3   262  RZ5262      0.0392
     17  C4'       19.9990   10.2340   14.4950 C.3   262  RZ5262      0.0001
     18  C5'       19.3390   11.4780   13.9350 C.3   262  RZ5262      0.0000
@<TRIPOS>BOND
     1    11     2    1
     2    11    13    1
     3    15    13    1
     4    15    17    1
     5     3    10    2
     6     2    10   am
     7    10     4    1
     8    18    17    1
     9     4     8   ar
    10     4     6   ar
    11     8     9   ar
    12     6     5   ar
    13     9     7   ar
    14     5     7   ar
    15     7     1    1
    16    16     1    1
    17    12     1    2
    18     1    14    2
