@<TRIPOS>MOLECULE
3rz7_RZ7_A_1.pdb
 30 30 0 0 0
SMALL
GASTEIGER

@<TRIPOS>ATOM
      1  S         15.0510    0.9480   16.8880 S.O2  262  RZ7262      0.0935
      2  N'        18.3700    5.7220   13.4820 N.am  262  RZ7262     -0.1956
      3  O'        16.3390    6.6840   13.5580 O.2   262  RZ7262     -0.2684
      4  C1        16.5900    4.5640   14.6100 C.ar  262  RZ7262      0.0551
      5  C2        17.0480    2.4930   15.8100 C.ar  262  RZ7262      0.0202
      6  C3        17.4960    3.6100   15.0650 C.ar  262  RZ7262      0.0059
      7  C4        15.6600    2.2750   16.0410 C.ar  262  RZ7262      0.1251
      8  C5        15.2030    4.3820   14.8290 C.ar  262  RZ7262      0.0059
      9  C6        14.7870    3.2730   15.5660 C.ar  262  RZ7262      0.0202
     10  C7        17.0930    5.7180   13.8350 C.2   262  RZ7262      0.2650
     11 F2'1       20.5340    7.2610   14.2990 F     262  RZ7262     -0.1963
     12 F3'1       18.8460    9.5170   12.1360 F     262  RZ7262     -0.1922
     13 F4'1       20.7450    9.8020   15.2580 F     262  RZ7262     -0.1919
     14 F5'1       21.1890   11.3280   12.3680 F     262  RZ7262     -0.1889
     15 F6'1       22.9570   11.2520   15.5260 F     262  RZ7262     -0.1648
     16 F2'2       18.7020    8.2750   14.5630 F     262  RZ7262     -0.1963
     17 F3'2       20.8620    8.8050   11.9730 F     262  RZ7262     -0.1922
     18 F4'2       19.2380   11.0390   14.0170 F     262  RZ7262     -0.1919
     19 F5'2       22.2470    9.5790   13.6240 F     262  RZ7262     -0.1889
     20 F6'2       21.2400   12.5940   14.9990 F     262  RZ7262     -0.1648
     21 F6'3       23.0240   12.5060   13.7780 F     262  RZ7262     -0.1648
     22  C1'       18.9010    6.8430   12.6980 C.3   262  RZ7262      0.1876
     23  O1S       13.6240    0.9430   16.7790 O.2   262  RZ7262     -0.1503
     24  C2'       19.5290    7.8470   13.6550 C.3   262  RZ7262      0.3438
     25  O2S       15.5970    1.0270   18.2470 O.2   262  RZ7262     -0.1503
     26  C3'       19.9050    9.1070   12.8930 C.3   262  RZ7262      0.3803
     27  N3S       15.6750   -0.3490   16.2170 N.3   262  RZ7262      0.0392
     28  C4'       20.2680   10.1760   14.0010 C.3   262  RZ7262      0.3866
     29  C5'       21.5490   10.7620   13.5450 C.3   262  RZ7262      0.4087
     30  C6'       22.2020   11.7900   14.5230 C.3   262  RZ7262      0.4603
@<TRIPOS>BOND
     1    17    26    1
     2    12    26    1
     3    14    29    1
     4    22     2    1
     5    22    24    1
     6    26    24    1
     7    26    28    1
     8     2    10   am
     9    29    19    1
    10    29    28    1
    11    29    30    1
    12     3    10    2
    13    24    11    1
    14    24    16    1
    15    21    30    1
    16    10     4    1
    17    28    18    1
    18    28    13    1
    19    30    20    1
    20    30    15    1
    21     4     8   ar
    22     4     6   ar
    23     8     9   ar
    24     6     5   ar
    25     9     7   ar
    26     5     7   ar
    27     7     1    1
    28    27     1    1
    29    23     1    2
    30     1    25    2
