@<TRIPOS>MOLECULE
3rz8_RZ8_A_1.pdb
 19 19 0 0 0
SMALL
GASTEIGER

@<TRIPOS>ATOM
      1  S         15.0160    0.9640   16.8720 S.O2  262  RZ8262      0.0935
      2  N'        18.4590    5.6640   13.4770 N.am  262  RZ8262     -0.2017
      3  O'        16.4920    6.7190   13.6000 O.2   262  RZ8262     -0.2684
      4  C1        16.6380    4.5780   14.6410 C.ar  262  RZ8262      0.0551
      5  C2        14.7570    3.3500   15.5610 C.ar  262  RZ8262      0.0202
      6  C3        15.2410    4.4420   14.8480 C.ar  262  RZ8262      0.0059
      7  C4        15.6240    2.3200   16.0760 C.ar  262  RZ8262      0.1251
      8  C5        17.5200    3.5480   15.0500 C.ar  262  RZ8262      0.0059
      9  C6        17.0040    2.4820   15.7990 C.ar  262  RZ8262      0.0202
     10  C7        17.1960    5.7220   13.8730 C.2   262  RZ8262      0.2648
     11  C1'       19.0170    6.7460   12.6400 C.3   262  RZ8262      0.1155
     12  O1S       13.5760    1.0100   16.7030 O.2   262  RZ8262     -0.1503
     13  C2'       20.1770    7.2400   13.4320 C.3   262  RZ8262      0.0234
     14  O2S       15.5630    1.0290   18.2120 O.2   262  RZ8262     -0.1503
     15  C3'       19.6820    8.3390   14.3240 C.3   262  RZ8262      0.0018
     16  N3S       15.6550   -0.2720   16.1670 N.3   262  RZ8262      0.0392
     17  C4'       19.9090    9.5710   13.4730 C.3   262  RZ8262      0.0001
     18  C5'       19.4010   10.8150   14.1690 C.3   262  RZ8262      0.0000
     19  C6'       19.1790   11.9580   13.1830 C.3   262  RZ8262      0.0000
@<TRIPOS>BOND
     1    11    13    1
     2    11     2    1
     3    19    18    1
     4    13    15    1
     5    17    18    1
     6    17    15    1
     7     2    10   am
     8     3    10    2
     9    10     4    1
    10     4     6   ar
    11     4     8   ar
    12     6     5   ar
    13     8     9   ar
    14     5     7   ar
    15     9     7   ar
    16     7     1    1
    17    16     1    1
    18    12     1    2
    19     1    14    2
