@<TRIPOS>MOLECULE
3rzb_02Z_A_1.pdb
 16 17 0 0 0
SMALL
GASTEIGER

@<TRIPOS>ATOM
      1  C1        94.4780   79.6370  -50.1200 C.2   458  02Z458      0.2792
      2  N1        91.7900   82.0990  -51.0290 N.2   458  02Z458     -0.3641
      3  S1        92.3540   80.9210  -48.8170 S.3   458  02Z458     -0.0479
      4  N2        93.4440   81.2580  -52.4820 N.pl3 458  02Z458     -0.0965
      5  N3        90.3180   82.7280  -49.2810 N.pl3 458  02Z458     -0.1781
      6  C12       93.3190   80.5890  -50.1700 C.3   458  02Z458      0.2043
      7  C13       92.8790   81.3100  -51.2750 C.2   458  02Z458      0.2177
      8  C14       91.3950   81.9920  -49.7580 C.2   458  02Z458      0.2328
      9  C15       89.5730   82.5770  -48.1340 C.ar  458  02Z458      0.0736
     10  C16       89.7610   81.4740  -47.0800 C.ar  458  02Z458      0.0166
     11  C17       88.9440   81.4140  -45.9120 C.ar  458  02Z458      0.0013
     12  C18       87.8970   82.4440  -45.7130 C.ar  458  02Z458      0.0001
     13  C19       87.6960   83.5210  -46.7170 C.ar  458  02Z458      0.0013
     14  C20       88.5150   83.5860  -47.9070 C.ar  458  02Z458      0.0166
     15  O21       95.1730   79.4140  -51.1220 O.2   458  02Z458     -0.2702
     16  N22       94.7070   79.0410  -48.9410 N.am  458  02Z458     -0.0866
@<TRIPOS>BOND
     1     4     7    1
     2     7     2    2
     3     7     6    1
     4    15     1    2
     5     2     8    2
     6     6     1    1
     7     6     3    1
     8     1    16   am
     9     8     5    1
    10     8     3    1
    11     5     9    1
    12     9    14   ar
    13     9    10   ar
    14    14    13   ar
    15    10    11   ar
    16    13    12   ar
    17    11    12   ar
