@<TRIPOS>MOLECULE
3rzc_FUL_A_1.pdb
 10 10 0 0 0
SMALL
GASTEIGER

@<TRIPOS>ATOM
      1  C1        24.6860   10.4570   -9.9740 C.3   506  FUL506      0.1776
      2  C2        25.8770    9.5110   -9.8340 C.3   506  FUL506      0.2141
      3  O2        25.4300    8.1750   -9.7820 O.3   506  FUL506     -0.2176
      4  C3        26.8150    9.7060  -11.0300 C.3   506  FUL506      0.2172
      5  O3        27.9940    8.9520  -10.8490 O.3   506  FUL506     -0.2175
      6  C4        27.1570   11.1830  -11.2560 C.3   506  FUL506      0.2116
      7  O4        28.1090   11.6110  -10.3020 O.3   506  FUL506     -0.2177
      8  C5        25.8980   12.0600  -11.1940 C.3   506  FUL506      0.1483
      9  C6        26.2170   13.5510  -11.2320 C.3   506  FUL506      0.0349
     10  O5        25.1590   11.7870  -10.0180 O.3   506  FUL506     -0.3508
@<TRIPOS>BOND
     1     6     8    1
     2     6     4    1
     3     6     7    1
     4     9     8    1
     5     8    10    1
     6     4     5    1
     7     4     2    1
     8    10     1    1
     9     1     2    1
    10     2     3    1
