@<TRIPOS>MOLECULE
3rze_D7V_A_1.pdb
 21 23 0 0 0
SMALL
GASTEIGER

@<TRIPOS>ATOM
      1  C1        14.8080   32.8370   18.1060 C.3   1201  D7V1201     0.0897
      2  N1        14.6770   33.2170   19.5220 N.3   1201  D7V1201    -0.2700
      3  O1        17.8220   39.2570   22.3740 O.3   1201  D7V1201    -0.4706
      4  C2        14.6430   32.0000   20.3490 C.3   1201  D7V1201     0.0897
      5  C3        15.8180   34.0610   19.9150 C.3   1201  D7V1201     0.0769
      6  C4        15.3430   35.4580   20.3040 C.3   1201  D7V1201     0.0433
      7  C5        15.7540   35.7270   21.7330 C.2   1201  D7V1201    -0.0246
      8  C6        16.8320   36.4400   22.1150 C.2   1201  D7V1201    -0.0015
      9  C7        17.0900   36.5910   23.5810 C.ar  1201  D7V1201    -0.0007
     10  C8        17.4010   35.4860   24.3750 C.ar  1201  D7V1201    -0.0002
     11  C9        17.6540   35.6660   25.7360 C.ar  1201  D7V1201    -0.0000
     12  C10       17.5970   36.9460   26.2910 C.ar  1201  D7V1201    -0.0002
     13  C11       17.2800   38.0460   25.4910 C.ar  1201  D7V1201    -0.0007
     14  C12       17.0270   37.8570   24.1320 C.ar  1201  D7V1201     0.0212
     15  C13       16.7020   39.0170   23.2240 C.3   1201  D7V1201     0.2320
     16  C14       18.2470   38.4250   21.3620 C.ar  1201  D7V1201     0.1389
     17  C15       17.8030   37.1050   21.1700 C.ar  1201  D7V1201     0.0337
     18  C16       19.1890   38.9720   20.4860 C.ar  1201  D7V1201     0.0369
     19  C17       19.7060   38.2230   19.4320 C.ar  1201  D7V1201     0.0031
     20  C18       19.2790   36.9100   19.2530 C.ar  1201  D7V1201     0.0002
     21  C19       18.3510   36.3510   20.1300 C.ar  1201  D7V1201     0.0030
@<TRIPOS>BOND
     1     1     2    1
     2    20    19   ar
     3    20    21   ar
     4    19    18   ar
     5     2     5    1
     6     2     4    1
     7     5     6    1
     8    21    17   ar
     9     6     7    1
    10    18    16   ar
    11    17    16   ar
    12    17     8    1
    13    16     3    1
    14     7     8    2
    15     8     9    1
    16     3    15    1
    17    15    14    1
    18     9    14   ar
    19     9    10   ar
    20    14    13   ar
    21    10    11   ar
    22    13    12   ar
    23    11    12   ar
