@<TRIPOS>MOLECULE
3rze_5EH_A_1.pdb
 21 23 0 0 0
SMALL
GASTEIGER

@<TRIPOS>ATOM
      1  C01       14.5690   31.7550   20.3780 C.3   1200  5EH1200     0.0897
      2  N02       14.5250   32.9430   19.5120 N.3   1200  5EH1200    -0.2700
      3  C03       14.4520   32.5110   18.1060 C.3   1200  5EH1200     0.0897
      4  C04       15.7300   33.7650   19.7240 C.3   1200  5EH1200     0.0769
      5  C05       15.3640   35.1380   20.2800 C.3   1200  5EH1200     0.0433
      6  C06       15.7730   35.2110   21.7340 C.2   1200  5EH1200    -0.0246
      7  C07       16.7510   36.0140   22.1950 C.2   1200  5EH1200    -0.0015
      8  C08       17.5260   36.9430   21.3110 C.ar  1200  5EH1200    -0.0007
      9  C09       18.4200   36.4730   20.3470 C.ar  1200  5EH1200    -0.0002
     10  C10       19.1490   37.3840   19.5800 C.ar  1200  5EH1200    -0.0000
     11  C11       18.9970   38.7570   19.7930 C.ar  1200  5EH1200    -0.0002
     12  C12       18.1190   39.2180   20.7750 C.ar  1200  5EH1200    -0.0007
     13  C13       17.3920   38.3030   21.5370 C.ar  1200  5EH1200     0.0212
     14  C14       16.4260   38.7620   22.6050 C.3   1200  5EH1200     0.2320
     15  O15       16.9620   38.4680   23.8940 O.3   1200  5EH1200    -0.4706
     16  C16       17.1760   37.2050   24.4050 C.ar  1200  5EH1200     0.1389
     17  C17       17.5170   37.1340   25.7580 C.ar  1200  5EH1200     0.0369
     18  C18       17.7700   35.9080   26.3730 C.ar  1200  5EH1200     0.0031
     19  C19       17.6860   34.7330   25.6300 C.ar  1200  5EH1200     0.0002
     20  C20       17.3500   34.7960   24.2790 C.ar  1200  5EH1200     0.0030
     21  C21       17.0920   36.0210   23.6590 C.ar  1200  5EH1200     0.0337
@<TRIPOS>BOND
     1     3     2    1
     2     2     4    1
     3     2     1    1
     4    10    11   ar
     5    10     9   ar
     6     4     5    1
     7    11    12   ar
     8     5     6    1
     9     9     8   ar
    10    12    13   ar
    11     8    13   ar
    12     8     7    1
    13    13    14    1
    14     6     7    2
    15     7    21    1
    16    14    15    1
    17    21    20   ar
    18    21    16   ar
    19    15    16    1
    20    20    19   ar
    21    16    17   ar
    22    19    18   ar
    23    17    18   ar
