@<TRIPOS>MOLECULE
3rzf_XNM_A_1.pdb
 31 34 0 0 0
SMALL
GASTEIGER

@<TRIPOS>ATOM
      1 CLAA       93.2400  -30.9430   57.0800 Cl    676  XNM676     -0.0822
      2  CAB       92.8880  -29.7950   55.8320 C.ar  676  XNM676      0.0577
      3  CAC       91.7320  -28.9860   55.9380 C.ar  676  XNM676      0.0115
      4  CAD       91.4550  -28.0450   54.9260 C.ar  676  XNM676      0.0034
      5  CAE       93.7660  -29.6890   54.7320 C.ar  676  XNM676      0.0115
      6  CAF       93.4890  -28.7490   53.7200 C.ar  676  XNM676      0.0034
      7  CAG       92.3330  -27.9400   53.8260 C.ar  676  XNM676      0.0306
      8  CAH       92.0550  -27.0210   52.8070 C.2   676  XNM676      0.1457
      9  NAI       90.9230  -26.2660   52.8600 N.2   676  XNM676     -0.3361
     10  CAJ       90.6020  -25.4080   51.8530 C.1   676  XNM676      0.1696
     11  NAK       89.5020  -24.6370   51.9390 N.pl3 676  XNM676     -0.1358
     12  CAL       89.5200  -23.3260   52.2650 C.ar  676  XNM676      0.0826
     13  CAM       89.2590  -22.9090   53.5930 C.ar  676  XNM676      0.0175
     14  CAN       89.3410  -21.5550   53.9240 C.ar  676  XNM676      0.0059
     15  OAO       90.0120  -18.3370   52.4500 O.2   676  XNM676     -0.2699
     16  CAP       92.9250  -26.9200   51.6960 C.2   676  XNM676      0.0545
     17  CAQ       92.5730  -26.0270   50.6710 C.2   676  XNM676      0.1144
     18  NAR       91.4450  -25.3220   50.7880 N.2   676  XNM676     -0.1683
     19  CAS       89.8640  -22.3900   51.2660 C.ar  676  XNM676      0.0175
     20  CAT       89.9430  -21.0150   51.5960 C.ar  676  XNM676      0.0059
     21  CAU       89.6790  -20.6070   52.9280 C.ar  676  XNM676      0.0537
     22  CAV       89.7240  -19.1820   53.3060 C.2   676  XNM676      0.2491
     23  NAW       89.4870  -18.7210   54.6160 N.am  676  XNM676     -0.2732
     24  CAX       89.5580  -17.2910   54.8960 C.3   676  XNM676      0.1110
     25  CAY       90.5710  -17.0360   55.9920 C.3   676  XNM676      0.0940
     26  CAZ       89.1750  -19.5070   55.8070 C.3   676  XNM676      0.1110
     27  CBA       90.1740  -19.2100   56.9040 C.3   676  XNM676      0.0940
     28  NBB       90.2460  -17.7850   57.2020 N.3   676  XNM676     -0.2675
     29  CBC       90.5910  -17.4020   58.1470 C.3   676  XNM676      0.1082
     30  CBD       92.0490  -17.7660   58.4670 C.3   676  XNM676      0.1993
     31  OBE       92.2200  -19.1850   58.5700 O.3   676  XNM676     -0.2189
@<TRIPOS>BOND
     1    17    18    1
     2    17    16    2
     3    18    10    2
     4    19    20   ar
     5    19    12   ar
     6    20    21   ar
     7    16     8    1
     8    10    11    1
     9    10     9    2
    10    11    12    1
    11    12    13   ar
    12    15    22    2
    13     8     9    2
    14     8     7    1
    15    21    22    1
    16    21    14   ar
    17    22    23   am
    18    13    14   ar
    19     6     7   ar
    20     6     5   ar
    21     7     4   ar
    22    23    24    1
    23    23    26    1
    24     5     2   ar
    25    24    25    1
    26     4     3   ar
    27    26    27    1
    28     2     3   ar
    29     2     1    1
    30    25    28    1
    31    27    28    1
    32    28    29    1
    33    29    30    1
    34    30    31    1
