@<TRIPOS>MOLECULE
3rzi_PHE_A_1.pdb
 12 12 0 0 0
SMALL
GASTEIGER

@<TRIPOS>ATOM
      1  N        -90.9050   77.8150   -7.5930 N.3   464  PHE464     -0.1205
      2  CA       -91.6960   76.6520   -8.0950 C.3   464  PHE464      0.1986
      3  C        -92.4690   75.9280   -6.9890 C.2   464  PHE464      0.3822
      4  O        -92.2140   76.0280   -5.7830 O.co2 464  PHE464     -0.2440
      5  CB       -90.8010   75.6500   -8.8310 C.3   464  PHE464      0.0569
      6  CG       -89.6000   75.2030   -8.0430 C.ar  464  PHE464     -0.0202
      7  CD1      -89.6520   74.0730   -7.2480 C.ar  464  PHE464     -0.0042
      8  CD2      -88.4010   75.8800   -8.1510 C.ar  464  PHE464     -0.0042
      9  CE1      -88.5320   73.6500   -6.5650 C.ar  464  PHE464     -0.0003
     10  CE2      -87.2850   75.4540   -7.4720 C.ar  464  PHE464     -0.0003
     11  CZ       -87.3510   74.3490   -6.6720 C.ar  464  PHE464     -0.0000
     12  OXT      -93.3870   75.1900   -7.3090 O.co2 464  PHE464     -0.2440
@<TRIPOS>BOND
     1     5     2    1
     2     5     6    1
     3     8     6   ar
     4     8    10   ar
     5     2     1    1
     6     2     3    1
     7     6     7   ar
     8    10    11   ar
     9    12     3   ar
    10     7     9   ar
    11     3     4   ar
    12    11     9   ar
