@<TRIPOS>MOLECULE
3rzi_TRP_A_1.pdb
 15 16 0 0 0
SMALL
GASTEIGER

@<TRIPOS>ATOM
      1  N        -65.3320   93.2790   -7.7920 N.3   465  TRP465     -0.1205
      2  CA       -65.3910   94.6330   -7.1790 C.3   465  TRP465      0.1984
      3  C        -66.4120   94.7010   -6.0470 C.2   465  TRP465      0.3822
      4  O        -67.2720   93.8480   -5.8490 O.co2 465  TRP465     -0.2440
      5  CB       -65.7350   95.6790   -8.2270 C.3   465  TRP465      0.0549
      6  CG       -66.9860   95.3660   -8.9770 C.2   465  TRP465     -0.0138
      7  CD1      -67.1360   94.4570   -9.9850 C.2   465  TRP465      0.0907
      8  CD2      -68.2690   95.9550   -8.7730 C.3   465  TRP465      0.0819
      9  NE1      -68.4390   94.4470  -10.4240 N.2   465  TRP465     -0.2482
     10  CE2      -69.1600   95.3390   -9.6780 C.2   465  TRP465      0.0665
     11  CE3      -68.7620   96.9090   -7.8800 C.2   465  TRP465     -0.0164
     12  CZ2      -70.5140   95.6710   -9.7360 C.2   465  TRP465      0.0153
     13  CZ3      -70.1060   97.2350   -7.9350 C.2   465  TRP465     -0.0038
     14  CH2      -70.9640   96.6280   -8.8670 C.2   465  TRP465      0.0009
     15  OXT      -66.4390   95.6830   -5.3330 O.co2 465  TRP465     -0.2440
@<TRIPOS>BOND
     1     9     7    1
     2     9    10    2
     3     7     6    2
     4    12    10    1
     5    12    14    2
     6    10     8    1
     7     6     8    1
     8     6     5    1
     9    14    13    1
    10     8    11    1
    11     5     2    1
    12    13    11    2
    13     1     2    1
    14     2     3    1
    15     3     4   ar
    16     3    15   ar
