@<TRIPOS>MOLECULE
3rzj_AKG_A_1.pdb
 10 9 0 0 0
SMALL
GASTEIGER

@<TRIPOS>ATOM
      1  C1        16.2860  -26.1930    4.3290 C.2   262  AKG262      0.4219
      2  O1        16.5230  -27.4230    4.2450 O.co2 262  AKG262     -0.2373
      3  O2        15.7810  -25.6900    5.3530 O.co2 262  AKG262     -0.2373
      4  C2        16.5970  -25.2960    3.2240 C.2   262  AKG262      0.2526
      5  O5        16.4650  -24.0920    3.3940 O.2   262  AKG262     -0.2843
      6  C3        17.0670  -25.8520    1.9000 C.3   262  AKG262      0.0881
      7  C4        18.2540  -25.0400    1.4040 C.3   262  AKG262      0.1224
      8  C5        18.7130  -25.5210    0.0480 C.2   262  AKG262      0.3653
      9  O3        17.8730  -25.9650   -0.7680 O.co2 262  AKG262     -0.2456
     10  O4        19.9350  -25.4520   -0.2050 O.co2 262  AKG262     -0.2456
@<TRIPOS>BOND
     1     9     8   ar
     2    10     8   ar
     3     8     7    1
     4     7     6    1
     5     6     4    1
     6     4     5    2
     7     4     1    1
     8     2     1   ar
     9     1     3   ar
