@<TRIPOS>MOLECULE
3rzk_AKG_A_1.pdb
 10 9 0 0 0
SMALL
GASTEIGER

@<TRIPOS>ATOM
      1  C1        15.2960   26.1400   -3.3930 C.2   262  AKG262      0.4219
      2  O1        15.6790   27.3390   -3.3950 O.co2 262  AKG262     -0.2373
      3  O2        14.5970   25.6450   -4.3080 O.co2 262  AKG262     -0.2373
      4  C2        15.6850   25.2790   -2.2840 C.2   262  AKG262      0.2526
      5  O5        15.6690   24.0710   -2.4150 O.2   262  AKG262     -0.2843
      6  C3        16.1130   25.8920   -0.9780 C.3   262  AKG262      0.0881
      7  C4        17.6250   25.6980   -0.8460 C.3   262  AKG262      0.1224
      8  C5        18.0400   25.8450    0.5980 C.2   262  AKG262      0.3653
      9  O3        17.2070   26.2590    1.4360 O.co2 262  AKG262     -0.2456
     10  O4        19.2200   25.5470    0.8900 O.co2 262  AKG262     -0.2456
@<TRIPOS>BOND
     1     3     1   ar
     2     2     1   ar
     3     1     4    1
     4     5     4    2
     5     4     6    1
     6     6     7    1
     7     7     8    1
     8     8    10   ar
     9     8     9   ar
