@<TRIPOS>MOLECULE
3rzp_PRF_A_1.pdb
 13 14 0 0 0
SMALL
GASTEIGER

@<TRIPOS>ATOM
      1  N1        22.8650   26.3330    4.2310 N.2   290  PRF290     -0.2525
      2  C2        24.0710   25.7550    4.2870 C.1   290  PRF290      0.2602
      3  N3        24.7980   25.5320    3.1930 N.2   290  PRF290     -0.2733
      4  C4        24.3140   25.9060    1.9640 C.1   290  PRF290      0.0973
      5  C5        23.0750   26.5040    1.8580 C.3   290  PRF290      0.2372
      6  C6        22.3330   26.7190    3.0470 C.1   290  PRF290      0.2101
      7  O6        21.1150   27.2820    2.9900 O.2   290  PRF290     -0.2120
      8  C7        22.8580   26.7610    0.4610 C.2   290  PRF290      0.0258
      9  C10       21.6720   27.4020   -0.2030 C.3   290  PRF290      0.1351
     10  N11       20.4400   27.0450    0.4370 N.3   290  PRF290     -0.1264
     11  C8        24.0060   26.3140   -0.1930 C.2   290  PRF290      0.1053
     12  N9        24.8580   25.8060    0.7100 N.2   290  PRF290     -0.1847
     13  N2        24.5640   25.3840    5.4800 N.pl3 290  PRF290     -0.0221
@<TRIPOS>BOND
     1     9    10    1
     2     9     8    1
     3    11     8    2
     4    11    12    1
     5     8     5    1
     6    12     4    2
     7     5     4    1
     8     5     6    1
     9     4     3    2
    10     7     6    2
    11     6     1    2
    12     3     2    2
    13     1     2    2
    14     2    13    1
