@<TRIPOS>MOLECULE
3rzs_TBR_A_1.pdb
 18 17 0 0 0
SMALL
GASTEIGER

@<TRIPOS>ATOM
      1 TA1        -6.7980    5.6640   32.2960 Ta    120  TBR120      0.0000
      2 TA2        -7.7200    7.2180   34.4270 Ta    120  TBR120      0.0000
      3 TA3        -8.2880    8.0330   31.7460 Ta    120  TBR120      0.0000
      4 TA4       -10.4030    7.0260   33.3300 Ta    120  TBR120      0.0000
      5 TA5        -9.3910    5.4800   31.1440 Ta    120  TBR120      0.0000
      6 TA6        -8.9520    4.7120   33.8520 Ta    120  TBR120      0.0000
      7 BR1        -5.1600    6.4630   34.0670 Br    120  TBR120      0.0000
      8 BR2        -6.1020    7.5590   30.6390 Br    120  TBR120      0.0000
      9 BR3        -7.4020    4.3760   29.9590 Br    120  TBR120      0.0000
     10 BR4        -6.6350    3.3160   33.4160 Br    120  TBR120      0.0000
     11 BR5        -7.1080    9.5750   33.4940 Br    120  TBR120      0.0000
     12 BR6        -9.3040    7.4030   29.3220 Br    120  TBR120      0.0000
     13 BR7       -12.0220    6.2530   31.5100 Br    120  TBR120      0.0000
     14 BR8       -11.1980    5.2340   34.9720 Br    120  TBR120      0.0000
     15 BR9        -9.8590    8.2910   35.6770 Br    120  TBR120      0.0000
     16 BRA       -10.5670    9.3890   32.2510 Br    120  TBR120      0.0000
     17 BRB       -10.1120    3.2580   32.0980 Br    120  TBR120      0.0000
     18 BRC        -7.9690    5.3150   36.2000 Br    120  TBR120      0.0000
@<TRIPOS>BOND
     1    12     5    1
     2     9     5    1
     3     8     3    1
     4     5     3    1
     5     5    17    1
     6    13     4    1
     7     3     4    1
     8    16     4    1
     9     1    10    1
    10     1     6    1
    11     1     7    1
    12     1     2    1
    13     4     6    1
    14     4    14    1
    15    11     2    1
    16     2    15    1
    17     2    18    1
