@<TRIPOS>MOLECULE
3s00_Z60_A_1.pdb
 18 19 0 0 0
SMALL
GASTEIGER

@<TRIPOS>ATOM
      1 CL        -81.2810   99.2500  -57.3380 Cl    461  Z60461     -0.0752
      2  N1       -78.0420  104.1110  -64.1900 N.2   461  Z60461     -0.3645
      3  C2       -78.9680  104.1980  -63.1860 C.2   461  Z60461      0.2162
      4  N3       -79.3860  105.4660  -63.0490 N.pl3 461  Z60461     -0.0965
      5  C4       -79.3220  103.0690  -62.4950 C.3   461  Z60461      0.1870
      6  C5       -80.2710  102.9450  -61.3960 C.2   461  Z60461      0.1973
      7  C6       -80.4500  101.6540  -60.6680 C.ar  461  Z60461      0.0663
      8  O7       -80.9120  103.9510  -61.0510 O.2   461  Z60461     -0.2894
      9  S8       -78.4250  101.7790  -63.1500 S.3   461  Z60461     -0.0498
     10  C9       -77.6550  102.8530  -64.2830 C.2   461  Z60461      0.2286
     11  N10      -76.7250  102.4730  -65.1990 N.pl3 461  Z60461     -0.2043
     12  C11      -76.3140  101.0900  -65.4150 C.3   461  Z60461      0.1154
     13  C12      -74.9710  101.0270  -66.1490 C.3   461  Z60461      0.0234
     14  C13      -74.5370   99.5910  -66.3820 C.3   461  Z60461      0.0019
     15  S14      -80.8510  101.7080  -58.9800 S.2   461  Z60461     -0.0726
     16  C15      -80.9000  100.0170  -58.8580 C.ar  461  Z60461      0.0870
     17  C16      -80.6220   99.3880  -60.0390 C.ar  461  Z60461      0.0186
     18  C17      -80.3600  100.3290  -61.0940 C.ar  461  Z60461      0.0108
@<TRIPOS>BOND
     1    14    13    1
     2    13    12    1
     3    12    11    1
     4    11    10    1
     5    10     2    2
     6    10     9    1
     7     2     3    2
     8     3     4    1
     9     3     5    1
    10     9     5    1
    11     5     6    1
    12     6     8    2
    13     6     7    1
    14    18     7   ar
    15    18    17   ar
    16     7    15   ar
    17    17    16   ar
    18    15    16   ar
    19    16     1    1
