@<TRIPOS>MOLECULE
3s04_III_I_1.pdb
 46 48 0 0 0
SMALL
GASTEIGER

@<TRIPOS>ATOM
      1  N        -29.2520   46.9630   60.9000 N.3     2  DSE2       -0.2064
      2  CA       -28.8030   45.7460   60.1850 C.3     2  DSE2        0.1835
      3  C        -29.9680   45.2730   59.3430 C.2     2  DSE2        0.2602
      4  O        -30.8740   46.0490   59.0370 O.2     2  DSE2       -0.2717
      5  CB       -27.6350   46.0180   59.2150 C.3     2  DSE2        0.2087
      6  CN       -28.9120   48.3410   60.4650 C.3     2  DSE2        0.1081
      7  OG       -26.4000   46.0430   59.9260 O.3     2  DSE2       -0.2183
      8  N        -29.9010   44.0050   58.9530 N.am    3  DAL3       -0.1965
      9  CA       -30.9040   43.4340   58.0500 C.3     3  DAL3        0.1728
     10  CB       -31.0120   41.9270   58.3130 C.3     3  DAL3        0.0334
     11  C        -30.3840   43.7720   56.6360 C.2     3  DAL3        0.2617
     12  O        -31.0680   43.5680   55.6260 O.2     3  DAL3       -0.2715
     13  N        -29.0120   44.3290   56.5410 N.am    4  GLY4       -0.1941
     14  CA       -28.3330   44.6720   55.2920 C.3     4  GLY4        0.1999
     15  C        -27.8700   43.3990   54.5660 C.2     4  GLY4        0.2488
     16  O        -27.7960   42.3140   55.1540 O.2     4  GLY4       -0.2729
     17  N        -27.5640   43.5780   53.2770 N.am    5  02V5       -0.2610
     18  C1       -27.7070   44.9560   52.7420 C.3     5  02V5        0.1162
     19  CA       -27.1190   42.4340   52.4720 C.3     5  02V5        0.2018
     20  C19      -27.4540   42.6710   50.9930 C.2     5  02V5       -0.0029
     21  C20      -26.4260   42.6420   50.0520 C.2     5  02V5       -0.0052
     22  C21      -28.7690   42.9110   50.5860 C.3     5  02V5        0.0938
     23  C22      -26.6930   42.8450   48.6970 C.2     5  02V5        0.0054
     24  C23      -29.0390   43.1260   49.2340 C.2     5  02V5        0.1773
     25  C24      -28.0160   43.0920   48.2840 C.2     5  02V5        0.0379
     26  C        -25.6070   42.2070   52.5910 C.1     5  02V5        0.1492
     27  O        -24.8460   43.0970   52.9820 O.2     5  02V5       -0.2250
     28  O2       -30.1940   43.3390   48.8670 O.2     5  02V5       -0.2910
     29  N        -25.2220   40.9870   52.1860 N.2     6  ALA6       -0.1897
     30  CA       -23.8160   40.5620   52.1040 C.3     6  ALA6        0.2191
     31  C        -23.7630   39.7280   50.8430 C.1     6  ALA6        0.1496
     32  O        -24.4250   38.6970   50.7780 O.2     6  ALA6       -0.2251
     33  CB       -23.4030   39.7300   53.3180 C.3     6  ALA6        0.0455
     34  N        -23.0670   40.2250   49.8230 N.2     7  TYR7       -0.1947
     35  CA       -23.0080   39.5000   48.5440 C.3     7  TYR7        0.2211
     36  C        -21.9980   38.3710   48.6850 C.2     7  TYR7        0.3878
     37  O        -21.0260   38.5860   49.4360 O.co2   7  TYR7       -0.2435
     38  CB       -22.5720   40.4470   47.4240 C.3     7  TYR7        0.0632
     39  CG       -23.5520   41.6150   47.2130 C.ar    7  TYR7       -0.0194
     40  CD1      -24.6930   41.7430   48.0070 C.ar    7  TYR7       -0.0010
     41  CD2      -23.3140   42.5680   46.2170 C.ar    7  TYR7       -0.0009
     42  CE1      -25.5950   42.7910   47.8350 C.ar    7  TYR7        0.0387
     43  CE2      -24.2050   43.6390   46.0320 C.ar    7  TYR7        0.0417
     44  CZ       -25.3380   43.7540   46.8440 C.ar    7  TYR7        0.1956
     45  OH       -26.1920   44.7920   46.6390 O.3     7  TYR7       -0.2866
     46  OXT      -22.2060   37.3130   48.0530 O.co2   7  TYR7       -0.2435
@<TRIPOS>BOND
     1    43    41   ar
     2    43    44   ar
     3    41    39   ar
     4    45    44    1
     5    44    42   ar
     6    39    38    1
     7    39    40   ar
     8    38    35    1
     9    42    40   ar
    10    42    23    1
    11    46    36   ar
    12    25    23    2
    13    25    24    1
    14    35    36    1
    15    35    34    1
    16    36    37   ar
    17    23    21    1
    18    28    24    2
    19    24    22    1
    20    34    31    2
    21    21    20    2
    22    22    20    1
    23    32    31    2
    24    31    30    1
    25    20    19    1
    26    30    29    1
    27    30    33    1
    28    29    26    2
    29    19    26    1
    30    19    17    1
    31    26    27    2
    32    18    17    1
    33    17    15   am
    34    15    16    2
    35    15    14    1
    36    14    13    1
    37    12    11    2
    38    13    11   am
    39    11     9    1
    40     9    10    1
    41     9     8    1
    42     8     3   am
    43     4     3    2
    44     5     7    1
    45     5     2    1
    46     3     2    1
    47     2     1    1
    48     6     1    1
