@<TRIPOS>MOLECULE
3s0b_FNA_A_1.pdb
 17 19 0 0 0
SMALL
GASTEIGER

@<TRIPOS>ATOM
      1  C1        -5.4150   -7.2970   11.5030 C.ar  120  FNA120      0.0013
      2  N1        -8.6620   -6.3100    9.9120 N.pl3 120  FNA120     -0.2349
      3  C2        -6.6980   -7.4250   10.9440 C.ar  120  FNA120      0.0161
      4  C3        -4.8190   -5.9860   11.6110 C.ar  120  FNA120      0.0001
      5  C4        -7.3480   -6.2990   10.5170 C.ar  120  FNA120      0.0656
      6  C5        -5.4760   -4.9160   11.1980 C.ar  120  FNA120      0.0013
      7  C6        -6.7900   -5.0460   10.6230 C.ar  120  FNA120      0.0161
      8  C7        -9.7590   -8.3120   10.9920 C.ar  120  FNA120     -0.0066
      9  C8       -10.3750   -9.5280   10.8530 C.ar  120  FNA120     -0.0245
     10  C9        -9.5930   -7.4220    9.7910 C.3   120  FNA120      0.1143
     11  C10      -10.8340  -10.0870    9.5270 C.3   120  FNA120      0.0262
     12  C11       -9.6860   -8.0750    8.4930 C.3   120  FNA120      0.0264
     13  C12      -10.5910   -9.1880    8.3560 C.3   120  FNA120      0.0068
     14  C13      -10.2080   -9.9070   13.2080 C.ar  120  FNA120     -0.0003
     15  C14      -10.5980  -10.3390   12.0110 C.ar  120  FNA120     -0.0045
     16  C15       -9.4110   -7.8520   12.2550 C.ar  120  FNA120     -0.0029
     17  C16       -9.6260   -8.6290   13.3500 C.ar  120  FNA120     -0.0003
@<TRIPOS>BOND
     1    13    12    1
     2    13    11    1
     3    12    10    1
     4    11     9    1
     5    10     2    1
     6    10     8    1
     7     2     5    1
     8     5     7   ar
     9     5     3   ar
    10     7     6   ar
    11     9     8   ar
    12     9    15   ar
    13     3     1   ar
    14     8    16   ar
    15     6     4   ar
    16     1     4   ar
    17    15    14   ar
    18    16    17   ar
    19    14    17   ar
