@<TRIPOS>MOLECULE
3s0d_CTV_A_1.pdb
 11 10 0 0 0
SMALL
GASTEIGER

@<TRIPOS>ATOM
      1  C1         8.4290   10.5450   29.6370 C.2   120  CTV120     -0.0091
      2  N1         8.3110   15.0570   33.2940 N.3   120  CTV120     -0.1262
      3  C2         8.0320   12.4880   28.4760 C.3   120  CTV120      0.0264
      4  C3         8.4860   11.8660   29.5840 C.2   120  CTV120     -0.0439
      5  C4         8.6150   12.6790   30.8830 C.3   120  CTV120      0.0224
      6  C5         9.8330   12.7030   31.6070 C.3   120  CTV120      0.0087
      7  C6        10.0100   11.4250   32.3590 C.3   120  CTV120      0.0221
      8  C7         9.9170   11.5230   33.9240 C.2   120  CTV120     -0.0467
      9  C8         9.4170   12.6810   34.6790 C.2   120  CTV120     -0.0142
     10  C9        10.2830   10.2120   34.8180 C.3   120  CTV120      0.0261
     11  C10        8.9130   13.8440   34.0050 C.3   120  CTV120      0.1347
@<TRIPOS>BOND
     1     3     4    1
     2     4     1    2
     3     4     5    1
     4     5     6    1
     5     6     7    1
     6     7     8    1
     7     2    11    1
     8     8     9    2
     9     8    10    1
    10    11     9    1
