@<TRIPOS>MOLECULE
3s0e_EOL_A_1.pdb
 12 12 0 0 0
SMALL
GASTEIGER

@<TRIPOS>ATOM
      1  C1         2.6470  -10.6740  -10.6630 C.ar  120  EOL120      0.0363
      2  O1         2.8980  -13.1590   -8.0060 O.3   120  EOL120     -0.2833
      3  C2         2.8070  -11.4940  -11.7850 C.ar  120  EOL120     -0.0146
      4  O2         2.5130  -10.4990   -8.2410 O.3   120  EOL120     -0.4682
      5  C3         2.6910  -11.2420   -9.3920 C.ar  120  EOL120      0.1771
      6  C4         3.0330  -12.8590  -11.6300 C.ar  120  EOL120     -0.0004
      7  C5         2.8680  -12.6100   -9.2510 C.ar  120  EOL120      0.2293
      8  C6         3.0590  -13.4270  -10.3610 C.ar  120  EOL120      0.0449
      9  C7         2.7420  -10.9150  -13.1630 C.3   120  EOL120      0.0524
     10  C8         3.6280   -9.7660  -13.4730 C.2   120  EOL120     -0.0214
     11  C9         4.8050   -9.6300  -12.8030 C.2   120  EOL120     -0.0046
     12  C10        2.3600   -9.1300   -8.3130 C.3   120  EOL120      0.2526
@<TRIPOS>BOND
     1    10     9    1
     2    10    11    2
     3     9     3    1
     4     3     6   ar
     5     3     1   ar
     6     6     8   ar
     7     1     5   ar
     8     8     7   ar
     9     5     7   ar
    10     5     4    1
    11     7     2    1
    12    12     4    1
