@<TRIPOS>MOLECULE
3s0j_Z15_A_1.pdb
 20 21 0 0 0
SMALL
GASTEIGER

@<TRIPOS>ATOM
      1  C1        33.9510   24.1830   30.2140 C.ar  998  Z15998      0.1951
      2  O1        32.6260   24.4710   30.3150 O.3   998  Z15998     -0.2868
      3  C2        34.4360   23.4810   29.1030 C.ar  998  Z15998      0.0493
      4  C3        35.7980   23.1840   29.0210 C.ar  998  Z15998      0.0442
      5  C4        36.6720   23.6060   30.0250 C.ar  998  Z15998      0.2061
      6  O4        38.0010   23.3200   29.9390 O.3   998  Z15998     -0.2857
      7  C5        36.1890   24.3100   31.1260 C.ar  998  Z15998      0.0996
      8 CL5        37.2880   24.8100   32.3690 Cl    998  Z15998     -0.0788
      9  C6        34.8260   24.6040   31.2230 C.ar  998  Z15998      0.0564
     10  C1'       33.4670   23.0000   28.0060 C.3   998  Z15998      0.1736
     11  C2'       33.8790   23.1900   26.5320 C.3   998  Z15998      0.2159
     12  O2'       34.0720   24.5790   26.2470 O.3   998  Z15998     -0.2173
     13  C3'       32.7930   22.5930   25.6090 C.3   998  Z15998      0.2175
     14  O3'       33.2040   22.6700   24.2420 O.3   998  Z15998     -0.2175
     15  C4'       32.4890   21.1310   25.9830 C.3   998  Z15998      0.2143
     16  O4'       31.3320   20.6870   25.2750 O.3   998  Z15998     -0.2176
     17  C5'       32.2470   20.9720   27.5030 C.3   998  Z15998      0.1813
     18  O5'       33.3390   21.5610   28.2470 O.3   998  Z15998     -0.3461
     19  C6'       32.1360   19.5020   27.9220 C.3   998  Z15998      0.2141
     20  O6'       33.2260   18.7530   27.3670 O.3   998  Z15998     -0.2176
@<TRIPOS>BOND
     1    14    13    1
     2    16    15    1
     3    13    15    1
     4    13    11    1
     5    15    17    1
     6    12    11    1
     7    11    10    1
     8    20    19    1
     9    17    19    1
    10    17    18    1
    11    10    18    1
    12    10     3    1
    13     4     3   ar
    14     4     5   ar
    15     3     1   ar
    16     6     5    1
    17     5     7   ar
    18     1     2    1
    19     1     9   ar
    20     7     9   ar
    21     7     8    1
