@<TRIPOS>MOLECULE
3s0n_0BB_A_1.pdb
 27 30 0 0 0
SMALL
GASTEIGER

@<TRIPOS>ATOM
      1  C1        20.9980   29.0420    8.6840 C.3   230  0BB230      0.1111
      2  O1        21.3810   28.7350    5.7600 O.2   230  0BB230     -0.2463
      3  C3        20.3910   24.2490    7.1600 C.ar  230  0BB230      0.0188
      4  C4        20.1160   23.7510    8.4080 C.ar  230  0BB230      0.0016
      5  C5        20.0840   24.6270    9.6300 C.ar  230  0BB230      0.0016
      6  C6        20.3260   25.9790    9.5850 C.ar  230  0BB230      0.0188
      7  C7        20.6330   26.5910    8.2440 C.ar  230  0BB230      0.0797
      8  C8        20.6650   25.7200    7.0320 C.ar  230  0BB230      0.0800
      9  N9        20.9600   26.5060    5.9960 N.ar  230  0BB230     -0.2757
     10  C10       21.1060   27.7850    6.4750 C.ar  230  0BB230      0.3318
     11  N11       20.9150   27.8360    7.8340 N.ar  230  0BB230     -0.2799
     12  C12       22.4340   29.2970    9.1870 C.3   230  0BB230      0.0364
     13  C13       22.9540   30.6950    8.7930 C.3   230  0BB230      0.1161
     14  C17       21.1060   26.1270    4.5810 C.3   230  0BB230      0.1378
     15  C18       22.5280   25.8230    4.0690 C.ar  230  0BB230      0.0072
     16  C19       22.8900   25.2290    2.7440 C.ar  230  0BB230      0.0004
     17  C20       24.3440   25.1100    2.6590 C.ar  230  0BB230      0.0289
     18  S21       25.1290   25.6720    4.0520 S.2   230  0BB230     -0.0867
     19  C22       23.6920   26.0880    4.8330 C.ar  230  0BB230      0.0330
     20  C23       22.1120   24.7850    1.6170 C.ar  230  0BB230     -0.0216
     21  C24       22.7640   24.2460    0.4660 C.ar  230  0BB230     -0.0042
     22  C25       24.1700   24.1430    0.4130 C.ar  230  0BB230      0.0002
     23  C26       24.9430   24.5790    1.5130 C.ar  230  0BB230      0.0064
     24  C34       20.6040   24.8590    1.5810 C.3   230  0BB230      0.0310
     25  C39       24.3950   30.9880    9.2750 C.2   230  0BB230      0.3649
     26  O40       24.9430   32.0000    8.8400 O.co2 230  0BB230     -0.2457
     27  O41       24.9540   30.2180   10.0700 O.co2 230  0BB230     -0.2457
@<TRIPOS>BOND
     1    22    21   ar
     2    22    23   ar
     3    21    20   ar
     4    23    17   ar
     5    24    20    1
     6    20    16   ar
     7    17    16   ar
     8    17    18   ar
     9    16    15   ar
    10    18    19   ar
    11    15    14    1
    12    15    19   ar
    13    14     9    1
    14     2    10    2
    15     9    10   ar
    16     9     8   ar
    17    10    11   ar
    18     8     3   ar
    19     8     7   ar
    20     3     4   ar
    21    11     7   ar
    22    11     1    1
    23     7     6   ar
    24     4     5   ar
    25     1    12    1
    26    13    12    1
    27    13    25    1
    28    26    25   ar
    29    25    27   ar
    30     6     5   ar
