@<TRIPOS>MOLECULE
3s0o_50Z_A_1.pdb
 18 19 0 0 0
SMALL
GASTEIGER

@<TRIPOS>ATOM
      1  N1        64.7940   82.1740  -86.5730 N.2   446  50Z446     -0.3605
      2  C2        65.7490   81.2390  -86.7490 C.2   446  50Z446      0.2306
      3  N3        66.2670   81.0190  -87.9780 N.pl3 446  50Z446     -0.0924
      4  C4        66.1090   80.5560  -85.5720 C.2   446  50Z446      0.1200
      5  C5        67.0340   79.5400  -85.4400 C.2   446  50Z446      0.2188
      6  C6        67.3180   78.8690  -84.1220 C.2   446  50Z446      0.0978
      7  C8        67.2980   78.8590  -81.6430 C.3   446  50Z446      0.1510
      8  N8        67.0320   79.5100  -82.8810 N.2   446  50Z446     -0.2664
      9  C9        67.8400   77.5910  -81.6420 C.2   446  50Z446     -0.0042
     10  C10       68.1300   76.9390  -82.8210 C.2   446  50Z446     -0.0223
     11  C11       67.8780   77.5560  -84.0810 C.3   446  50Z446      0.0744
     12  O12       67.7150   79.0830  -86.5260 O.2   446  50Z446     -0.2846
     13  S13       65.2050   81.1460  -84.2320 S.3   446  50Z446     -0.0313
     14  C14       64.4020   82.2390  -85.2830 C.2   446  50Z446      0.2325
     15  N15       63.4270   83.1240  -84.8800 N.pl3 446  50Z446     -0.2041
     16  C16       62.9760   83.1960  -83.4950 C.3   446  50Z446      0.1154
     17  C17       62.0210   82.0700  -83.1600 C.3   446  50Z446      0.0234
     18  C18       62.3170   81.1180  -82.0710 C.3   446  50Z446      0.0019
@<TRIPOS>BOND
     1     3     2    1
     2     2     1    2
     3     2     4    1
     4     1    14    2
     5    12     5    1
     6     4     5    2
     7     4    13    1
     8     5     6    1
     9    14    15    1
    10    14    13    1
    11    15    16    1
    12     6    11    1
    13     6     8    2
    14    11    10    1
    15    16    17    1
    16    17    18    1
    17     8     7    1
    18    10     9    2
    19     7     9    1
