@<TRIPOS>MOLECULE
3s19_PRF_A_1.pdb
 13 14 0 0 0
SMALL
GASTEIGER

@<TRIPOS>ATOM
      1  N1       -19.5110  -29.0730    0.7140 N.2   290  PRF290     -0.2525
      2  C2       -19.8450  -29.2530    1.9800 C.1   290  PRF290      0.2602
      3  N3       -20.9180  -28.7120    2.5350 N.2   290  PRF290     -0.2733
      4  C4       -21.7200  -27.9030    1.7430 C.1   290  PRF290      0.0973
      5  C5       -21.4400  -27.6690    0.4540 C.3   290  PRF290      0.2372
      6  C6       -20.2740  -28.2740   -0.0770 C.1   290  PRF290      0.2101
      7  O6       -19.9080  -28.0850   -1.3190 O.2   290  PRF290     -0.2120
      8  C7       -22.5180  -26.8050    0.0030 C.2   290  PRF290      0.0258
      9  C10      -22.7460  -26.2180   -1.2660 C.3   290  PRF290      0.1351
     10  N11      -21.7380  -26.3070   -2.2520 N.3   290  PRF290     -0.1264
     11  C8       -23.3870  -26.5820    1.0520 C.2   290  PRF290      0.1053
     12  N9       -22.9270  -27.2540    2.1010 N.2   290  PRF290     -0.1847
     13  N2       -19.0160  -30.0780    2.8200 N.pl3 290  PRF290     -0.0221
@<TRIPOS>BOND
     1    10     9    1
     2     7     6    2
     3     9     8    1
     4     6     5    1
     5     6     1    2
     6     8     5    1
     7     8    11    2
     8     5     4    1
     9     1     2    2
    10    11    12    1
    11     4    12    2
    12     4     3    2
    13     2     3    2
    14     2    13    1
