@<TRIPOS>MOLECULE
3s1a_ATP_A_1.pdb
 31 33 0 0 0
SMALL
GASTEIGER

@<TRIPOS>ATOM
      1  PG       127.6120   82.2610   16.9280 P.3   901  ATP901      0.5373
      2  O1G      126.9440   81.7700   15.6920 O.2   901  ATP901     -0.2221
      3  O2G      127.4720   81.2750   18.1070 O.3   901  ATP901     -0.1143
      4  O3G      129.0870   82.5090   16.6210 O.3   901  ATP901     -0.1143
      5  PB       127.1800   85.0200   16.5020 P.3   901  ATP901      0.2277
      6  O1B      126.4000   86.0120   17.2440 O.3   901  ATP901     -0.4368
      7  O2B      126.8310   84.9330   15.0370 O.2   901  ATP901     -0.5168
      8  O3B      126.9750   83.6840   17.3030 O.3   901  ATP901     -0.2258
      9  PA       129.9500   85.6940   15.7760 P.3   901  ATP901      0.2189
     10  O1A      130.0620   87.1600   15.7110 O.2   901  ATP901     -0.5170
     11  O2A      131.2140   85.0280   16.3320 O.3   901  ATP901     -0.4371
     12  O3A      128.7160   85.3830   16.7360 O.3   901  ATP901     -0.2700
     13  O5'      129.6340   85.1570   14.2960 O.3   901  ATP901     -0.3112
     14  C5'      130.7440   84.8570   13.4210 C.3   901  ATP901      0.1813
     15  C4'      130.3810   85.1360   11.9510 C.3   901  ATP901      0.1821
     16  O4'      131.1630   86.1840   11.3790 O.3   901  ATP901     -0.3135
     17  C3'      130.5610   83.9170   11.0810 C.3   901  ATP901      0.2184
     18  O3'      129.2760   83.3310   10.9060 O.3   901  ATP901     -0.2174
     19  C2'      131.2120   84.4220    9.7770 C.3   901  ATP901      0.2570
     20  O2'      130.4100   84.5190    8.6380 O.3   901  ATP901     -0.2130
     21  C1'      131.7960   85.7710   10.1470 C.3   901  ATP901      0.3186
     22  N9       133.2990   85.9270   10.3880 N.pl3 901  ATP901     -0.1439
     23  C8       133.9840   85.4810   11.5010 C.3   901  ATP901      0.3377
     24  N7       135.2660   85.7920   11.3410 N.2   901  ATP901     -0.2095
     25  C5       135.4900   86.4390   10.1620 C.2   901  ATP901      0.2526
     26  C6       136.5990   86.9860    9.4560 C.2   901  ATP901      0.4393
     27  N6       137.8540   87.0200    9.8620 N.pl3 901  ATP901      0.2180
     28  N1       136.3920   87.5800    8.2170 N.2   901  ATP901      0.0021
     29  C2       135.1420   87.6400    7.6490 C.3   901  ATP901      0.5254
     30  N3       134.0440   87.1150    8.3090 N.2   901  ATP901     -0.0055
     31  C4       134.2190   86.5120    9.5370 C.2   901  ATP901      0.3518
@<TRIPOS>BOND
     1    29    28    1
     2    29    30    1
     3    28    26    2
     4    30    31    2
     5    20    19    1
     6    26    27    1
     7    26    25    1
     8    31    25    1
     9    31    22    1
    10    19    21    1
    11    19    17    1
    12    21    22    1
    13    21    16    1
    14    25    24    2
    15    22    23    1
    16    18    17    1
    17    17    15    1
    18    24    23    1
    19    16    15    1
    20    15    14    1
    21    14    13    1
    22    13     9    1
    23     7     5    2
    24     2     1    2
    25    10     9    2
    26     9    11    1
    27     9    12    1
    28     5    12    1
    29     5     6    1
    30     5     8    1
    31     4     1    1
    32     1     8    1
    33     1     3    1
