@<TRIPOS>MOLECULE
3s1c_ZIR_A_1.pdb
 24 26 0 0 0
SMALL
GASTEIGER

@<TRIPOS>ATOM
      1  N1       -35.9540    8.3120   -2.6290 N.2   536  ZIR536     -0.0020
      2  C2       -35.7590    9.4490   -2.0610 C.3   536  ZIR536      0.5253
      3  N3       -36.4560   10.5090   -2.4420 N.2   536  ZIR536     -0.0055
      4  C4       -37.4090   10.5060   -3.3770 C.2   536  ZIR536      0.3517
      5  C5       -37.6620    9.3120   -3.9660 C.2   536  ZIR536      0.2478
      6  C6       -36.9010    8.2150   -3.5640 C.2   536  ZIR536      0.3858
      7  N7       -38.6180    9.5200   -4.8540 N.2   536  ZIR536     -0.2097
      8  C8       -38.9380   10.7650   -4.7910 C.3   536  ZIR536      0.3377
      9  N9       -38.2130   11.4020   -3.9010 N.pl3 536  ZIR536     -0.1439
     10  C1'      -38.3560   12.9170   -3.5460 C.3   536  ZIR536      0.3186
     11  N10      -37.1090    7.0400   -4.0750 N.pl3 536  ZIR536     -0.0249
     12  C11      -37.1220    5.8490   -3.2510 C.3   536  ZIR536      0.2770
     13  C12      -37.9230    4.8510   -3.7320 C.2   536  ZIR536      0.0201
     14  C13      -37.8370    3.5750   -3.2030 C.2   536  ZIR536     -0.0437
     15  C14      -38.6670    2.4330   -3.7380 C.3   536  ZIR536      0.0262
     16  C15      -36.8170    3.3760   -2.0860 C.3   536  ZIR536      0.0262
     17  C2'      -38.1560   14.0280   -4.5900 C.3   536  ZIR536      0.2570
     18  O2'      -36.7970   14.3810   -4.6190 O.3   536  ZIR536     -0.2130
     19  C3'      -39.0880   15.1720   -4.1430 C.3   536  ZIR536      0.2186
     20  O3'      -38.6120   15.9790   -3.0740 O.3   536  ZIR536     -0.2174
     21  C4'      -40.2580   14.3850   -3.6650 C.3   536  ZIR536      0.1851
     22  O4'      -39.7090   13.1970   -3.0920 O.3   536  ZIR536     -0.3134
     23  C5'      -41.1100   14.0800   -4.8990 C.3   536  ZIR536      0.2143
     24  O5'      -42.3190   14.8630   -4.8250 O.3   536  ZIR536     -0.2176
@<TRIPOS>BOND
     1    23    24    1
     2    23    21    1
     3     7     8    1
     4     7     5    2
     5     8     9    1
     6    18    17    1
     7    17    19    1
     8    17    10    1
     9    19    21    1
    10    19    20    1
    11    11     6    1
    12    11    12    1
    13     5     6    1
    14     5     4    1
    15     9    10    1
    16     9     4    1
    17    15    14    1
    18    13    12    1
    19    13    14    2
    20    21    22    1
    21     6     1    2
    22    10    22    1
    23     4     3    2
    24    14    16    1
    25     1     2    1
    26     3     2    1
