@<TRIPOS>MOLECULE
3s1d_ZIR_A_1.pdb
 24 26 0 0 0
SMALL
GASTEIGER

@<TRIPOS>ATOM
      1  N1       -36.0530  -16.7400   -2.6460 N.2   536  ZIR536     -0.0020
      2  C2       -35.7970  -15.5800   -2.0920 C.3   536  ZIR536      0.5253
      3  N3       -36.4320  -14.5240   -2.4490 N.2   536  ZIR536     -0.0055
      4  C4       -37.3910  -14.5630   -3.3730 C.2   536  ZIR536      0.3517
      5  C5       -37.6900  -15.7620   -3.9740 C.2   536  ZIR536      0.2478
      6  C6       -36.9920  -16.8770   -3.5990 C.2   536  ZIR536      0.3858
      7  N7       -38.6500  -15.5640   -4.8640 N.2   536  ZIR536     -0.2097
      8  C8       -38.9510  -14.3170   -4.8130 C.3   536  ZIR536      0.3377
      9  N9       -38.1860  -13.6730   -3.9240 N.pl3 536  ZIR536     -0.1439
     10  C1'      -38.2770  -12.2230   -3.6150 C.3   536  ZIR536      0.3186
     11  N10      -37.2980  -18.0520   -4.1550 N.pl3 536  ZIR536     -0.0249
     12  C11      -37.2560  -19.2390   -3.3150 C.3   536  ZIR536      0.2770
     13  C12      -38.0430  -20.3090   -3.7100 C.2   536  ZIR536      0.0201
     14  C13      -37.9070  -21.5400   -3.1160 C.2   536  ZIR536     -0.0437
     15  C14      -36.8700  -21.6240   -2.0490 C.3   536  ZIR536      0.0262
     16  C15      -38.7120  -22.7830   -3.5040 C.3   536  ZIR536      0.0262
     17  C2'      -38.3700  -11.2880   -4.8230 C.3   536  ZIR536      0.2570
     18  O2'      -37.1270  -10.8140   -5.1530 O.3   536  ZIR536     -0.2130
     19  C3'      -39.2300  -10.1460   -4.3190 C.3   536  ZIR536      0.2186
     20  O3'      -38.5290   -9.3220   -3.3770 O.3   536  ZIR536     -0.2174
     21  C4'      -40.2900  -10.9900   -3.6280 C.3   536  ZIR536      0.1851
     22  O4'      -39.6200  -12.1520   -3.1280 O.3   536  ZIR536     -0.3134
     23  C5'      -41.2570  -11.5040   -4.6460 C.3   536  ZIR536      0.2143
     24  O5'      -42.4940  -11.0380   -4.2760 O.3   536  ZIR536     -0.2176
@<TRIPOS>BOND
     1    18    17    1
     2     7     8    1
     3     7     5    2
     4    17    19    1
     5    17    10    1
     6     8     9    1
     7    23    24    1
     8    23    21    1
     9    19    21    1
    10    19    20    1
    11    11     6    1
    12    11    12    1
    13     5     6    1
    14     5     4    1
    15     9    10    1
    16     9     4    1
    17    13    12    1
    18    13    14    2
    19    21    22    1
    20    10    22    1
    21     6     1    2
    22    16    14    1
    23     4     3    2
    24    14    15    1
    25     1     2    1
    26     3     2    1
