@<TRIPOS>MOLECULE
3s1e_ZIP_A_1.pdb
 15 16 0 0 0
SMALL
GASTEIGER

@<TRIPOS>ATOM
      1  C14      -36.7500    4.5990   -2.2810 C.3   536  ZIP536      0.0262
      2  C13      -37.6890    4.6560   -3.4510 C.2   536  ZIP536     -0.0437
      3  C15      -38.3420    3.3700   -3.9540 C.3   536  ZIP536      0.0262
      4  C12      -37.9530    5.8620   -4.0260 C.2   536  ZIP536      0.0201
      5  C11      -37.4040    7.0760   -3.6250 C.3   536  ZIP536      0.2770
      6  N10      -37.8170    8.0700   -4.3800 N.pl3 536  ZIP536     -0.0246
      7  C6       -37.6980    9.3700   -4.2690 C.2   536  ZIP536      0.3858
      8  C5       -36.8320    9.9770   -3.3970 C.2   536  ZIP536      0.2255
      9  N9       -35.9310    9.5200   -2.5720 N.2   536  ZIP536     -0.2268
     10  C4       -36.8250   11.3350   -3.3290 C.1   536  ZIP536      0.0578
     11  N7       -35.9100   11.6390   -2.4510 N.2   536  ZIP536     -0.1914
     12  C8       -35.3670   10.5540   -2.0010 C.3   536  ZIP536      0.2618
     13  N3       -37.6530   12.0530   -4.0700 N.2   536  ZIP536     -0.1640
     14  C2       -38.4850   11.4420   -4.8750 C.3   536  ZIP536      0.4006
     15  N1       -38.5120   10.1540   -4.9690 N.2   536  ZIP536     -0.0304
@<TRIPOS>BOND
     1    15    14    1
     2    15     7    2
     3    14    13    1
     4     6     7    1
     5     6     5    1
     6     7     8    1
     7    13    10    2
     8     4     5    1
     9     4     2    2
    10     3     2    1
    11     2     1    1
    12     8    10    1
    13     8     9    2
    14    10    11    2
    15     9    12    1
    16    11    12    1
