@<TRIPOS>MOLECULE
3s1f_ZIP_A_1.pdb
 15 16 0 0 0
SMALL
GASTEIGER

@<TRIPOS>ATOM
      1  C14      -38.2910    2.3290   -3.7610 C.3   536  ZIP536      0.0265
      2  C13      -37.6650    3.5970   -3.2110 C.2   536  ZIP536     -0.0398
      3  C15      -36.9220    3.4700   -1.9070 C.3   536  ZIP536      0.0265
      4  C12      -37.7360    4.8040   -3.8800 C.2   536  ZIP536      0.0420
      5  C11      -37.1440    5.9630   -3.3900 C.2   536  ZIP536      0.2354
      6  N10      -37.1760    7.1490   -3.9680 N.2   536  ZIP536     -0.0289
      7  C6       -36.7330    8.2760   -3.3790 C.2   536  ZIP536      0.3999
      8  C5       -37.3750    9.4890   -3.5450 C.2   536  ZIP536      0.2281
      9  N9       -38.3660    9.9170   -4.2710 N.2   536  ZIP536     -0.2266
     10  C4       -36.8910   10.5670   -2.8840 C.1   536  ZIP536      0.0580
     11  N7       -37.6180   11.5740   -3.2160 N.2   536  ZIP536     -0.1914
     12  C8       -38.5140   11.1830   -4.0560 C.3   536  ZIP536      0.2618
     13  N3       -35.8650   10.4440   -2.0710 N.2   536  ZIP536     -0.1640
     14  C2       -35.3120    9.3090   -1.9000 C.3   536  ZIP536      0.4008
     15  N1       -35.7280    8.2700   -2.5350 N.2   536  ZIP536     -0.0283
@<TRIPOS>BOND
     1     9    12    1
     2     9     8    2
     3    12    11    1
     4     6     5    2
     5     6     7    1
     6     4     5    1
     7     4     2    2
     8     1     2    1
     9     8     7    1
    10     8    10    1
    11     7    15    2
    12    11    10    2
    13     2     3    1
    14    10    13    2
    15    15    14    1
    16    13    14    1
