@<TRIPOS>MOLECULE
3s1g_ITE_A_1.pdb
 16 18 0 0 0
SMALL
GASTEIGER

@<TRIPOS>ATOM
      1  N1        15.9290   16.7050   22.1700 N.2   501  ITE501     -0.2468
      2  N3        19.0480   18.0790   16.0260 N.pl3 501  ITE501     -0.1499
      3  C4        18.7570   17.7600   19.3990 C.2   501  ITE501      0.1723
      4  C5        18.6570   17.8790   17.2550 C.1   501  ITE501      0.2200
      5  C6        18.1380   17.8710   14.9000 C.3   501  ITE501      0.1504
      6  C7        17.4930   17.3930   18.9710 C.2   501  ITE501      0.1589
      7  C8        16.5030   17.0230   19.8840 C.3   501  ITE501      0.1088
      8  C10       16.1760   16.7050   23.4930 C.3   501  ITE501      0.2622
      9  C1        16.8410   17.0520   21.2440 C.2   501  ITE501      0.0741
     10  C2        18.1280   17.4320   21.6660 C.2   501  ITE501      0.0991
     11  C3        19.1250   17.8040   20.7470 C.2   501  ITE501      0.0482
     12  N2        19.4200   18.0390   18.2630 N.2   501  ITE501     -0.3247
     13  N4        17.4700   17.4840   17.6130 N.2   501  ITE501     -0.3284
     14  C9        18.3510   17.4180   23.0470 C.1   501  ITE501      0.1532
     15  O1        19.5830   17.7870   23.5410 O.2   501  ITE501     -0.2221
     16  N5        17.3960   17.0670   23.9420 N.2   501  ITE501     -0.1752
@<TRIPOS>BOND
     1     5     2    1
     2     2     4    1
     3     4    13    2
     4     4    12    2
     5    13     6    2
     6    12     3    2
     7     6     3    1
     8     6     7    1
     9     3    11    1
    10     7     9    1
    11    11    10    2
    12     9    10    1
    13     9     1    2
    14    10    14    1
    15     1     8    1
    16    14    15    2
    17    14    16    2
    18     8    16    1
