@<TRIPOS>MOLECULE
3s1h_56Z_A_1.pdb
 27 29 0 0 0
SMALL
GASTEIGER

@<TRIPOS>ATOM
      1  C1        96.2020   77.2120  -47.0020 C.ar  479  56Z479      0.1387
      2  N1        92.2610   81.9090  -51.3390 N.2   479  56Z479     -0.3601
      3  O1        86.2250   80.8410  -45.4210 O.2   479  56Z479     -0.1503
      4  S1        92.9860   80.7360  -49.1500 S.3   479  56Z479     -0.0310
      5  C2        97.2400   77.9420  -47.7770 C.ar  479  56Z479      0.0370
      6  N2        93.7920   81.0630  -52.9230 N.pl3 479  56Z479     -0.0924
      7  O2        86.9220   83.1470  -44.3330 O.2   479  56Z479     -0.1503
      8  S2        87.4330   81.7170  -44.8730 S.O2  479  56Z479      0.0935
      9  C3        96.8790   78.6870  -48.9880 C.ar  479  56Z479      0.0063
     10  N3        90.9060   82.5510  -49.5490 N.pl3 479  56Z479     -0.1779
     11  O3        95.6300   79.2820  -51.8560 O.2   479  56Z479     -0.2859
     12  C4        94.4470   77.9660  -48.6570 C.ar  479  56Z479      0.0063
     13  N4        88.1570   80.9180  -43.7310 N.3   479  56Z479      0.0392
     14  C5        94.7880   77.2320  -47.4650 C.ar  479  56Z479      0.0370
     15  O6        96.5340   76.5090  -45.8450 O.3   479  56Z479     -0.4714
     16  C7        95.6740   75.8150  -45.0650 C.3   479  56Z479      0.2525
     17  C10       95.4640   78.7110  -49.4420 C.ar  479  56Z479      0.0398
     18  C11       95.0130   79.4550  -50.6680 C.2   479  56Z479      0.2055
     19  C12       93.8380   80.4130  -50.5990 C.2   479  56Z479      0.1188
     20  C13       93.3150   81.1280  -51.6600 C.2   479  56Z479      0.2306
     21  C14       91.9600   81.8150  -50.0460 C.2   479  56Z479      0.2367
     22  C15       90.1390   82.3120  -48.4360 C.ar  479  56Z479      0.0737
     23  C16       90.3240   81.1300  -47.5020 C.ar  479  56Z479      0.0180
     24  C17       89.4840   80.9440  -46.3810 C.ar  479  56Z479      0.0213
     25  C18       88.4150   81.9190  -46.1240 C.ar  479  56Z479      0.1251
     26  C19       88.2260   83.0740  -47.0150 C.ar  479  56Z479      0.0213
     27  C20       89.0670   83.2720  -48.1470 C.ar  479  56Z479      0.0180
@<TRIPOS>BOND
     1     6    20    1
     2    11    18    1
     3    20     2    2
     4    20    19    1
     5     2    21    2
     6    18    19    2
     7    18    17    1
     8    19     4    1
     9    21    10    1
    10    21     4    1
    11    10    22    1
    12    17     9   ar
    13    17    12   ar
    14     9     5   ar
    15    12    14   ar
    16    22    27   ar
    17    22    23   ar
    18    27    26   ar
    19     5     1   ar
    20    23    24   ar
    21    14     1   ar
    22    26    25   ar
    23     1    15    1
    24    24    25   ar
    25    25     8    1
    26    15    16    1
    27     3     8    2
    28     8     7    2
    29     8    13    1
