@<TRIPOS>MOLECULE
3s1i_HEM_A_1.pdb
 43 50 0 0 0
SMALL
GASTEIGER

@<TRIPOS>ATOM
      1  CHA       25.5190   28.0140    0.2100 C.2   140  HEM140      0.0000
      2  CHB       21.9630   28.9260    3.3730 C.2   140  HEM140      0.0000
      3  CHC       23.6300   33.4130    3.9810 C.2   140  HEM140      0.0000
      4  CHD       26.2820   32.8410   -0.0240 C.2   140  HEM140      0.0000
      5  C1A       24.4480   27.8400    1.0580 C.2   140  HEM140      0.0000
      6  C2A       23.7690   26.5940    1.3390 C.2   140  HEM140      0.0000
      7  C3A       22.8010   26.8570    2.2160 C.2   140  HEM140      0.0000
      8  C4A       22.8220   28.2710    2.5180 C.2   140  HEM140      0.0000
      9  CMA       21.8010   25.8390    2.7960 C.3   140  HEM140      0.0000
     10  CAA       24.1020   25.2140    0.7410 C.3   140  HEM140      0.0000
     11  CBA       25.5580   24.8250    1.0090 C.3   140  HEM140      0.0000
     12  CGA       25.7750   24.4580    2.4580 C.2   140  HEM140      0.0000
     13  O1A       26.9210   24.6320    2.9640 O.co2 140  HEM140      0.0000
     14  O2A       24.8060   23.9960    3.1200 O.co2 140  HEM140      0.0000
     15  C1B       22.1220   30.2010    3.8600 C.ar  140  HEM140      0.0000
     16  C2B       21.4000   30.8130    4.9560 C.ar  140  HEM140      0.0000
     17  C3B       21.8580   32.0630    5.1000 C.ar  140  HEM140      0.0000
     18  C4B       22.9060   32.2580    4.1210 C.ar  140  HEM140      0.0000
     19  CMB       20.2770   30.1000    5.7570 C.3   140  HEM140      0.0000
     20  CAB       21.5100   33.1860    6.1020 C.2   140  HEM140      0.0000
     21  CBB       20.8290   32.9480    7.2280 C.2   140  HEM140      0.0000
     22  C1C       24.4880   33.6610    2.9380 C.2   140  HEM140      0.0000
     23  C2C       25.1600   34.9030    2.6680 C.2   140  HEM140      0.0000
     24  C3C       25.8590   34.7410    1.5550 C.2   140  HEM140      0.0000
     25  C4C       25.6840   33.3880    1.0900 C.2   140  HEM140      0.0000
     26  CMC       25.1010   36.2180    3.4780 C.3   140  HEM140      0.0000
     27  CAC       26.7330   35.8230    0.9180 C.2   140  HEM140      0.0000
     28  CBC       26.8430   35.8800   -0.4140 C.2   140  HEM140      0.0000
     29  C1D       26.4190   31.4920   -0.2730 C.ar  140  HEM140      0.0000
     30  C2D       27.3710   30.8900   -1.1810 C.ar  140  HEM140      0.0000
     31  C3D       27.1320   29.3910   -1.0810 C.ar  140  HEM140      0.0000
     32  C4D       26.0500   29.2260   -0.1460 C.ar  140  HEM140      0.0000
     33  CMD       28.4230   31.5830   -2.0600 C.3   140  HEM140      0.0000
     34  CAD       27.8410   28.2630   -1.8370 C.3   140  HEM140      0.0000
     35  CBD       27.2020   28.1020   -3.2140 C.3   140  HEM140      0.0000
     36  CGD       27.9130   26.9840   -3.9340 C.2   140  HEM140      0.0000
     37  O1D       27.5670   25.7960   -3.7270 O.co2 140  HEM140      0.0000
     38  O2D       28.8340   27.2860   -4.7290 O.co2 140  HEM140      0.0000
     39  NA        23.8560   28.8480    1.7890 N.2   140  HEM140      0.0000
     40  NB        23.0230   31.1110    3.3800 N.ar  140  HEM140      0.0000
     41  NC        24.8190   32.7450    1.9600 N.2   140  HEM140      0.0000
     42  ND        25.6810   30.4790    0.3190 N.ar  140  HEM140      0.0000
     43 FE         24.3460   30.7670    1.8580 Fe    140  HEM140      0.0000
@<TRIPOS>BOND
     1    38    36   ar
     2    36    37   ar
     3    36    35    1
     4    35    34    1
     5    33    30    1
     6    34    31    1
     7    30    31   ar
     8    30    29   ar
     9    31    32   ar
    10    28    27    2
    11    29     4    2
    12    29    42   ar
    13    32     1    2
    14    32    42   ar
    15     4    25    1
    16     1     5    1
    17    42    43    1
    18    10    11    1
    19    10     6    1
    20    27    24    1
    21    11    12    1
    22     5     6    1
    23     5    39    2
    24    25    24    1
    25    25    41    2
    26     6     7    2
    27    24    23    2
    28    39    43    1
    29    39     8    1
    30    43    41    1
    31    43    40    1
    32    41    22    1
    33     7     8    1
    34     7     9    1
    35    12    13   ar
    36    12    14   ar
    37     8     2    2
    38    23    22    1
    39    23    26    1
    40    22     3    2
    41     2    15    1
    42    40    15   ar
    43    40    18   ar
    44    15    16   ar
    45     3    18    1
    46    18    17   ar
    47    16    17   ar
    48    16    19    1
    49    17    20    1
    50    20    21    2
