@<TRIPOS>MOLECULE
3s1j_HEM_A_1.pdb
 43 50 0 0 0
SMALL
GASTEIGER

@<TRIPOS>ATOM
      1  CHA       25.6870   28.0530    0.2790 C.2   140  HEM140      0.0000
      2  CHB       22.0220   28.9100    3.3350 C.2   140  HEM140      0.0000
      3  CHC       23.4650   33.5030    3.8830 C.2   140  HEM140      0.0000
      4  CHD       26.2460   32.8780   -0.0370 C.2   140  HEM140      0.0000
      5  C1A       24.6050   27.8700    1.1140 C.2   140  HEM140      0.0000
      6  C2A       23.9400   26.6170    1.3870 C.2   140  HEM140      0.0000
      7  C3A       22.9450   26.8710    2.2250 C.2   140  HEM140      0.0000
      8  C4A       22.9310   28.2780    2.5080 C.2   140  HEM140      0.0000
      9  CMA       21.9530   25.8490    2.8100 C.3   140  HEM140      0.0000
     10  CAA       24.3010   25.2230    0.8360 C.3   140  HEM140      0.0000
     11  CBA       25.7630   24.8790    1.1070 C.3   140  HEM140      0.0000
     12  CGA       25.9650   24.5030    2.5530 C.2   140  HEM140      0.0000
     13  O1A       27.0870   24.7290    3.0810 O.co2 140  HEM140      0.0000
     14  O2A       25.0080   23.9880    3.1880 O.co2 140  HEM140      0.0000
     15  C1B       22.1050   30.2040    3.7870 C.ar  140  HEM140      0.0000
     16  C2B       21.3000   30.8220    4.8270 C.ar  140  HEM140      0.0000
     17  C3B       21.7110   32.0900    4.9680 C.ar  140  HEM140      0.0000
     18  C4B       22.7840   32.3130    4.0240 C.ar  140  HEM140      0.0000
     19  CMB       20.1820   30.0800    5.6040 C.3   140  HEM140      0.0000
     20  CAB       21.2490   33.2280    5.9110 C.2   140  HEM140      0.0000
     21  CBB       20.2640   33.0550    6.8000 C.2   140  HEM140      0.0000
     22  C1C       24.3520   33.7410    2.8480 C.2   140  HEM140      0.0000
     23  C2C       24.9920   34.9940    2.5340 C.2   140  HEM140      0.0000
     24  C3C       25.7270   34.8190    1.4460 C.2   140  HEM140      0.0000
     25  C4C       25.5980   33.4390    1.0390 C.2   140  HEM140      0.0000
     26  CMC       24.8720   36.3470    3.2680 C.3   140  HEM140      0.0000
     27  CAC       26.5660   35.9330    0.7960 C.2   140  HEM140      0.0000
     28  CBC       26.8010   35.9910   -0.5260 C.2   140  HEM140      0.0000
     29  C1D       26.4270   31.5440   -0.2870 C.ar  140  HEM140      0.0000
     30  C2D       27.3620   30.9800   -1.2360 C.ar  140  HEM140      0.0000
     31  C3D       27.1790   29.4660   -1.1250 C.ar  140  HEM140      0.0000
     32  C4D       26.1550   29.2700   -0.1320 C.ar  140  HEM140      0.0000
     33  CMD       28.3330   31.7450   -2.1640 C.3   140  HEM140      0.0000
     34  CAD       27.8880   28.3470   -1.9010 C.3   140  HEM140      0.0000
     35  CBD       27.4260   28.3800   -3.3570 C.3   140  HEM140      0.0000
     36  CGD       28.1510   27.2930   -4.1180 C.2   140  HEM140      0.0000
     37  O1D       27.9010   26.0900   -3.8550 O.co2 140  HEM140      0.0000
     38  O2D       28.9570   27.6410   -5.0110 O.co2 140  HEM140      0.0000
     39  NA        23.9680   28.8840    1.8070 N.2   140  HEM140      0.0000
     40  NB        22.9800   31.1490    3.3220 N.ar  140  HEM140      0.0000
     41  NC        24.7270   32.7840    1.9120 N.2   140  HEM140      0.0000
     42  ND        25.7660   30.5070    0.3310 N.ar  140  HEM140      0.0000
     43 FE         24.3430   30.8460    1.7780 Fe    140  HEM140      0.0000
@<TRIPOS>BOND
     1    38    36   ar
     2    36    37   ar
     3    36    35    1
     4    35    34    1
     5    33    30    1
     6    34    31    1
     7    30    31   ar
     8    30    29   ar
     9    31    32   ar
    10    28    27    2
    11    29     4    2
    12    29    42   ar
    13    32     1    2
    14    32    42   ar
    15     4    25    1
    16     1     5    1
    17    42    43    1
    18    27    24    1
    19    10    11    1
    20    10     6    1
    21    25    24    1
    22    25    41    2
    23    11    12    1
    24     5     6    1
    25     5    39    2
    26     6     7    2
    27    24    23    2
    28    43    39    1
    29    43    41    1
    30    43    40    1
    31    39     8    1
    32    41    22    1
    33     7     8    1
    34     7     9    1
    35     8     2    2
    36    23    22    1
    37    23    26    1
    38    12    13   ar
    39    12    14   ar
    40    22     3    2
    41    40    15   ar
    42    40    18   ar
    43     2    15    1
    44    15    16   ar
    45     3    18    1
    46    18    17   ar
    47    16    17   ar
    48    16    19    1
    49    17    20    1
    50    20    21    2
