@<TRIPOS>MOLECULE
3s1q_ATP_A_1.pdb
 31 33 0 0 0
SMALL
GASTEIGER

@<TRIPOS>ATOM
      1  PG         0.1730  -40.8710   50.6270 P.3   1736  ATP1736     0.5373
      2  O1G       -0.8340  -41.1150   51.7150 O.3   1736  ATP1736    -0.1143
      3  O2G       -0.0200  -39.4870   49.9970 O.3   1736  ATP1736    -0.1143
      4  O3G        0.0920  -41.9420   49.5410 O.2   1736  ATP1736    -0.2221
      5  PB         2.6250  -42.0280   51.3410 P.3   1736  ATP1736     0.2277
      6  O1B        3.6090  -41.8170   52.5670 O.3   1736  ATP1736    -0.4368
      7  O2B        1.9420  -43.4480   51.4120 O.2   1736  ATP1736    -0.5168
      8  O3B        1.5110  -40.9280   51.4350 O.3   1736  ATP1736    -0.2258
      9  PA         3.8210  -40.7910   48.8160 P.3   1736  ATP1736     0.2189
     10  O1A        2.9160  -39.5500   48.4940 O.3   1736  ATP1736    -0.4371
     11  O2A        3.9400  -41.5960   47.5160 O.2   1736  ATP1736    -0.5170
     12  O3A        3.2800  -41.9270   49.8520 O.3   1736  ATP1736    -0.2700
     13  O5'        5.2860  -40.3620   49.3470 O.3   1736  ATP1736    -0.3112
     14  C5'        6.2970  -40.2790   48.3950 C.3   1736  ATP1736     0.1813
     15  C4'        7.0420  -41.5880   48.3000 C.3   1736  ATP1736     0.1821
     16  O4'        8.0060  -41.4050   47.2620 O.3   1736  ATP1736    -0.3135
     17  C3'        7.8440  -41.9290   49.5300 C.3   1736  ATP1736     0.2184
     18  O3'        7.2380  -42.7800   50.5240 O.3   1736  ATP1736    -0.2174
     19  C2'        9.2830  -42.1670   48.9950 C.3   1736  ATP1736     0.2570
     20  O2'        9.6020  -43.4850   48.5460 O.3   1736  ATP1736    -0.2130
     21  C1'        9.3150  -41.2440   47.8020 C.3   1736  ATP1736     0.3186
     22  N9         9.6580  -39.8590   48.1470 N.pl3 1736  ATP1736    -0.1439
     23  C8         8.8820  -38.7660   48.5230 C.3   1736  ATP1736     0.3377
     24  N7         9.5440  -37.6520   48.7900 N.2   1736  ATP1736    -0.2095
     25  C5        10.8470  -38.0320   48.5730 C.2   1736  ATP1736     0.2526
     26  C6        12.0750  -37.3300   48.6850 C.2   1736  ATP1736     0.4393
     27  N6        12.1320  -36.0100   49.0720 N.pl3 1736  ATP1736     0.2180
     28  N1        13.2540  -38.0020   48.4000 N.2   1736  ATP1736     0.0021
     29  C2        13.2090  -39.3280   48.0280 C.3   1736  ATP1736     0.5254
     30  N3        12.0810  -40.0980   47.8900 N.2   1736  ATP1736    -0.0055
     31  C4        10.9430  -39.3960   48.1780 C.2   1736  ATP1736     0.3518
@<TRIPOS>BOND
     1    16    21    1
     2    16    15    1
     3    11     9    2
     4    21    22    1
     5    21    19    1
     6    30    29    1
     7    30    31    2
     8    29    28    1
     9    22    31    1
    10    22    23    1
    11    31    25    1
    12    15    14    1
    13    15    17    1
    14    14    13    1
    15    28    26    2
    16    10     9    1
    17    23    24    1
    18    20    19    1
    19    25    26    1
    20    25    24    2
    21    26    27    1
    22     9    13    1
    23     9    12    1
    24    19    17    1
    25    17    18    1
    26     4     1    2
    27    12     5    1
    28     3     1    1
    29     1     8    1
    30     1     2    1
    31     5     7    2
    32     5     8    1
    33     5     6    1
