@<TRIPOS>MOLECULE
3s1r_GTP_R_1.pdb
 32 34 0 0 0
SMALL
GASTEIGER

@<TRIPOS>ATOM
      1  PG         4.8420  -36.9700   50.3610 P.3   100  GTP100      0.5373
      2  O1G        6.0860  -37.5800   50.8900 O.3   100  GTP100     -0.1143
      3  O2G        5.2520  -35.6210   49.5950 O.2   100  GTP100     -0.2221
      4  O3G        3.8430  -36.6380   51.5720 O.3   100  GTP100     -0.1143
      5  O3B        4.0610  -37.9000   49.2600 O.3   100  GTP100     -0.2258
      6  PB         4.1550  -39.5340   49.4250 P.3   100  GTP100      0.2277
      7  O1B        3.5500  -40.2010   48.2330 O.2   100  GTP100     -0.5168
      8  O2B        5.7250  -39.9730   49.4440 O.3   100  GTP100     -0.4368
      9  O3A        3.4100  -40.0290   50.8160 O.3   100  GTP100     -0.2700
     10  PA         1.7730  -40.2750   50.8510 P.3   100  GTP100      0.2189
     11  O1A        1.2770  -40.8860   49.5860 O.2   100  GTP100     -0.5170
     12  O2A        0.9830  -38.8830   51.1080 O.3   100  GTP100     -0.4371
     13  O5'        1.4490  -41.3140   52.0690 O.3   100  GTP100     -0.3112
     14  C5'        2.1660  -40.9140   53.2550 C.3   100  GTP100      0.1813
     15  C4'        3.2280  -41.9330   53.7180 C.3   100  GTP100      0.1799
     16  O4'        2.6200  -42.9410   54.5540 O.3   100  GTP100     -0.3326
     17  C3'        3.9550  -42.6880   52.5660 C.3   100  GTP100      0.2158
     18  O3'        5.3290  -42.9310   52.9150 O.3   100  GTP100     -0.2175
     19  C2'        3.1390  -44.0020   52.4730 C.3   100  GTP100      0.2310
     20  O2'        3.8860  -45.0630   51.8570 O.3   100  GTP100     -0.2158
     21  C1'        2.9510  -44.2280   53.9770 C.3   100  GTP100      0.2293
     22  N9         1.9730  -45.2360   54.3430 N.pl3 100  GTP100     -0.2354
     23  C8         0.6470  -45.0550   54.5570 C.3   100  GTP100      0.2246
     24  N7         0.1030  -46.1720   54.9200 N.2   100  GTP100     -0.2322
     25  C5         1.0450  -47.1330   54.9840 C.2   100  GTP100      0.2182
     26  C6         1.0550  -48.5250   55.3190 C.1   100  GTP100      0.2372
     27  O6         0.0400  -49.1020   55.6490 O.2   100  GTP100     -0.2069
     28  N1         2.2450  -49.2010   55.2690 N.2   100  GTP100     -0.2485
     29  C2         3.4050  -48.5480   54.9020 C.1   100  GTP100      0.2531
     30  N2         4.5800  -49.2460   54.8570 N.pl3 100  GTP100     -0.0226
     31  N3         3.4050  -47.2530   54.5890 N.2   100  GTP100     -0.3074
     32  C4         2.2650  -46.5270   54.6190 C.2   100  GTP100      0.2300
@<TRIPOS>BOND
     1     7     6    2
     2     5     6    1
     3     5     1    1
     4     6     8    1
     5     6     9    1
     6    11    10    2
     7     3     1    2
     8     1     2    1
     9     1     4    1
    10     9    10    1
    11    10    12    1
    12    10    13    1
    13    20    19    1
    14    13    14    1
    15    19    17    1
    16    19    21    1
    17    17    18    1
    18    17    15    1
    19    14    15    1
    20    15    16    1
    21    21    22    1
    22    21    16    1
    23    22    23    1
    24    22    32    1
    25    23    24    1
    26    31    32    2
    27    31    29    2
    28    32    25    1
    29    30    29    1
    30    29    28    2
    31    24    25    2
    32    25    26    1
    33    28    26    2
    34    26    27    2
