@<TRIPOS>MOLECULE
3s1u_E4P_A_1.pdb
 12 11 0 0 0
SMALL
GASTEIGER

@<TRIPOS>ATOM
      1  C1        12.2150  -62.9590   -1.3240 C.2   224  E4P224      0.2427
      2  O1        11.8180  -62.1080   -2.1040 O.2   224  E4P224     -0.2854
      3  C2        13.6150  -62.8700   -0.7610 C.3   224  E4P224      0.2485
      4  O2        14.5520  -63.2970   -1.7600 O.3   224  E4P224     -0.2118
      5  C3        13.7560  -63.7450    0.4860 C.3   224  E4P224      0.2197
      6  O3        12.6440  -63.5320    1.3730 O.3   224  E4P224     -0.2172
      7  C4        15.0770  -63.4380    1.1920 C.3   224  E4P224      0.1896
      8  O4        15.2060  -64.1950    2.3940 O.3   224  E4P224     -0.2674
      9  P         16.5020  -64.0440    3.3440 P.3   224  E4P224      0.5327
     10  O1P       17.6160  -64.6650    2.5350 O.2   224  E4P224     -0.2224
     11  O2P       16.6660  -62.5630    3.5610 O.3   224  E4P224     -0.1145
     12  O3P       16.1170  -64.8000    4.5950 O.3   224  E4P224     -0.1145
@<TRIPOS>BOND
     1     2     1    2
     2     4     3    1
     3     1     3    1
     4     3     5    1
     5     5     7    1
     6     5     6    1
     7     7     8    1
     8     8     9    1
     9    10     9    2
    10     9    11    1
    11     9    12    1
