@<TRIPOS>MOLECULE
3s1v_F6R_A_1.pdb
 15 14 0 0 0
SMALL
GASTEIGER

@<TRIPOS>ATOM
      1  C1        11.4300  -60.7400   -2.2750 C.3   226  F6R226      0.1848
      2  C2        12.1560  -62.0450   -2.5260 C.3   226  F6R226      0.0711
      3  C3        12.3780  -63.0420   -1.4070 C.3   226  F6R226      0.1874
      4  C4        13.5160  -62.5480   -0.5300 C.3   226  F6R226      0.2148
      5  C5        13.6610  -63.3730    0.7460 C.3   226  F6R226      0.2146
      6  C6        14.9040  -62.9280    1.5210 C.3   226  F6R226      0.1892
      7  O1        10.0120  -61.0200   -2.1920 O.3   226  F6R226     -0.2203
      8  O3        12.6740  -64.3630   -1.9330 O.3   226  F6R226     -0.2202
      9  O4        14.7480  -62.5840   -1.2680 O.3   226  F6R226     -0.2176
     10  O5        12.4780  -63.2350    1.5540 O.3   226  F6R226     -0.2176
     11  O6        15.0440  -63.6730    2.7360 O.3   226  F6R226     -0.2674
     12  P         16.4740  -63.9830    3.4230 P.3   226  F6R226      0.5327
     13  O1P       17.3800  -64.1920    2.2330 O.2   226  F6R226     -0.2224
     14  O2P       16.2100  -65.1770    4.3010 O.3   226  F6R226     -0.1145
     15  O3P       16.8270  -62.7980    4.2930 O.3   226  F6R226     -0.1145
@<TRIPOS>BOND
     1     2     1    1
     2     2     3    1
     3     1     7    1
     4     8     3    1
     5     3     4    1
     6     9     4    1
     7     4     5    1
     8     5     6    1
     9     5    10    1
    10     6    11    1
    11    13    12    2
    12    11    12    1
    13    12    15    1
    14    12    14    1
