@<TRIPOS>MOLECULE
3s1w_FLC_A_1.pdb
 13 12 0 0 0
SMALL
GASTEIGER

@<TRIPOS>ATOM
      1  CAC       17.0870  -65.2820    5.4760 C.2   225  FLC225      0.3680
      2  CA        16.3400  -65.3400    4.1590 C.3   225  FLC225      0.1560
      3  CB        16.1320  -63.9540    3.5470 C.3   225  FLC225      0.2402
      4  CBC       15.9150  -62.9660    4.6480 C.2   225  FLC225      0.3927
      5  CG        14.9330  -63.9770    2.5990 C.3   225  FLC225      0.1560
      6  CGC       14.4560  -62.5810    2.2870 C.2   225  FLC225      0.3680
      7  OA1       16.6680  -65.9700    6.4370 O.co2 225  FLC225     -0.2455
      8  OA2       18.1040  -64.5630    5.5650 O.co2 225  FLC225     -0.2455
      9  OB1       14.9310  -63.1560    5.3910 O.co2 225  FLC225     -0.2429
     10  OB2       16.7420  -62.0250    4.7600 O.co2 225  FLC225     -0.2429
     11  OG1       15.2660  -61.6440    2.4360 O.co2 225  FLC225     -0.2455
     12  OG2       13.2750  -62.4120    1.8890 O.co2 225  FLC225     -0.2455
     13  OHB       17.2950  -63.5140    2.8320 O.3   225  FLC225     -0.2129
@<TRIPOS>BOND
     1    12     6   ar
     2     6    11   ar
     3     6     5    1
     4     5     3    1
     5    13     3    1
     6     3     2    1
     7     3     4    1
     8     2     1    1
     9     4    10   ar
    10     4     9   ar
    11     1     8   ar
    12     1     7   ar
