@<TRIPOS>MOLECULE
3s1x_I22_A_1.pdb
 17 16 0 0 0
SMALL
GASTEIGER

@<TRIPOS>ATOM
      1  O8        18.0200  -63.4900    5.1620 O.3   224  I22224     -0.1145
      2  P1        16.8030  -64.2750    4.7370 P.3   224  I22224      0.5327
      3  O9        17.1030  -65.7530    4.4950 O.2   224  I22224     -0.2224
      4  O10       15.5740  -64.1270    5.6110 O.3   224  I22224     -0.1145
      5  O7        16.4830  -63.6430    3.2940 O.3   224  I22224     -0.2674
      6  C7        15.3440  -64.0820    2.5610 C.3   224  I22224      0.1892
      7  C6        15.0960  -63.1350    1.3870 C.3   224  I22224      0.2147
      8  O6        16.2820  -63.0730    0.5830 O.3   224  I22224     -0.2176
      9  C5        13.8370  -63.5130    0.5880 C.3   224  I22224      0.2173
     10  O5        12.7280  -63.3900    1.5070 O.3   224  I22224     -0.2175
     11  C4        13.5730  -62.6490   -0.6560 C.3   224  I22224      0.2149
     12  O4        14.7760  -62.5450   -1.4480 O.3   224  I22224     -0.2176
     13  C3        12.4470  -63.2220   -1.5140 C.3   224  I22224      0.1874
     14  O3        12.8610  -64.4990   -2.0460 O.3   224  I22224     -0.2202
     15  C2        12.0600  -62.3030   -2.6460 C.3   224  I22224      0.0711
     16  C1        11.4350  -60.9810   -2.3220 C.3   224  I22224      0.1848
     17  O1        12.4880  -60.0670   -2.0320 O.3   224  I22224     -0.2203
@<TRIPOS>BOND
     1    15    16    1
     2    15    13    1
     3    16    17    1
     4    14    13    1
     5    13    11    1
     6    12    11    1
     7    11     9    1
     8     8     7    1
     9     9     7    1
    10     9    10    1
    11     7     6    1
    12     6     5    1
    13     5     2    1
    14     3     2    2
    15     2     1    1
    16     2     4    1
