@<TRIPOS>MOLECULE
3s1y_S1Y_A_1.pdb
 25 26 0 0 0
SMALL
GASTEIGER

@<TRIPOS>ATOM
      1  S1         1.3230    9.9260   17.7920 S.3   398  S1Y398     -0.1290
      2  O2         1.0680   10.3550   16.5220 O.3   398  S1Y398     -0.2919
      3  O3         0.5160   10.8830   18.7680 O.3   398  S1Y398     -0.2919
      4  O4         1.0150    8.6060   17.9310 O.3   398  S1Y398     -0.2919
      5  N5         2.9270    9.9870   18.1360 N.3   398  S1Y398     -0.1187
      6  C6         3.3320   11.4040   18.4230 C.3   398  S1Y398      0.1214
      7  C7         3.2240   12.2920   17.1610 C.3   398  S1Y398      0.0429
      8  C8         4.3540   13.2730   17.3170 C.3   398  S1Y398      0.0970
      9  N9         5.3330   12.5400   18.0720 N.am  398  S1Y398     -0.2559
     10  C10        4.8290   11.3170   18.6110 C.3   398  S1Y398      0.1592
     11  C11        5.3100   10.1330   17.8110 C.2   398  S1Y398      0.2284
     12  O12        5.5140   10.1860   16.6060 O.2   398  S1Y398     -0.2864
     13  C13        6.6620   12.7290   18.1000 C.2   398  S1Y398      0.3235
     14  O14        7.4170   11.9350   18.5590 O.2   398  S1Y398     -0.2508
     15  N15        7.1580   14.0150   17.7630 N.am  398  S1Y398     -0.1902
     16  C16        8.6080   14.2400   17.7760 C.3   398  S1Y398      0.0983
     17  C17        8.9260   14.4510   16.2960 C.3   398  S1Y398      0.0232
     18  C18       10.4240   14.7030   16.1750 C.3   398  S1Y398      0.0191
     19  C19       10.7790   16.1650   16.3360 C.3   398  S1Y398      0.0722
     20  N20       10.4860   16.8010   17.6240 N.3   398  S1Y398     -0.2714
     21  C21       12.0100   17.1840   17.8160 C.3   398  S1Y398      0.0928
     22  C22       13.0000   16.2310   17.0070 C.3   398  S1Y398      0.1266
     23  N23       14.2530   16.0970   17.8280 N.3   398  S1Y398     -0.1299
     24  C24       10.2290   15.8840   18.7690 C.3   398  S1Y398      0.0739
     25  C25        8.7570   15.4550   18.6750 C.3   398  S1Y398      0.0390
@<TRIPOS>BOND
     1    18    17    1
     2    18    19    1
     3    17    16    1
     4    19    20    1
     5     2     1    1
     6    12    11    2
     7    22    21    1
     8    22    23    1
     9     7     8    1
    10     7     6    1
    11     8     9    1
    12    20    21    1
    13    20    24    1
    14    15    16    1
    15    15    13   am
    16    16    25    1
    17     1     4    1
    18     1     5    1
    19     1     3    1
    20    11    10    1
    21     9    13   am
    22     9    10    1
    23    13    14    2
    24     5     6    1
    25     6    10    1
    26    25    24    1
