@<TRIPOS>MOLECULE
3s20_CER_A_1.pdb
 16 15 0 0 0
SMALL
GASTEIGER

@<TRIPOS>ATOM
      1  C1        -4.0940   11.0780   -3.4630 C.2     1  CER1        0.2638
      2  N1        -2.8780   11.8000   -3.3330 N.am    1  CER1       -0.0877
      3  O1        -1.0530   10.0090   -2.4390 O.2     1  CER1       -0.2934
      4  C2        -4.0620    9.6000   -3.6400 C.3     1  CER1        0.1290
      5  O2        -5.1430   11.6890   -3.4160 O.2     1  CER1       -0.2715
      6  C3        -3.0600    8.8340   -2.8420 C.3     1  CER1        0.2178
      7  O3        -3.7500    8.0380   -1.9660 O.3     1  CER1       -0.2146
      8  C4        -2.1820    9.7430   -2.0450 C.2     1  CER1        0.1815
      9  C5        -2.6840   10.3380   -0.7680 C.3     1  CER1        0.0718
     10  C6        -2.4990   11.8070   -0.5640 C.3     1  CER1        0.0335
     11  C7        -1.7490   12.0890    0.6920 C.2     1  CER1       -0.0299
     12  C8        -2.3680   12.0150    1.9040 C.2     1  CER1       -0.0260
     13  C9        -1.6540   12.4840    3.1270 C.3     1  CER1        0.0513
     14  C10       -2.1080   11.6800    4.2970 C.2     1  CER1       -0.0260
     15  C11       -1.9820   12.1680    5.5650 C.2     1  CER1       -0.0300
     16  C12       -2.7200   11.5120    6.6860 C.3     1  CER1        0.0304
@<TRIPOS>BOND
     1     4     1    1
     2     4     6    1
     3     1     5    2
     4     1     2   am
     5     6     8    1
     6     6     7    1
     7     3     8    2
     8     8     9    1
     9     9    10    1
    10    10    11    1
    11    11    12    2
    12    12    13    1
    13    13    14    1
    14    14    15    2
    15    15    16    1
