@<TRIPOS>MOLECULE
3s21_CER_A_1.pdb
 16 15 0 0 0
SMALL
GASTEIGER

@<TRIPOS>ATOM
      1  C1        52.7870   -6.6220   -1.0920 C.2   359  CER359      0.2638
      2  N1        53.5480   -7.8100   -0.9500 N.am  359  CER359     -0.0877
      3  O1        55.6380   -7.8410   -2.2090 O.2   359  CER359     -0.2934
      4  C2        53.0950   -5.6760   -2.1960 C.3   359  CER359      0.1290
      5  O2        51.8910   -6.4300   -0.3050 O.2   359  CER359     -0.2715
      6  C3        54.3880   -5.9560   -2.8930 C.3   359  CER359      0.2178
      7  O3        54.2860   -5.5370   -4.1900 O.3   359  CER359     -0.2146
      8  C4        54.6990   -7.4190   -2.8910 C.2   359  CER359      0.1815
      9  C5        53.8570   -8.3450   -3.7170 C.3   359  CER359      0.0718
     10  C6        53.6880   -9.7700   -3.2940 C.3   359  CER359      0.0335
     11  C7        53.5390  -10.6570   -4.4970 C.2   359  CER359     -0.0299
     12  C8        52.3830  -11.3430   -4.7770 C.2   359  CER359     -0.0260
     13  C9        52.3010  -12.2280   -5.9830 C.3   359  CER359      0.0513
     14  C10       51.2850  -11.7120   -6.9510 C.2   359  CER359     -0.0260
     15  C11       50.8440  -12.4820   -7.9930 C.2   359  CER359     -0.0300
     16  C12       49.9570  -11.8910   -9.0460 C.3   359  CER359      0.0304
@<TRIPOS>BOND
     1    16    15    1
     2    15    14    2
     3    14    13    1
     4    13    12    1
     5    12    11    2
     6    11    10    1
     7     7     6    1
     8     9    10    1
     9     9     8    1
    10     6     8    1
    11     6     4    1
    12     8     3    2
    13     4     1    1
    14     1     2   am
    15     1     5    2
