@<TRIPOS>MOLECULE
3s22_3S2_A_1.pdb
 21 21 0 0 0
SMALL
GASTEIGER

@<TRIPOS>ATOM
      1  C4        10.4060   15.6940   19.1450 C.3     1  3S21        0.0206
      2  C5         9.5280   15.6510   17.9170 C.3     1  3S21        0.0250
      3  C6        10.4900   17.0890   19.7110 C.3     1  3S21        0.0888
      4  C7         9.0540   14.2360   17.6500 C.3     1  3S21        0.1168
      5  C8         5.7300   10.4940   18.5290 C.2     1  3S21        0.2284
      6  C10        5.2640   11.6650   19.3410 C.3     1  3S21        0.1592
      7  N12       10.8330   17.0330   21.1260 N.3     1  3S21       -0.2165
      8  C1        11.6430   18.1970   21.4420 C.3     1  3S21        0.1075
      9  C2         3.6760   12.6750   17.9000 C.3     1  3S21        0.0429
     10  C3         4.8790   13.6060   17.9840 C.3     1  3S21        0.0970
     11  C9         3.7830   11.8000   19.1350 C.3     1  3S21        0.1214
     12  C11        7.2210   12.9580   18.6160 C.2     1  3S21        0.3235
     13  N13        7.6510   14.0960   17.9690 N.am    1  3S21       -0.1884
     14  N14        3.2600   10.4360   18.9210 N.3     1  3S21       -0.1187
     15  N15        5.8500   12.8280   18.7230 N.am    1  3S21       -0.2559
     16  O16        1.6370   10.4370   16.8230 O.3     1  3S21       -0.2919
     17  O17        5.6950   10.4130   17.3120 O.2     1  3S21       -0.2864
     18  O18        7.9910   12.1180   19.0790 O.2     1  3S21       -0.2508
     19  O19        0.8610   11.2740   19.1140 O.3     1  3S21       -0.2919
     20  O20        1.2720    8.8690   18.6540 O.3     1  3S21       -0.2919
     21  S21        1.6550   10.2570   18.4340 S.3     1  3S21       -0.1290
@<TRIPOS>BOND
     1    16    21    1
     2    17     5    2
     3     4     2    1
     4     4    13    1
     5     9    10    1
     6     9    11    1
     7     2     1    1
     8    13    12   am
     9    10    15    1
    10    21    20    1
    11    21    14    1
    12    21    19    1
    13     5     6    1
    14    12    15   am
    15    12    18    2
    16    15     6    1
    17    14    11    1
    18    11     6    1
    19     1     3    1
    20     3     7    1
    21     7     8    1
