@<TRIPOS>MOLECULE
3s23_CER_A_1.pdb
 16 15 0 0 0
SMALL
GASTEIGER

@<TRIPOS>ATOM
      1  C1        52.4750   -6.6340   -1.0650 C.2   359  CER359      0.2638
      2  N1        53.1420   -7.8810   -0.9270 N.am  359  CER359     -0.0877
      3  O1        55.2340   -7.9930   -2.2270 O.2   359  CER359     -0.2934
      4  C2        52.8670   -5.6890   -2.1360 C.3   359  CER359      0.1290
      5  O2        51.5800   -6.3700   -0.2930 O.2   359  CER359     -0.2715
      6  C3        54.1350   -6.0190   -2.8530 C.3   359  CER359      0.2178
      7  O3        54.0610   -5.5000   -4.1160 O.3   359  CER359     -0.2146
      8  C4        54.3330   -7.5020   -2.8990 C.2   359  CER359      0.1815
      9  C5        53.4320   -8.3750   -3.7260 C.3   359  CER359      0.0718
     10  C6        53.2570   -9.8230   -3.3750 C.3   359  CER359      0.0335
     11  C7        53.1480  -10.6460   -4.6240 C.2   359  CER359     -0.0299
     12  C8        52.1000  -11.5060   -4.8240 C.2   359  CER359     -0.0260
     13  C9        51.9800  -12.2830   -6.0950 C.3   359  CER359      0.0513
     14  C10       50.9250  -11.7060   -6.9820 C.2   359  CER359     -0.0260
     15  C11       50.3850  -12.4670   -7.9860 C.2   359  CER359     -0.0300
     16  C12       49.6220  -11.8260   -9.1020 C.3   359  CER359      0.0304
@<TRIPOS>BOND
     1    16    15    1
     2    15    14    2
     3    14    13    1
     4    13    12    1
     5    12    11    2
     6    11    10    1
     7     7     6    1
     8     9    10    1
     9     9     8    1
    10     8     6    1
    11     8     3    2
    12     6     4    1
    13     4     1    1
    14     1     2   am
    15     1     5    2
