@<TRIPOS>MOLECULE
3s27_UDP_A_1.pdb
 36 37 0 0 0
SMALL
GASTEIGER

@<TRIPOS>ATOM
      1  N1      -145.6460 -118.9530   50.9470 N.am  901  UDP901     -0.2514
      2  C2      -146.5400 -118.6070   49.9710 C.2   901  UDP901      0.3108
      3  N3      -147.7240 -119.2880   49.8300 N.am  901  UDP901     -0.2397
      4  C4      -147.9850 -120.3380   50.6770 C.2   901  UDP901      0.2261
      5  C5      -147.0660 -120.6960   51.6670 C.3   901  UDP901      0.0692
      6  C6      -145.8820 -119.9830   51.8040 C.3   901  UDP901      0.0612
      7  O2      -146.2790 -117.6700   49.2310 O.2   901  UDP901     -0.2521
      8  O4      -149.0420 -120.9450   50.5350 O.2   901  UDP901     -0.2750
      9  C1'     -144.4150 -118.1830   51.0430 C.3   901  UDP901      0.1576
     10  C2'     -144.5300 -117.1210   52.1130 C.3   901  UDP901      0.1263
     11  O2'     -145.1070 -115.9360   51.6260 O.3   901  UDP901     -0.3849
     12  C3'     -143.0850 -116.9620   52.4860 C.3   901  UDP901      0.1133
     13  C4'     -142.5510 -118.3750   52.3650 C.3   901  UDP901      0.1130
     14  O4'     -143.3720 -119.0340   51.4330 O.3   901  UDP901     -0.3477
     15  O3'     -142.4390 -116.1310   51.5580 O.3   901  UDP901     -0.3864
     16  C5'     -142.5810 -119.1130   53.6970 C.3   901  UDP901      0.0836
     17  O5'     -141.2780 -119.0140   54.2100 O.3   901  UDP901     -0.3245
     18  PA      -140.9430 -118.9250   55.7730 P.3   901  UDP901      0.2224
     19  O1A     -141.8660 -117.9810   56.4410 O.3   901  UDP901     -0.4370
     20  O2A     -139.5300 -118.5130   55.9390 O.2   901  UDP901     -0.5170
     21  O3A     -141.2020 -120.4320   56.2720 O.3   901  UDP901     -0.2261
     22  PB      -140.4450 -121.6740   55.5740 P.3   901  UDP901      0.5373
     23  O1B     -141.2260 -122.0960   54.3940 O.2   901  UDP901     -0.2221
     24  O2B     -140.3620 -122.7730   56.5610 O.3   901  UDP901     -0.1143
     25  O3B     -139.0910 -121.2630   55.1230 O.3   901  UDP901     -0.1143
     26  HN3     -148.4860 -118.8890   49.2460 H     901  UDP901      0.1591
     27  H5      -147.2980 -121.5040   52.3600 H     901  UDP901      0.0421
     28  H6      -145.0680 -120.3880   52.4060 H     901  UDP901      0.0528
     29  H1'     -144.1850 -117.7100   50.0880 H     901  UDP901      0.0838
     30  H2'     -145.0900 -117.5120   52.9630 H     901  UDP901      0.0663
     31 HO2'     -144.4350 -115.2230   51.6250 H     901  UDP901      0.2101
     32  H3'     -142.9860 -116.5960   53.5080 H     901  UDP901      0.0647
     33  H4'     -141.5240 -118.3370   52.0010 H     901  UDP901      0.0647
     34 HO3'     -141.7900 -116.6560   51.0450 H     901  UDP901      0.2100
     35 H5'1     -142.8560 -120.1570   53.5500 H     901  UDP901      0.0591
     36 H5'2     -143.2960 -118.6480   54.3760 H     901  UDP901      0.0591
@<TRIPOS>BOND
     1     7     2    2
     2    26     3    1
     3     3     2   am
     4     3     4   am
     5     2     1   am
     6    29     9    1
     7     8     4    2
     8     4     5    1
     9     1     9    1
    10     1     6    1
    11     9    14    1
    12     9    10    1
    13    34    15    1
    14    14    13    1
    15    15    12    1
    16    31    11    1
    17    11    10    1
    18     5     6    1
    19     5    27    1
    20     6    28    1
    21    33    13    1
    22    10    12    1
    23    10    30    1
    24    13    12    1
    25    13    16    1
    26    12    32    1
    27    35    16    1
    28    16    17    1
    29    16    36    1
    30    17    18    1
    31    23    22    2
    32    25    22    1
    33    22    21    1
    34    22    24    1
    35    18    20    2
    36    18    21    1
    37    18    19    1
