@<TRIPOS>MOLECULE
3s27_FRU_A_1.pdb
 24 24 0 0 0
SMALL
GASTEIGER

@<TRIPOS>ATOM
      1  C1      -138.4590 -124.9740   51.6460 C.3   902  FRU902      0.1006
      2  C2      -137.9890 -124.7380   53.0940 C.3   902  FRU902      0.2205
      3  C3      -136.7570 -125.5880   53.3490 C.3   902  FRU902      0.1392
      4  C4      -137.2840 -126.7880   54.0820 C.3   902  FRU902      0.1144
      5  C5      -138.4650 -126.2310   54.8450 C.3   902  FRU902      0.1134
      6  C6      -138.1130 -125.6290   56.2030 C.3   902  FRU902      0.0730
      7  O1      -139.2850 -123.9140   51.1230 O.3   902  FRU902     -0.3896
      8  O2      -137.7050 -123.3680   53.4150 O.3   902  FRU902     -0.3608
      9  O3      -135.8410 -124.9030   54.1850 O.3   902  FRU902     -0.3837
     10  O4      -137.7280 -127.7530   53.1250 O.3   902  FRU902     -0.3864
     11  O5      -138.9790 -125.1830   54.0260 O.3   902  FRU902     -0.3364
     12  O6      -137.2880 -126.5440   56.9230 O.3   902  FRU902     -0.3924
     13  H11     -139.0170 -125.9110   51.6030 H     902  FRU902      0.0612
     14  H12     -137.5820 -125.0880   51.0050 H     902  FRU902      0.0612
     15  H3      -136.2950 -125.8900   52.3990 H     902  FRU902      0.0675
     16  H4      -136.5270 -127.1950   54.7670 H     902  FRU902      0.0648
     17  H5      -139.2190 -127.0190   54.9790 H     902  FRU902      0.0647
     18  H61     -137.5840 -124.6840   56.0630 H     902  FRU902      0.0584
     19  H62     -139.0260 -125.4290   56.7680 H     902  FRU902      0.0584
     20  HO1     -139.4780 -124.0860   50.1910 H     902  FRU902      0.2096
     21  HO2     -136.9820 -123.0500   52.8570 H     902  FRU902      0.2129
     22  HO3     -135.4390 -124.1750   53.6930 H     902  FRU902      0.2101
     23  HO4     -136.9780 -128.0450   52.5900 H     902  FRU902      0.2100
     24  HO6     -136.9980 -126.1350   57.7500 H     902  FRU902      0.2095
@<TRIPOS>BOND
     1    20     7    1
     2    14     1    1
     3     7     1    1
     4    13     1    1
     5     1     2    1
     6    15     3    1
     7    23    10    1
     8    21     8    1
     9     2     3    1
    10     2     8    1
    11     2    11    1
    12    10     4    1
    13     3     4    1
    14     3     9    1
    15    22     9    1
    16    11     5    1
    17     4    16    1
    18     4     5    1
    19     5    17    1
    20     5     6    1
    21    18     6    1
    22     6    19    1
    23     6    12    1
    24    12    24    1
