@<TRIPOS>MOLECULE
3s28_UDP_A_1.pdb
 36 37 0 0 0
SMALL
GASTEIGER

@<TRIPOS>ATOM
      1  N1      -145.9610 -118.6980   51.1840 N.ar  901  UDP901     -0.2715
      2  C2      -146.8860 -118.4420   50.1900 C.ar  901  UDP901      0.3314
      3  N3      -148.0730 -119.1470   50.1160 N.ar  901  UDP901     -0.2749
      4  C4      -148.3160 -120.1360   51.0420 C.ar  901  UDP901      0.2539
      5  C5      -147.3740 -120.4070   52.0350 C.ar  901  UDP901      0.0192
      6  C6      -146.1680 -119.7120   52.0730 C.ar  901  UDP901      0.0171
      7  O2      -146.6590 -117.5590   49.3760 O.2   901  UDP901     -0.2464
      8  O4      -149.3650 -120.7710   50.9860 O.2   901  UDP901     -0.2677
      9  C1'     -144.7040 -117.9400   51.2320 C.3   901  UDP901      0.1679
     10  C2'     -144.6970 -116.9040   52.3330 C.3   901  UDP901      0.1286
     11  O2'     -145.3240 -115.7130   51.9160 O.3   901  UDP901     -0.3847
     12  C3'     -143.2120 -116.7790   52.5900 C.3   901  UDP901      0.1135
     13  C4'     -142.6980 -118.1850   52.3680 C.3   901  UDP901      0.1133
     14  O4'     -143.6290 -118.8100   51.5180 O.3   901  UDP901     -0.3456
     15  O3'     -142.5800 -115.9280   51.6660 O.3   901  UDP901     -0.3864
     16  C5'     -142.5930 -118.9670   53.6660 C.3   901  UDP901      0.0836
     17  O5'     -141.3130 -118.7500   54.2100 O.3   901  UDP901     -0.3245
     18  PA      -141.1060 -118.7330   55.8040 P.3   901  UDP901      0.2224
     19  O1A     -142.1040 -117.8390   56.4370 O.3   901  UDP901     -0.4370
     20  O2A     -139.7320 -118.3570   56.1730 O.2   901  UDP901     -0.5170
     21  O3A     -141.4840 -120.2290   56.2140 O.3   901  UDP901     -0.2261
     22  PB      -140.7770 -121.5300   55.5990 P.3   901  UDP901      0.5373
     23  O1B     -139.5400 -121.1820   54.8740 O.3   901  UDP901     -0.1143
     24  O2B     -141.7180 -122.1360   54.6310 O.2   901  UDP901     -0.2221
     25  O3B     -140.5020 -122.4470   56.7240 O.3   901  UDP901     -0.1143
     26  HN3     -148.8440 -118.8050   49.5060 H     901  UDP901      0.1734
     27  H5      -147.5840 -121.1690   52.7870 H     901  UDP901      0.0686
     28  H6      -145.4860 -119.8490   52.9130 H     901  UDP901      0.0813
     29  H1'     -144.5340 -117.4410   50.2780 H     901  UDP901      0.0867
     30  H2'     -145.1870 -117.3100   53.2180 H     901  UDP901      0.0665
     31 HO2'     -144.6590 -114.9940   51.8660 H     901  UDP901      0.2101
     32  H3'     -143.0280 -116.4660   53.6180 H     901  UDP901      0.0647
     33  H4'     -141.7190 -118.1410   51.8930 H     901  UDP901      0.0647
     34 HO3'     -141.9660 -116.4500   51.1080 H     901  UDP901      0.2100
     35 H5'1     -143.3580 -118.6320   54.3660 H     901  UDP901      0.0591
     36 H5'2     -142.7420 -120.0290   53.4740 H     901  UDP901      0.0591
@<TRIPOS>BOND
     1     7     2    2
     2    26     3    1
     3     3     2   ar
     4     3     4   ar
     5     2     1   ar
     6    29     9    1
     7     8     4    2
     8     4     5   ar
     9    34    15    1
    10     1     9    1
    11     1     6   ar
    12     9    14    1
    13     9    10    1
    14    14    13    1
    15    15    12    1
    16    31    11    1
    17    33    13    1
    18    11    10    1
    19     5     6   ar
    20     5    27    1
    21     6    28    1
    22    10    12    1
    23    10    30    1
    24    13    12    1
    25    13    16    1
    26    12    32    1
    27    36    16    1
    28    16    17    1
    29    16    35    1
    30    17    18    1
    31    24    22    2
    32    23    22    1
    33    22    21    1
    34    22    25    1
    35    18    20    2
    36    18    21    1
    37    18    19    1
