@<TRIPOS>MOLECULE
3s28_LCN_A_1.pdb
 21 21 0 0 0
SMALL
GASTEIGER

@<TRIPOS>ATOM
      1  C1      -136.9940 -122.0800   55.5820 C.2   903  LCN903      0.1249
      2  C2      -137.4690 -121.9290   56.8670 C.2   903  LCN903      0.1592
      3  O2      -137.8030 -123.0470   57.6100 O.2   903  LCN903     -0.5055
      4  C3      -137.7340 -120.5370   57.3970 C.3   903  LCN903      0.1440
      5  O3      -137.5800 -120.5270   58.7780 O.3   903  LCN903     -0.3813
      6  C4      -136.8170 -119.5450   56.7460 C.3   903  LCN903      0.1269
      7  O4      -137.1820 -118.2830   57.1350 O.3   903  LCN903     -0.3850
      8  C5      -136.9040 -119.6650   55.2480 C.3   903  LCN903      0.1509
      9  O5      -136.6330 -120.9630   54.8440 O.2   903  LCN903     -0.4880
     10  C6      -135.9610 -118.6960   54.5710 C.3   903  LCN903      0.0836
     11  O6      -134.6750 -118.8430   55.0670 O.3   903  LCN903     -0.3913
     12  H1      -136.9000 -122.9650   55.2000 H     903  LCN903      0.1059
     13  H3      -138.6430 -120.2910   57.1870 H     903  LCN903      0.0703
     14  H4      -135.9140 -119.7170   57.0160 H     903  LCN903      0.0662
     15  H5      -137.8250 -119.4350   54.9790 H     903  LCN903      0.0783
     16  H6      -135.9570 -118.8670   53.6180 H     903  LCN903      0.0595
     17  H6A     -136.2570 -117.8120   54.7280 H     903  LCN903      0.0595
     18  HO2     -138.4940 -123.4700   57.2210 H     903  LCN903      0.2919
     19  HO3     -138.1290 -119.9170   59.1360 H     903  LCN903      0.2105
     20  HO4     -137.8890 -118.3330   57.6910 H     903  LCN903      0.2101
     21  HO6     -134.4910 -119.7160   55.1690 H     903  LCN903      0.2096
@<TRIPOS>BOND
     1    16    10    1
     2    10    17    1
     3    10    11    1
     4    10     8    1
     5     9     8    1
     6     9     1    1
     7    15     8    1
     8    11    21    1
     9    12     1    1
    10     8     6    1
    11     1     2    2
    12     6    14    1
    13     6     7    1
    14     6     4    1
    15     2     4    1
    16     2     3    1
    17     7    20    1
    18    13     4    1
    19    18     3    1
    20     4     5    1
    21     5    19    1
