@<TRIPOS>MOLECULE
3s28_NHF_A_1.pdb
 21 21 0 0 0
SMALL
GASTEIGER

@<TRIPOS>ATOM
      1  O4      -137.3050 -118.1930   57.1160 O.3   904  NHF904     -0.3861
      2  C6      -135.6550 -118.6370   54.8930 C.3   904  NHF904      0.0729
      3  C5      -136.5380 -119.7020   55.4740 C.3   904  NHF904      0.1108
      4  C4      -136.7960 -119.4630   56.9240 C.3   904  NHF904      0.1162
      5  O3      -137.7730 -120.4920   58.7810 O.3   904  NHF904     -0.3815
      6  C3      -137.7870 -120.4770   57.4030 C.3   904  NHF904      0.1434
      7  C2      -137.4950 -121.8400   56.8370 C.2   904  NHF904      0.1895
      8  C1      -136.8590 -121.9770   55.4960 C.3   904  NHF904      0.1089
      9  O2      -137.7880 -122.8570   57.4560 O.2   904  NHF904     -0.2921
     10  O6      -134.3180 -118.9380   55.0710 O.3   904  NHF904     -0.3924
     11  O5      -135.9570 -120.9460   55.3480 O.3   904  NHF904     -0.3641
     12  HO4     -137.5570 -117.8540   56.3360 H     904  NHF904      0.2100
     13  H6      -135.8510 -117.7890   55.3280 H     904  NHF904      0.0584
     14  H6A     -135.8390 -118.5560   53.9410 H     904  NHF904      0.0584
     15  H5      -137.3850 -119.6990   55.0000 H     904  NHF904      0.0646
     16  H4      -135.9670 -119.5620   57.4200 H     904  NHF904      0.0650
     17  HO3     -138.0640 -119.7120   59.0890 H     904  NHF904      0.2105
     18  H3      -138.6700 -120.2050   57.1050 H     904  NHF904      0.0701
     19  H1      -136.3990 -122.8320   55.4350 H     904  NHF904      0.0640
     20  H1A     -137.5390 -121.9190   54.8030 H     904  NHF904      0.0640
     21  HO6     -133.8210 -118.2700   54.7670 H     904  NHF904      0.2095
@<TRIPOS>BOND
     1    14     2    1
     2    21    10    1
     3    20     8    1
     4     2    10    1
     5     2    13    1
     6     2     3    1
     7    15     3    1
     8    11     3    1
     9    11     8    1
    10    19     8    1
    11     3     4    1
    12     8     7    1
    13    12     1    1
    14     7     6    1
    15     7     9    2
    16     4     1    1
    17     4     6    1
    18     4    16    1
    19    18     6    1
    20     6     5    1
    21     5    17    1
