@<TRIPOS>MOLECULE
3s29_FRU_A_1.pdb
 12 12 0 0 0
SMALL
GASTEIGER

@<TRIPOS>ATOM
      1  C1      -139.2610 -124.3860   51.9630 C.3   902  FRU902      0.2434
      2  C2      -138.8150 -124.2710   53.4180 C.3   902  FRU902      0.2807
      3  C3      -137.5960 -125.1740   53.6170 C.3   902  FRU902      0.2409
      4  C4      -138.1230 -126.3460   54.4040 C.3   902  FRU902      0.2168
      5  C5      -139.2930 -125.7650   55.1650 C.3   902  FRU902      0.1836
      6  C6      -138.9080 -125.1380   56.5030 C.3   902  FRU902      0.2142
      7  O1      -140.4250 -123.5760   51.7860 O.3   902  FRU902     -0.2148
      8  O2      -138.5960 -122.8960   53.7660 O.3   902  FRU902     -0.1896
      9  O3      -136.5670 -124.5390   54.3760 O.3   902  FRU902     -0.2149
     10  O4      -138.6390 -127.2830   53.4570 O.3   902  FRU902     -0.2175
     11  O5      -139.8170 -124.7410   54.3150 O.3   902  FRU902     -0.3253
     12  O6      -138.8320 -126.1660   57.4930 O.3   902  FRU902     -0.2176
@<TRIPOS>BOND
     1     7     1    1
     2     1     2    1
     3     2     3    1
     4     2     8    1
     5     2    11    1
     6    10     4    1
     7     3     9    1
     8     3     4    1
     9    11     5    1
    10     4     5    1
    11     5     6    1
    12     6    12    1
