@<TRIPOS>MOLECULE
3s29_UDP_A_1.pdb
 25 26 0 0 0
SMALL
GASTEIGER

@<TRIPOS>ATOM
      1  N1      -146.6930 -118.6260   51.3240 N.am  901  UDP901     -0.1766
      2  C2      -147.5400 -118.3790   50.2730 C.1   901  UDP901      0.2845
      3  N3      -148.7260 -119.0770   50.1490 N.2   901  UDP901     -0.2452
      4  C4      -149.0530 -120.0390   51.0850 C.1   901  UDP901      0.2182
      5  C5      -148.1800 -120.2870   52.1440 C.2   901  UDP901      0.1242
      6  C6      -146.9340 -119.6710   52.1710 C.2   901  UDP901      0.0929
      7  O2      -147.2240 -117.5220   49.4570 O.2   901  UDP901     -0.1918
      8  O4      -150.1130 -120.6650   50.9780 O.2   901  UDP901     -0.2085
      9  C1'     -145.4450 -117.8580   51.3850 C.3   901  UDP901      0.2401
     10  C2'     -145.4510 -116.8400   52.5050 C.3   901  UDP901      0.2319
     11  O2'     -146.0280 -115.6240   52.1030 O.3   901  UDP901     -0.2157
     12  C3'     -143.9670 -116.6990   52.7580 C.3   901  UDP901      0.2158
     13  C4'     -143.4470 -118.0990   52.5290 C.3   901  UDP901      0.1799
     14  O4'     -144.3730 -118.7270   51.6670 O.3   901  UDP901     -0.3320
     15  O3'     -143.3890 -115.8940   51.7680 O.3   901  UDP901     -0.2175
     16  C5'     -143.3300 -118.8750   53.8340 C.3   901  UDP901      0.1813
     17  O5'     -142.0720 -118.5770   54.3950 O.3   901  UDP901     -0.3111
     18  PA      -141.8290 -118.6480   55.9810 P.3   901  UDP901      0.2231
     19  O1A     -142.7800 -117.7530   56.6770 O.3   901  UDP901     -0.4370
     20  O2A     -140.4260 -118.3170   56.2980 O.2   901  UDP901     -0.5169
     21  O3A     -142.2040 -120.1490   56.4140 O.3   901  UDP901     -0.2261
     22  PB      -141.5020 -121.4410   55.7500 P.3   901  UDP901      0.5373
     23  O1B     -142.3630 -121.9250   54.6520 O.2   901  UDP901     -0.2221
     24  O2B     -141.3280 -122.4880   56.7920 O.3   901  UDP901     -0.1143
     25  O3B     -140.1850 -121.0420   55.2070 O.3   901  UDP901     -0.1143
@<TRIPOS>BOND
     1     7     2    2
     2     3     2    2
     3     3     4    2
     4     2     1   am
     5     8     4    2
     6     4     5    1
     7     1     9    1
     8     1     6    1
     9     9    14    1
    10     9    10    1
    11    14    13    1
    12    15    12    1
    13    11    10    1
    14     5     6    2
    15    10    12    1
    16    13    12    1
    17    13    16    1
    18    16    17    1
    19    17    18    1
    20    23    22    2
    21    25    22    1
    22    22    21    1
    23    22    24    1
    24    18    20    2
    25    18    21    1
    26    18    19    1
