@<TRIPOS>MOLECULE
3s2a_2NQ_A_1.pdb
 34 38 0 0 0
SMALL
GASTEIGER

@<TRIPOS>ATOM
      1  N1        26.6260   12.4580   22.4990 N.ar  1103  2NQ1103    -0.2314
      2  N2        19.2280   12.9160   24.3330 N.2   1103  2NQ1103    -0.2444
      3  C1        24.5420   13.3150   20.9270 C.ar  1103  2NQ1103     0.0184
      4  C2        25.8260   13.2580   20.3980 C.ar  1103  2NQ1103     0.1191
      5  C3        25.6640   16.2980   19.1630 C.ar  1103  2NQ1103     0.1272
      6  C4        26.8770   16.5550   19.7950 C.ar  1103  2NQ1103     0.0226
      7  C5        27.0360   17.7390   20.5090 C.ar  1103  2NQ1103     0.0310
      8  C6        24.7680   18.3890   19.9330 C.ar  1103  2NQ1103     0.0310
      9  C7        22.6290   11.9500   23.6100 C.2   1103  2NQ1103    -0.0161
     10  C8        20.4660   12.9560   23.8150 C.2   1103  2NQ1103     0.0783
     11  C9        22.1740   14.0230   22.4770 C.2   1103  2NQ1103    -0.0188
     12  C10       19.9610   15.0440   22.6960 C.3   1103  2NQ1103     0.1056
     13  C11       21.6450   16.7450   21.8210 C.3   1103  2NQ1103     0.1051
     14  C12       21.6350   18.2590   21.5670 C.3   1103  2NQ1103     0.1595
     15  C13       19.1840   16.7680   21.0480 C.3   1103  2NQ1103     0.1051
     16  O1        20.6930   18.5820   20.5320 O.3   1103  2NQ1103    -0.3508
     17  C14       19.3490   18.2920   20.9700 C.3   1103  2NQ1103     0.1595
     18  N3        20.2650   16.1610   21.8700 N.3   1103  2NQ1103    -0.2624
     19  C15       20.8750   14.0150   22.9860 C.2   1103  2NQ1103     0.0104
     20  C16       18.6850   14.9480   23.2570 C.2   1103  2NQ1103     0.0147
     21  C17       18.3490   13.8730   24.0780 C.2   1103  2NQ1103     0.0959
     22  C18       21.3430   11.9290   24.1300 C.2   1103  2NQ1103     0.0149
     23  C19       23.0530   12.9950   22.7930 C.3   1103  2NQ1103     0.0675
     24  C20       24.3400   12.9580   22.2650 C.ar  1103  2NQ1103     0.0062
     25  C21       25.4150   12.5110   23.0290 C.ar  1103  2NQ1103     0.0963
     26  C22       26.8600   12.8130   21.2180 C.ar  1103  2NQ1103     0.1549
     27 CL1        28.4590   12.7160   20.5630 Cl    1103  2NQ1103    -0.0599
     28  N4        26.1090   13.5810   19.1290 N.pl3 1103  2NQ1103    -0.0941
     29  S1        25.4860   14.8400   18.2840 S.O2  1103  2NQ1103     0.0929
     30  O2        24.0450   14.5680   17.9700 O.2   1103  2NQ1103    -0.1483
     31  O3        26.2620   15.0030   17.0100 O.2   1103  2NQ1103    -0.1483
     32  C23       25.9790   18.6500   20.5730 C.ar  1103  2NQ1103     0.1402
     33  F1        26.1270   19.7890   21.2680 F     1103  2NQ1103    -0.2042
     34  C24       24.6100   17.2060   19.2170 C.ar  1103  2NQ1103     0.0226
@<TRIPOS>BOND
     1    31    29    2
     2    30    29    2
     3    29    28    1
     4    29     5    1
     5    28     4    1
     6     5    34   ar
     7     5     6   ar
     8    34     8   ar
     9     6     7   ar
    10     8    32   ar
    11     4     3   ar
    12     4    26   ar
    13     7    32   ar
    14    16    17    1
    15    16    14    1
    16    27    26    1
    17    32    33    1
    18     3    24   ar
    19    17    15    1
    20    15    18    1
    21    26     1   ar
    22    14    13    1
    23    13    18    1
    24    18    12    1
    25    24    23    1
    26    24    25   ar
    27    11    23    1
    28    11    19    2
    29     1    25   ar
    30    12    19    1
    31    12    20    1
    32    23     9    1
    33    19    10    1
    34    20    21    2
    35     9    22    2
    36    10    22    1
    37    10     2    2
    38    21     2    1
