@<TRIPOS>MOLECULE
3s2e_NAD_E_1.pdb
 44 48 0 0 0
SMALL
GASTEIGER

@<TRIPOS>ATOM
      1  PA        45.6700  -58.8810  -45.3100 P.3   1250  NAD1250     0.2189
      2  O1A       44.6470  -59.7050  -46.1460 O.2   1250  NAD1250    -0.5170
      3  O2A       46.9600  -59.6760  -45.1010 O.3   1250  NAD1250    -0.4371
      4  O5B       45.9710  -57.5110  -46.1280 O.3   1250  NAD1250    -0.3112
      5  C5B       47.1800  -56.8110  -46.0990 C.3   1250  NAD1250     0.1813
      6  C4B       47.2810  -55.6280  -46.9180 C.3   1250  NAD1250     0.1821
      7  O4B       48.2380  -54.6940  -46.4530 O.3   1250  NAD1250    -0.3135
      8  C3B       47.6870  -55.8230  -48.3580 C.3   1250  NAD1250     0.2184
      9  O3B       47.5330  -57.1140  -48.8170 O.3   1250  NAD1250    -0.2174
     10  C2B       48.9880  -55.2870  -48.5600 C.3   1250  NAD1250     0.2570
     11  O2B       49.8840  -56.2010  -49.1060 O.3   1250  NAD1250    -0.2130
     12  C1B       49.4050  -54.9440  -47.1720 C.3   1250  NAD1250     0.3186
     13  N9A       50.6710  -54.1580  -46.9320 N.pl3 1250  NAD1250    -0.1439
     14  C8A       51.8290  -54.4330  -46.3130 C.3   1250  NAD1250     0.3377
     15  N7A       52.5470  -53.3050  -46.3570 N.2   1250  NAD1250    -0.2095
     16  C5A       51.8350  -52.3370  -46.9910 C.2   1250  NAD1250     0.2526
     17  C6A       52.1350  -50.9950  -47.2980 C.2   1250  NAD1250     0.4393
     18  N6A       53.4160  -50.4850  -46.8820 N.pl3 1250  NAD1250     0.2180
     19  N1A       51.2170  -50.2300  -47.9620 N.2   1250  NAD1250     0.0021
     20  C2A       50.0270  -50.7600  -48.3140 C.3   1250  NAD1250     0.5254
     21  N3A       49.7090  -52.0560  -48.0350 N.2   1250  NAD1250    -0.0055
     22  C4A       50.5810  -52.8720  -47.3760 C.2   1250  NAD1250     0.3518
     23  O3        45.0760  -58.5640  -43.8630 O.3   1250  NAD1250    -0.2703
     24  PN        43.6050  -58.2150  -43.4880 P.3   1250  NAD1250     0.2189
     25  O1N       42.9650  -57.4350  -44.6520 O.2   1250  NAD1250    -0.5170
     26  O2N       42.8660  -59.4770  -43.1160 O.3   1250  NAD1250    -0.4371
     27  O5D       43.7060  -57.2540  -42.1390 O.3   1250  NAD1250    -0.3112
     28  C5D       44.5380  -56.1160  -42.1210 C.3   1250  NAD1250     0.1813
     29  C4D       44.6740  -55.4020  -40.8850 C.3   1250  NAD1250     0.1796
     30  O4D       43.3270  -55.0960  -40.4140 O.3   1250  NAD1250    -0.3354
     31  C3D       45.3090  -56.2470  -39.8070 C.3   1250  NAD1250     0.2155
     32  O3D       46.5050  -55.6870  -39.3520 O.3   1250  NAD1250    -0.2176
     33  C2D       44.4620  -56.1820  -38.6130 C.3   1250  NAD1250     0.2271
     34  O2D       44.2000  -57.4020  -38.0400 O.3   1250  NAD1250    -0.2161
     35  C1D       43.2730  -55.3500  -39.0220 C.3   1250  NAD1250     0.2096
     36  N1N       41.9770  -55.8220  -38.5380 N.3   1250  NAD1250    -0.2482
     37  C2N       41.3660  -54.6180  -37.9910 C.3   1250  NAD1250     0.0834
     38  C3N       40.0230  -54.8820  -37.3870 C.3   1250  NAD1250     0.0959
     39  C7N       39.3810  -53.5600  -36.9550 C.2   1250  NAD1250     0.2616
     40  O7N       38.2230  -53.6110  -36.5890 O.2   1250  NAD1250    -0.2716
     41  N7N       40.0880  -52.3070  -36.9400 N.am  1250  NAD1250    -0.0878
     42  C4N       39.1380  -55.5910  -38.2900 C.3   1250  NAD1250     0.0120
     43  C5N       39.7290  -56.7570  -38.9880 C.3   1250  NAD1250     0.0179
     44  C6N       41.1350  -56.5790  -39.4620 C.3   1250  NAD1250     0.0743
@<TRIPOS>BOND
     1    11    10    1
     2     9     8    1
     3    10     8    1
     4    10    12    1
     5     8     6    1
     6    20    21    1
     7    20    19    1
     8    21    22    2
     9    19    17    2
    10    22    16    1
    11    22    13    1
    12    17    16    1
    13    17    18    1
    14    12    13    1
    15    12     7    1
    16    16    15    2
    17    13    14    1
    18     6     7    1
    19     6     5    1
    20    15    14    1
    21     2     1    2
    22     4     5    1
    23     4     1    1
    24     1     3    1
    25     1    23    1
    26    25    24    2
    27    23    24    1
    28    24    26    1
    29    24    27    1
    30    27    28    1
    31    28    29    1
    32    29    30    1
    33    29    31    1
    34    30    35    1
    35    31    32    1
    36    31    33    1
    37    44    43    1
    38    44    36    1
    39    35    33    1
    40    35    36    1
    41    43    42    1
    42    33    34    1
    43    36    37    1
    44    42    38    1
    45    37    38    1
    46    38    39    1
    47    39    41   am
    48    39    40    2
