@<TRIPOS>MOLECULE
3s2f_NAD_E_1.pdb
 44 48 0 0 0
SMALL
GASTEIGER

@<TRIPOS>ATOM
      1  PA        46.0890  -58.4350  -44.8260 P.3   1250  NAD1250     0.2189
      2  O1A       44.8420  -59.0170  -45.5590 O.2   1250  NAD1250    -0.5170
      3  O2A       46.7240  -59.7990  -45.2300 O.3   1250  NAD1250    -0.4371
      4  O5B       46.0560  -57.2480  -45.8950 O.3   1250  NAD1250    -0.3112
      5  C5B       47.3200  -56.7830  -46.3280 C.3   1250  NAD1250     0.1813
      6  C4B       47.3050  -55.3900  -46.9730 C.3   1250  NAD1250     0.1821
      7  O4B       48.2440  -54.4990  -46.4120 O.3   1250  NAD1250    -0.3135
      8  C3B       47.6880  -55.5470  -48.4010 C.3   1250  NAD1250     0.2184
      9  O3B       47.6380  -56.8920  -48.7260 O.3   1250  NAD1250    -0.2174
     10  C2B       49.1090  -55.1930  -48.4520 C.3   1250  NAD1250     0.2570
     11  O2B       49.7520  -56.3280  -48.9020 O.3   1250  NAD1250    -0.2130
     12  C1B       49.4440  -54.8770  -47.0560 C.3   1250  NAD1250     0.3186
     13  N9A       50.5620  -53.9480  -46.9600 N.pl3 1250  NAD1250    -0.1439
     14  C8A       51.7490  -54.2240  -46.3790 C.3   1250  NAD1250     0.3377
     15  N7A       52.5330  -53.1530  -46.3710 N.2   1250  NAD1250    -0.2095
     16  C5A       51.8820  -52.1410  -46.9520 C.2   1250  NAD1250     0.2526
     17  C6A       52.1820  -50.8160  -47.2270 C.2   1250  NAD1250     0.4393
     18  N6A       53.4550  -50.2550  -46.8560 N.pl3 1250  NAD1250     0.2180
     19  N1A       51.2680  -50.0520  -47.8430 N.2   1250  NAD1250     0.0021
     20  C2A       50.0560  -50.5150  -48.2140 C.3   1250  NAD1250     0.5254
     21  N3A       49.7320  -51.8050  -47.9610 N.2   1250  NAD1250    -0.0055
     22  C4A       50.6060  -52.6220  -47.3420 C.2   1250  NAD1250     0.3518
     23  O3        45.1820  -58.4850  -43.5200 O.3   1250  NAD1250    -0.2703
     24  PN        43.7280  -57.8950  -43.3270 P.3   1250  NAD1250     0.2189
     25  O1N       43.2380  -57.2620  -44.5930 O.2   1250  NAD1250    -0.5170
     26  O2N       42.7620  -58.9980  -42.9510 O.3   1250  NAD1250    -0.4371
     27  O5D       43.7560  -56.8200  -42.1740 O.3   1250  NAD1250    -0.3112
     28  C5D       45.0060  -56.3450  -41.7310 C.3   1250  NAD1250     0.1813
     29  C4D       44.7310  -55.2420  -40.7370 C.3   1250  NAD1250     0.1799
     30  O4D       43.3760  -55.2640  -40.4450 O.3   1250  NAD1250    -0.3327
     31  C3D       45.5060  -55.4300  -39.4970 C.3   1250  NAD1250     0.2158
     32  O3D       46.3050  -56.5240  -39.6870 O.3   1250  NAD1250    -0.2175
     33  C2D       44.4570  -55.7420  -38.5090 C.3   1250  NAD1250     0.2309
     34  O2D       44.2470  -57.1000  -38.4840 O.3   1250  NAD1250    -0.2158
     35  C1D       43.3000  -55.0110  -39.0840 C.3   1250  NAD1250     0.2263
     36  N1N       41.9370  -55.2690  -38.6440 N.pl3 1250  NAD1250    -0.2787
     37  C2N       41.2960  -54.2910  -37.9220 C.3   1250  NAD1250     0.1244
     38  C3N       39.9470  -54.4060  -37.5970 C.2   1250  NAD1250     0.0544
     39  C7N       39.3590  -53.2810  -36.7990 C.2   1250  NAD1250     0.2818
     40  O7N       38.1800  -53.2830  -36.4990 O.2   1250  NAD1250    -0.2670
     41  N7N       40.2130  -52.1870  -36.3880 N.am  1250  NAD1250    -0.0839
     42  C4N       39.2240  -55.4930  -38.0160 C.2   1250  NAD1250     0.0033
     43  C5N       39.8580  -56.4740  -38.7620 C.2   1250  NAD1250     0.0157
     44  C6N       41.2180  -56.3540  -39.0880 C.2   1250  NAD1250     0.0633
@<TRIPOS>BOND
     1    11    10    1
     2     9     8    1
     3    10     8    1
     4    10    12    1
     5     8     6    1
     6    20    21    1
     7    20    19    1
     8    21    22    2
     9    19    17    2
    10    22    13    1
    11    22    16    1
    12    17    16    1
    13    17    18    1
    14    12    13    1
    15    12     7    1
    16     6     7    1
    17     6     5    1
    18    13    14    1
    19    16    15    2
    20    14    15    1
    21     5     4    1
    22     4     1    1
    23     2     1    2
    24     3     1    1
    25     1    23    1
    26    25    24    2
    27    23    24    1
    28    24    26    1
    29    24    27    1
    30    27    28    1
    31    28    29    1
    32    29    30    1
    33    29    31    1
    34    30    35    1
    35    32    31    1
    36    31    33    1
    37    44    43    2
    38    44    36    1
    39    35    36    1
    40    35    33    1
    41    43    42    1
    42    36    37    1
    43    33    34    1
    44    42    38    2
    45    37    38    1
    46    38    39    1
    47    39    40    2
    48    39    41   am
