@<TRIPOS>MOLECULE
3s2g_NAD_E_1.pdb
 44 48 0 0 0
SMALL
GASTEIGER

@<TRIPOS>ATOM
      1  PA        45.5890  -58.7070  -45.3760 P.3   1250  NAD1250     0.2189
      2  O1A       44.5050  -59.5160  -45.9890 O.2   1250  NAD1250    -0.5170
      3  O2A       46.8730  -59.5390  -45.3040 O.3   1250  NAD1250    -0.4371
      4  O5B       45.8390  -57.4080  -46.2690 O.3   1250  NAD1250    -0.3112
      5  C5B       46.8920  -56.5990  -46.0350 C.3   1250  NAD1250     0.1813
      6  C4B       47.2980  -55.7450  -47.1690 C.3   1250  NAD1250     0.1821
      7  O4B       48.1730  -54.7420  -46.7640 O.3   1250  NAD1250    -0.3135
      8  C3B       48.0020  -56.5730  -48.1630 C.3   1250  NAD1250     0.2184
      9  O3B       47.4040  -56.4230  -49.4130 O.3   1250  NAD1250    -0.2174
     10  C2B       49.2940  -56.0600  -48.2460 C.3   1250  NAD1250     0.2570
     11  O2B       49.6790  -56.0270  -49.5880 O.3   1250  NAD1250    -0.2130
     12  C1B       49.1300  -54.6840  -47.7550 C.3   1250  NAD1250     0.3186
     13  N9A       50.3640  -53.8950  -47.3510 N.pl3 1250  NAD1250    -0.1439
     14  C8A       51.4200  -54.3250  -46.6420 C.3   1250  NAD1250     0.3377
     15  N7A       52.2980  -53.3110  -46.5230 N.2   1250  NAD1250    -0.2095
     16  C5A       51.8040  -52.2200  -47.1630 C.2   1250  NAD1250     0.2526
     17  C6A       52.2290  -50.9130  -47.3870 C.2   1250  NAD1250     0.4393
     18  N6A       53.4600  -50.4770  -46.8840 N.pl3 1250  NAD1250     0.2180
     19  N1A       51.4480  -50.0670  -48.0930 N.2   1250  NAD1250     0.0021
     20  C2A       50.2720  -50.4880  -48.5750 C.3   1250  NAD1250     0.5254
     21  N3A       49.8190  -51.7300  -48.3900 N.2   1250  NAD1250    -0.0055
     22  C4A       50.5690  -52.6020  -47.6890 C.2   1250  NAD1250     0.3518
     23  O3        45.1440  -58.2760  -43.8900 O.3   1250  NAD1250    -0.2703
     24  PN        43.6060  -57.9740  -43.5940 P.3   1250  NAD1250     0.2189
     25  O1N       42.9260  -57.5110  -44.8870 O.2   1250  NAD1250    -0.5170
     26  O2N       42.9070  -59.2820  -43.0560 O.3   1250  NAD1250    -0.4371
     27  O5D       43.4740  -56.8450  -42.5240 O.3   1250  NAD1250    -0.3112
     28  C5D       44.4170  -55.8580  -42.4290 C.3   1250  NAD1250     0.1813
     29  C4D       44.6590  -55.3040  -41.1160 C.3   1250  NAD1250     0.1796
     30  O4D       43.4140  -54.8310  -40.5310 O.3   1250  NAD1250    -0.3354
     31  C3D       45.1710  -56.3670  -40.2240 C.3   1250  NAD1250     0.2155
     32  O3D       46.1760  -55.8710  -39.4570 O.3   1250  NAD1250    -0.2176
     33  C2D       44.0370  -56.7400  -39.3730 C.3   1250  NAD1250     0.2271
     34  O2D       44.4840  -57.1260  -38.1330 O.3   1250  NAD1250    -0.2161
     35  C1D       43.3210  -55.4460  -39.2640 C.3   1250  NAD1250     0.2096
     36  N1N       41.9420  -55.4300  -38.7410 N.3   1250  NAD1250    -0.2482
     37  C2N       41.2330  -54.4530  -37.9330 C.3   1250  NAD1250     0.0834
     38  C3N       39.8160  -54.1580  -38.3430 C.3   1250  NAD1250     0.0959
     39  C7N       39.0930  -53.4320  -37.1620 C.2   1250  NAD1250     0.2616
     40  O7N       38.3020  -54.0810  -36.3880 O.2   1250  NAD1250    -0.2716
     41  N7N       39.4400  -52.0800  -36.8560 N.am  1250  NAD1250    -0.0878
     42  C4N       39.0390  -55.2850  -38.7660 C.3   1250  NAD1250     0.0120
     43  C5N       39.8280  -56.4660  -39.1190 C.3   1250  NAD1250     0.0179
     44  C6N       41.1250  -56.0640  -39.7280 C.3   1250  NAD1250     0.0743
@<TRIPOS>BOND
     1    11    10    1
     2     9     8    1
     3    20    21    1
     4    20    19    1
     5    21    22    2
     6    10     8    1
     7    10    12    1
     8     8     6    1
     9    19    17    2
    10    12    13    1
    11    12     7    1
    12    22    13    1
    13    22    16    1
    14    17    16    1
    15    17    18    1
    16    13    14    1
    17     6     7    1
    18     6     5    1
    19    16    15    2
    20    14    15    1
    21     4     5    1
    22     4     1    1
    23     2     1    2
    24     1     3    1
    25     1    23    1
    26    25    24    2
    27    23    24    1
    28    24    26    1
    29    24    27    1
    30    27    28    1
    31    28    29    1
    32    29    30    1
    33    29    31    1
    34    30    35    1
    35    31    32    1
    36    31    33    1
    37    44    43    1
    38    44    36    1
    39    33    35    1
    40    33    34    1
    41    35    36    1
    42    43    42    1
    43    42    38    1
    44    36    37    1
    45    38    37    1
    46    38    39    1
    47    39    41   am
    48    39    40    2
