@<TRIPOS>MOLECULE
3s2i_NAD_G_1.pdb
 44 48 0 0 0
SMALL
GASTEIGER

@<TRIPOS>ATOM
      1  PA         7.7100   -6.4440   43.0360 P.3   1250  NAD1250     0.2189
      2  O1A        8.7470   -6.2170   44.1240 O.3   1250  NAD1250    -0.4371
      3  O2A        6.4470   -6.9710   43.6430 O.2   1250  NAD1250    -0.5170
      4  O5B        7.4290   -5.0570   42.3020 O.3   1250  NAD1250    -0.3112
      5  C5B        6.3090   -4.8480   41.5120 C.3   1250  NAD1250     0.1813
      6  C4B        5.9240   -3.4570   41.1840 C.3   1250  NAD1250     0.1821
      7  O4B        5.1500   -3.3930   40.0150 O.3   1250  NAD1250    -0.3135
      8  C3B        5.0790   -2.9240   42.2810 C.3   1250  NAD1250     0.2184
      9  O3B        5.6430   -1.7580   42.7840 O.3   1250  NAD1250    -0.2174
     10  C2B        3.8310   -2.6650   41.7020 C.3   1250  NAD1250     0.2570
     11  O2B        3.2790   -1.4970   42.2220 O.3   1250  NAD1250    -0.2130
     12  C1B        4.0880   -2.5270   40.2550 C.3   1250  NAD1250     0.3186
     13  N9A        2.7750   -2.8230   39.6300 N.pl3 1250  NAD1250    -0.1439
     14  C8A        1.7120   -3.6090   39.6010 C.3   1250  NAD1250     0.3377
     15  N7A        0.9820   -3.0540   38.6070 N.2   1250  NAD1250    -0.2095
     16  C5A        1.6280   -1.9680   38.0790 C.2   1250  NAD1250     0.2526
     17  C6A        1.3080   -1.0700   37.0560 C.2   1250  NAD1250     0.4393
     18  N6A        0.0920   -1.2000   36.3490 N.pl3 1250  NAD1250     0.2180
     19  N1A        2.1790   -0.0840   36.7690 N.2   1250  NAD1250     0.0021
     20  C2A        3.3310    0.0390   37.4480 C.3   1250  NAD1250     0.5254
     21  N3A        3.6880   -0.7970   38.4410 N.2   1250  NAD1250    -0.0055
     22  C4A        2.8430   -1.7980   38.7570 C.2   1250  NAD1250     0.3518
     23  O3         8.2520   -7.5050   42.0000 O.3   1250  NAD1250    -0.2703
     24  PN         9.7830   -7.5690   41.6060 P.3   1250  NAD1250     0.2189
     25  O1N       10.3580   -6.1810   41.6350 O.2   1250  NAD1250    -0.5170
     26  O2N       10.5210   -8.4400   42.5880 O.3   1250  NAD1250    -0.4371
     27  O5D        9.9270   -8.1770   40.1960 O.3   1250  NAD1250    -0.3112
     28  C5D        9.2350   -7.6940   39.1300 C.3   1250  NAD1250     0.1813
     29  C4D        9.1160   -8.5450   37.9680 C.3   1250  NAD1250     0.1796
     30  O4D       10.4230   -8.7700   37.3540 O.3   1250  NAD1250    -0.3354
     31  C3D        8.6410   -9.8680   38.4040 C.3   1250  NAD1250     0.2155
     32  O3D        7.6440  -10.2850   37.5590 O.3   1250  NAD1250    -0.2176
     33  C2D        9.8090  -10.7400   38.2650 C.3   1250  NAD1250     0.2271
     34  O2D        9.4340  -12.0230   38.0500 O.3   1250  NAD1250    -0.2161
     35  C1D       10.4500  -10.1450   37.0650 C.3   1250  NAD1250     0.2096
     36  N1N       11.7450  -10.7630   36.7130 N.3   1250  NAD1250    -0.2482
     37  C2N       12.7690   -9.9380   36.0870 C.3   1250  NAD1250     0.0834
     38  C3N       14.0440  -10.6780   35.7090 C.3   1250  NAD1250     0.0959
     39  C7N       13.9790  -11.1950   34.2340 C.2   1250  NAD1250     0.2616
     40  O7N       14.5300  -10.5380   33.3270 O.2   1250  NAD1250    -0.2716
     41  N7N       13.4580  -12.5400   33.9550 N.am  1250  NAD1250    -0.0878
     42  C4N       14.4280  -11.7380   36.5870 C.3   1250  NAD1250     0.0120
     43  C5N       13.3060  -12.5050   37.1560 C.3   1250  NAD1250     0.0179
     44  C6N       12.2950  -11.5870   37.7450 C.3   1250  NAD1250     0.0743
@<TRIPOS>BOND
     1    40    39    2
     2    41    39   am
     3    39    38    1
     4    38    37    1
     5    38    42    1
     6    37    36    1
     7    18    17    1
     8    42    43    1
     9    36    35    1
    10    36    44    1
    11    19    17    2
    12    19    20    1
    13    17    16    1
    14    35    30    1
    15    35    33    1
    16    43    44    1
    17    30    29    1
    18    20    21    1
    19    32    31    1
    20    29    31    1
    21    29    28    1
    22    34    33    1
    23    16    15    2
    24    16    22    1
    25    33    31    1
    26    21    22    2
    27    15    14    1
    28    22    13    1
    29    28    27    1
    30    14    13    1
    31    13    12    1
    32     7    12    1
    33     7     6    1
    34    27    24    1
    35    12    10    1
    36     6     5    1
    37     6     8    1
    38     5     4    1
    39    24    25    2
    40    24    23    1
    41    24    26    1
    42    10    11    1
    43    10     8    1
    44    23     1    1
    45     8     9    1
    46     4     1    1
    47     1     3    2
    48     1     2    1
