@<TRIPOS>MOLECULE
3s2j_L3A_A_1.pdb
 15 14 0 0 0
SMALL
GASTEIGER

@<TRIPOS>ATOM
      1  P        -25.7280   29.5670  -15.0040 P.3   401  L3A401      0.2709
      2  C1       -24.7390   32.1610  -15.6410 C.3   401  L3A401      0.0291
      3  N1       -23.8450   30.1410  -16.7720 N.3   401  L3A401     -0.1224
      4  C2       -24.3640   30.6800  -15.4930 C.3   401  L3A401      0.1711
      5  C4       -26.2100   29.9290  -13.3040 C.3   401  L3A401      0.1020
      6  C5       -27.7290   29.9440  -12.9810 C.3   401  L3A401      0.1132
      7  C6       -28.5730   28.8260  -13.6390 C.2   401  L3A401      0.3649
      8  C7       -27.9170   30.0810  -11.4540 C.3   401  L3A401      0.0124
      9  C8       -23.5210   33.0670  -15.7660 C.3   401  L3A401      0.0020
     10  O31      -25.1710   28.1760  -15.0420 O.3   401  L3A401     -0.1664
     11  O32      -26.9430   29.6440  -16.0040 O.2   401  L3A401     -0.2855
     12  O61      -29.7730   29.0690  -13.7330 O.co2 401  L3A401     -0.2457
     13  O62      -28.0680   27.7540  -14.0340 O.co2 401  L3A401     -0.2457
     14  C81      -23.9600   34.5030  -16.0180 C.3   401  L3A401      0.0001
     15  C82      -22.6320   33.0110  -14.5180 C.3   401  L3A401      0.0001
@<TRIPOS>BOND
     1     3     4    1
     2    14     9    1
     3    11     1    2
     4     9     2    1
     5     9    15    1
     6     2     4    1
     7     4     1    1
     8    10     1    1
     9     1     5    1
    10    13     7   ar
    11    12     7   ar
    12     7     6    1
    13     5     6    1
    14     6     8    1
