@<TRIPOS>MOLECULE
3s2k_FUC_A_1.pdb
 10 10 0 0 0
SMALL
GASTEIGER

@<TRIPOS>ATOM
      1  C1        37.0900  -28.8530  -13.2110 C.3   2694  FUC2694     0.1776
      2  C2        38.0340  -28.1210  -12.2640 C.3   2694  FUC2694     0.2141
      3  C3        37.2790  -27.6480  -11.0280 C.3   2694  FUC2694     0.2172
      4  C4        36.4970  -28.8020  -10.4080 C.3   2694  FUC2694     0.2116
      5  C5        35.6960  -29.5550  -11.4690 C.3   2694  FUC2694     0.1483
      6  C6        35.0160  -30.7840  -10.8760 C.3   2694  FUC2694     0.0349
      7  O2        38.6090  -27.0140  -12.9200 O.3   2694  FUC2694    -0.2176
      8  O3        38.1910  -27.1430  -10.0790 O.3   2694  FUC2694    -0.2175
      9  O4        37.3840  -29.6810   -9.7500 O.3   2694  FUC2694    -0.2177
     10  O5        36.5360  -29.9570  -12.5310 O.3   2694  FUC2694    -0.3508
@<TRIPOS>BOND
     1     1    10    1
     2     1     2    1
     3     7     2    1
     4    10     5    1
     5     2     3    1
     6     5     6    1
     7     5     4    1
     8     3     4    1
     9     3     8    1
    10     4     9    1
