@<TRIPOS>MOLECULE
3s2l_LDE_A_1.pdb
 19 18 0 0 0
SMALL
GASTEIGER

@<TRIPOS>ATOM
      1  C1       -40.2070   -5.3420    1.9390 C.3   401  LDE401      0.0291
      2  N1       -38.0080   -5.5970    0.7840 N.3   401  LDE401     -0.1224
      3  C2       -38.7340   -5.7470    2.0770 C.3   401  LDE401      0.1711
      4  P3       -38.4090   -7.4710    2.5920 P.3   401  LDE401      0.2709
      5  C4       -38.9770   -7.7230    4.2890 C.3   401  LDE401      0.1020
      6  C5       -39.7900   -9.0170    4.5620 C.3   401  LDE401      0.1137
      7  C6       -39.2000  -10.2950    3.9300 C.2   401  LDE401      0.3649
      8  C7       -40.0660   -9.1360    6.0770 C.3   401  LDE401      0.0236
      9  CD       -42.2390   -7.9050    6.0560 C.2   401  LDE401      0.3649
     10  CG       -40.3810   -3.8340    1.7800 C.3   401  LDE401      0.0020
     11  O31      -36.8930   -7.5980    2.5680 O.3   401  LDE401     -0.1664
     12  O32      -39.0350   -8.4720    1.5890 O.2   401  LDE401     -0.2855
     13  O61      -39.9550  -11.2660    3.8630 O.co2 401  LDE401     -0.2457
     14  O62      -38.0140  -10.3090    3.5350 O.co2 401  LDE401     -0.2457
     15  CD1      -39.8740   -3.0510    2.9960 C.3   401  LDE401      0.0001
     16  CD2      -41.8480   -3.5280    1.5270 C.3   401  LDE401      0.0001
     17  OE1      -42.5690   -6.8330    5.5040 O.co2 401  LDE401     -0.2457
     18  OE2      -42.9990   -8.8960    6.1180 O.co2 401  LDE401     -0.2457
     19  CG1      -40.8470   -8.0070    6.6590 C.3   401  LDE401      0.1146
@<TRIPOS>BOND
     1     2     3    1
     2    16    10    1
     3    12     4    2
     4    10     1    1
     5    10    15    1
     6     1     3    1
     7     3     4    1
     8    11     4    1
     9     4     5    1
    10    14     7   ar
    11    13     7   ar
    12     7     6    1
    13     5     6    1
    14     6     8    1
    15    17     9   ar
    16     9    18   ar
    17     9    19    1
    18     8    19    1
