@<TRIPOS>MOLECULE
3s2m_P5D_A_1.pdb
 21 21 0 0 0
SMALL
GASTEIGER

@<TRIPOS>ATOM
      1  C1       -25.0320   32.1320  -15.3030 C.3   401  P5D401      0.0554
      2  N1       -23.8340   30.2370  -16.3760 N.3   401  P5D401     -0.1220
      3  C2       -24.4230   30.7330  -15.1140 C.3   401  P5D401      0.1754
      4  P3       -25.6740   29.4860  -14.6640 P.3   401  P5D401      0.2712
      5  C4       -26.2640   29.8250  -12.9950 C.3   401  P5D401      0.1026
      6  C5       -27.8020   29.9830  -12.8250 C.3   401  P5D401      0.1244
      7  C6       -28.6070   28.7960  -13.3990 C.2   401  P5D401      0.3654
      8  C7       -28.0710   30.3010  -11.3520 C.3   401  P5D401      0.1258
      9  C8       -27.6380   31.6950  -10.9030 C.2   401  P5D401      0.3654
     10  CG       -24.0590   33.2700  -15.2190 C.ar  401  P5D401     -0.0202
     11  CZ       -22.2600   35.3910  -15.0910 C.ar  401  P5D401     -0.0000
     12  O31      -24.9820   28.1540  -14.7340 O.3   401  P5D401     -0.1664
     13  O32      -26.8430   29.5280  -15.7200 O.2   401  P5D401     -0.2854
     14  O61      -29.8280   28.9410  -13.4650 O.co2 401  P5D401     -0.2456
     15  O62      -27.9840   27.7690  -13.7660 O.co2 401  P5D401     -0.2456
     16  O81      -27.8490   32.6420  -11.6830 O.co2 401  P5D401     -0.2456
     17  O82      -27.0850   31.7680   -9.7980 O.co2 401  P5D401     -0.2456
     18  CD1      -24.0370   34.2350  -16.2190 C.ar  401  P5D401     -0.0042
     19  CD2      -23.1680   33.3730  -14.1540 C.ar  401  P5D401     -0.0042
     20  CE1      -23.1420   35.2970  -16.1560 C.ar  401  P5D401     -0.0003
     21  CE2      -22.2710   34.4330  -14.0880 C.ar  401  P5D401     -0.0003
@<TRIPOS>BOND
     1     2     3    1
     2    18    20   ar
     3    18    10   ar
     4    20    11   ar
     5    13     4    2
     6     1    10    1
     7     1     3    1
     8    10    19   ar
     9     3     4    1
    10    11    21   ar
    11    12     4    1
    12     4     5    1
    13    19    21   ar
    14    15     7   ar
    15    14     7   ar
    16     7     6    1
    17     5     6    1
    18     6     8    1
    19    16     9   ar
    20     8     9    1
    21     9    17   ar
