@<TRIPOS>MOLECULE
3s2n_P4D_A_1.pdb
 22 22 0 0 0
SMALL
GASTEIGER

@<TRIPOS>ATOM
      1  C1       -25.0980   32.1400  -15.3500 C.3   401  P4D401      0.0554
      2  N1       -23.8970   30.2510  -16.4600 N.3   401  P4D401     -0.1220
      3  C2       -24.4610   30.7510  -15.1880 C.3   401  P4D401      0.1754
      4  P3       -25.7080   29.4970  -14.7340 P.3   401  P4D401      0.2712
      5  C4       -26.3060   29.8240  -13.0640 C.3   401  P4D401      0.1026
      6  C5       -27.8420   29.9980  -12.9200 C.3   401  P4D401      0.1244
      7  C6       -28.6470   28.8160  -13.4830 C.2   401  P4D401      0.3654
      8  C7       -28.1350   30.3310  -11.4590 C.3   401  P4D401      0.1258
      9  C8       -27.7020   31.7270  -11.0220 C.2   401  P4D401      0.3654
     10  CG       -24.1750   33.3290  -15.2680 C.ar  401  P4D401     -0.0200
     11  OH       -21.7200   36.7030  -15.1620 O.3   401  P4D401     -0.2866
     12  CZ       -22.5340   35.5830  -15.2050 C.ar  401  P4D401      0.1957
     13  O31      -25.0070   28.1590  -14.8000 O.3   401  P4D401     -0.1664
     14  O32      -26.9040   29.5420  -15.7470 O.2   401  P4D401     -0.2854
     15  O61      -29.8660   28.9420  -13.5450 O.co2 401  P4D401     -0.2456
     16  O62      -28.0330   27.7930  -13.8530 O.co2 401  P4D401     -0.2456
     17  O81      -27.9320   32.6550  -11.8200 O.co2 401  P4D401     -0.2456
     18  O82      -27.1390   31.8310   -9.9240 O.co2 401  P4D401     -0.2456
     19  CD1      -24.2520   34.3020  -16.2630 C.ar  401  P4D401     -0.0009
     20  CD2      -23.2570   33.5040  -14.2370 C.ar  401  P4D401     -0.0009
     21  CE1      -23.4380   35.4290  -16.2340 C.ar  401  P4D401      0.0417
     22  CE2      -22.4400   34.6330  -14.2040 C.ar  401  P4D401      0.0417
@<TRIPOS>BOND
     1     2     3    1
     2    19    21   ar
     3    19    10   ar
     4    21    12   ar
     5    14     4    2
     6     1    10    1
     7     1     3    1
     8    10    20   ar
     9    12    11    1
    10    12    22   ar
    11     3     4    1
    12    13     4    1
    13     4     5    1
    14    20    22   ar
    15    16     7   ar
    16    15     7   ar
    17     7     6    1
    18     5     6    1
    19     6     8    1
    20    17     9   ar
    21     8     9    1
    22     9    18   ar
