@<TRIPOS>MOLECULE
3s2o_EV6_A_1.pdb
 28 32 0 0 0
SMALL
GASTEIGER

@<TRIPOS>ATOM
      1  C1       -15.9650   39.7380    9.5740 C.2   393  EV6393      0.0805
      2  C2       -16.2090   40.0720   10.9150 C.2   393  EV6393     -0.0030
      3  C3       -16.6630   39.1020   11.8150 C.3   393  EV6393      0.0654
      4  C4       -16.8670   37.8060   11.3460 C.2   393  EV6393      0.0424
      5  C5       -16.6400   37.4040   10.0040 C.2   393  EV6393      0.0408
      6  C6       -16.1910   38.3440    9.0920 C.2   393  EV6393      0.1483
      7  N7       -15.8870   38.3000    7.7840 N.2   393  EV6393     -0.3691
      8  C8       -15.5100   39.5700    7.5090 C.cat 393  EV6393      0.2818
      9  N9       -15.5200   40.4560    8.5380 N.pl3 393  EV6393     -0.2473
     10  N10      -15.1350   39.8720    6.2540 N.pl3 393  EV6393     -0.0777
     11 CL11      -17.4660   36.5870   12.4810 Cl    393  EV6393     -0.0865
     12  C12      -15.2240   41.9280    8.6330 C.3   393  EV6393      0.0900
     13  C13      -13.8540   42.3250    8.1130 C.3   393  EV6393      0.0207
     14  C14      -12.7850   41.4930    8.8100 C.3   393  EV6393      0.0018
     15  C15      -16.3430   42.6910    7.9330 C.3   393  EV6393      0.1069
     16  C16      -17.6950   42.2010    8.4190 C.2   393  EV6393      0.2430
     17  N17      -18.5550   41.5470    7.6070 N.am  393  EV6393     -0.2071
     18  O18      -17.9570   42.3890    9.6000 O.2   393  EV6393     -0.2733
     19  C19      -19.8600   41.1120    8.1390 C.3   393  EV6393      0.0952
     20  C20      -20.8000   40.8490    6.9870 C.3   393  EV6393      0.0200
     21  C21      -22.2000   40.6120    7.5780 C.3   393  EV6393      0.0017
     22  C22      -22.2540   39.3730    8.4690 C.3   393  EV6393      0.0001
     23  C23      -21.8900   38.1650    7.5850 C.3   393  EV6393      0.0000
     24  C24      -20.4580   38.3470    7.0440 C.3   393  EV6393      0.0001
     25  C25      -20.3520   39.6130    6.2140 C.3   393  EV6393      0.0017
     26  C26      -19.8000   39.8340    8.9740 C.3   393  EV6393      0.0200
     27  C27      -19.4470   38.5930    8.1590 C.3   393  EV6393      0.0017
     28  C28      -21.2000   39.5690    9.5710 C.3   393  EV6393      0.0017
@<TRIPOS>BOND
     1    25    20    1
     2    25    24    1
     3    10     8    1
     4    20    21    1
     5    20    19    1
     6    24    23    1
     7    24    27    1
     8     8     7    2
     9     8     9    1
    10    21    22    1
    11    23    22    1
    12    17    19    1
    13    17    16   am
    14     7     6    2
    15    15    16    1
    16    15    12    1
    17    13    12    1
    18    13    14    1
    19    19    26    1
    20    27    26    1
    21    16    18    2
    22    22    28    1
    23     9    12    1
    24     9     1    1
    25    26    28    1
    26     6     1    1
    27     6     5    1
    28     1     2    2
    29     5     4    2
    30     2     3    1
    31     4     3    1
    32     4    11    1
