@<TRIPOS>MOLECULE
3s2p_PMU_A_1.pdb
 24 26 0 0 0
SMALL
GASTEIGER

@<TRIPOS>ATOM
      1  C1        28.1550   27.2940   25.7680 C.3   500  PMU500      0.1266
      2  N1        26.8950   28.0530   25.7380 N.pl3 500  PMU500     -0.3026
      3  O1        24.1860   29.9110   30.2760 O.3   500  PMU500     -0.2865
      4  C2        24.8130   29.3990   29.1590 C.ar  500  PMU500      0.1979
      5  O2        27.2950   27.6400   22.2250 O.3   500  PMU500     -0.2185
      6  C3        25.9950   30.0720   28.7280 C.ar  500  PMU500      0.0434
      7  O3        29.8170   27.2000   23.9610 O.3   500  PMU500     -0.2185
      8  C4        26.7150   29.6280   27.5810 C.ar  500  PMU500      0.0178
      9  C5        26.2390   28.4970   26.8680 C.ar  500  PMU500      0.0483
     10  C6        25.0640   27.8360   27.3110 C.ar  500  PMU500      0.0200
     11  C7        24.3120   28.2590   28.4620 C.ar  500  PMU500      0.0669
     12  C8        26.3760   28.3090   24.3870 C.3   500  PMU500      0.1266
     13  C9        28.4370   27.0560   24.2720 C.3   500  PMU500      0.2034
     14  C10       27.6130   28.1200   23.5210 C.3   500  PMU500      0.2034
     15  C11       20.7810   24.5320   28.0600 C.3   500  PMU500      0.0496
     16  C12       21.6720   24.0380   26.9030 C.3   500  PMU500      0.0071
     17  C15       23.0500   27.5360   28.9200 C.2   500  PMU500      0.1325
     18  N16       22.3120   27.9370   30.0520 N.2   500  PMU500     -0.3298
     19  C17       21.2040   27.2700   30.4450 C.1   500  PMU500      0.2405
     20  C18       19.3550   24.8320   27.5650 C.3   500  PMU500      0.0071
     21  N18       20.7080   26.1960   29.8210 N.2   500  PMU500     -0.3343
     22  C19       21.3740   25.7630   28.7230 C.2   500  PMU500      0.1070
     23  C20       22.5520   26.4080   28.2400 C.3   500  PMU500      0.1153
     24  N21       20.5300   27.6530   31.5160 N.pl3 500  PMU500     -0.0232
@<TRIPOS>BOND
     1     5    14    1
     2    14    13    1
     3    14    12    1
     4     7    13    1
     5    13     1    1
     6    12     2    1
     7     2     1    1
     8     2     9    1
     9     9    10   ar
    10     9     8   ar
    11    16    15    1
    12    10    11   ar
    13    20    15    1
    14     8     6   ar
    15    15    22    1
    16    23    22    1
    17    23    17    1
    18    11    17    1
    19    11     4   ar
    20    22    21    2
    21     6     4   ar
    22    17    18    2
    23     4     3    1
    24    21    19    2
    25    18    19    2
    26    19    24    1
