@<TRIPOS>MOLECULE
3s2u_UD1_A_1.pdb
 39 41 0 0 0
SMALL
GASTEIGER

@<TRIPOS>ATOM
      1  C1'       14.8680  -15.6840  -15.0080 C.3   366  UD1366      0.2633
      2  C2'       15.5940  -16.1160  -13.7440 C.3   366  UD1366      0.1845
      3  C3'       14.9280  -17.4130  -13.2720 C.3   366  UD1366      0.2094
      4  C4'       13.4280  -17.2410  -13.0000 C.3   366  UD1366      0.2136
      5  C5'       12.6760  -16.2050  -13.8860 C.3   366  UD1366      0.1834
      6  C6'       11.8730  -15.2360  -12.9980 C.3   366  UD1366      0.2142
      7  C7'       18.0330  -15.5990  -13.7000 C.2   366  UD1366      0.2420
      8  C8'       19.3800  -16.1420  -14.0860 C.3   366  UD1366      0.0964
      9  N2'       16.9950  -16.3500  -14.0960 N.am  366  UD1366     -0.1992
     10  O1'       14.9600  -16.7810  -15.9060 O.3   366  UD1366     -0.2864
     11  O3'       15.6320  -17.9640  -12.1580 O.3   366  UD1366     -0.2183
     12  O4'       12.7790  -18.5170  -13.1390 O.3   366  UD1366     -0.2176
     13  O5'       13.4800  -15.3700  -14.7550 O.3   366  UD1366     -0.3260
     14  O6'       10.4590  -15.4530  -13.1000 O.3   366  UD1366     -0.2176
     15  O7'       17.9100  -14.5520  -13.0770 O.2   366  UD1366     -0.2733
     16  N1        13.8970  -18.1400  -24.5690 N.am  366  UD1366     -0.1766
     17  C2        13.7160  -17.9240  -25.9630 C.1   366  UD1366      0.2845
     18  N3        14.8040  -17.9320  -26.7670 N.2   366  UD1366     -0.2452
     19  C4        16.0310  -18.1880  -26.2750 C.1   366  UD1366      0.2182
     20  C5        16.2500  -18.3020  -24.8820 C.2   366  UD1366      0.1242
     21  C6        15.1380  -18.2100  -24.0270 C.2   366  UD1366      0.0929
     22  O2        12.5550  -17.6800  -26.4320 O.2   366  UD1366     -0.1918
     23  O4        16.9200  -18.5140  -27.0770 O.2   366  UD1366     -0.2085
     24  C1B       12.6980  -18.0360  -23.7390 C.3   366  UD1366      0.2401
     25  C2B       12.1810  -19.4090  -23.3700 C.3   366  UD1366      0.2319
     26  O2'       11.5720  -20.1050  -24.4720 O.3   366  UD1366     -0.2157
     27  C3B       11.2140  -19.0320  -22.2850 C.3   366  UD1366      0.2158
     28  C4B       11.9490  -17.9080  -21.5560 C.3   366  UD1366      0.1799
     29  O4B       12.8610  -17.3440  -22.5000 O.3   366  UD1366     -0.3320
     30  O3B       10.0050  -18.5410  -22.8860 O.3   366  UD1366     -0.2175
     31  C5B       12.8460  -18.4680  -20.4780 C.3   366  UD1366      0.1813
     32  O5B       12.1900  -18.3080  -19.2310 O.3   366  UD1366     -0.3112
     33  PA        12.8710  -18.8280  -17.8740 P.3   366  UD1366      0.2189
     34  O1A       11.9340  -18.3800  -16.7870 O.3   366  UD1366     -0.4371
     35  O2A       13.1240  -20.2950  -18.0660 O.2   366  UD1366     -0.5170
     36  O3A       14.3550  -18.1670  -17.8710 O.3   366  UD1366     -0.2703
     37  PB        14.7290  -16.6360  -17.4720 P.3   366  UD1366      0.2208
     38  O1B       13.5500  -15.7330  -17.6290 O.3   366  UD1366     -0.4371
     39  O2B       16.0670  -16.2680  -18.0180 O.2   366  UD1366     -0.5170
@<TRIPOS>BOND
     1    23    19    2
     2    18    19    2
     3    18    17    2
     4    22    17    2
     5    19    20    1
     6    17    16   am
     7    20    21    2
     8    16    21    1
     9    16    24    1
    10    26    25    1
    11    24    25    1
    12    24    29    1
    13    25    27    1
    14    30    27    1
    15    29    28    1
    16    27    28    1
    17    28    31    1
    18    31    32    1
    19    32    33    1
    20    35    33    2
    21    39    37    2
    22    33    36    1
    23    33    34    1
    24    36    37    1
    25    38    37    1
    26    37    10    1
    27    10     1    1
    28     1    13    1
    29     1     2    1
    30    13     5    1
    31     9     2    1
    32     9     7   am
    33     8     7    1
    34     5     4    1
    35     5     6    1
    36     2     3    1
    37     7    15    2
    38     3     4    1
    39     3    11    1
    40    12     4    1
    41    14     6    1
