@<TRIPOS>MOLECULE
3s2v_3HU_A_1.pdb
 26 28 0 0 0
SMALL
GASTEIGER

@<TRIPOS>ATOM
      1  C         42.3890   59.2540    8.0070 C.2   258  3HU258      0.3838
      2  N         42.0550   57.1190    6.8080 N.3   258  3HU258     -0.1187
      3  O         41.2530   59.0160    8.4520 O.co2 258  3HU258     -0.2440
      4  CA        42.9780   58.2580    6.9990 C.3   258  3HU258      0.2168
      5  CB        43.2260   58.9220    5.6380 C.3   258  3HU258      0.1410
      6  OAB       49.2140   54.5490    5.6060 O.co2 258  3HU258     -0.2400
      7  OAD       45.6840   55.3510    2.2250 O.2   258  3HU258     -0.2668
      8  OAE       45.7480   57.9680    5.9500 O.2   258  3HU258     -0.2462
      9  OAF       51.1850   55.4950    5.8470 O.co2 258  3HU258     -0.2400
     10  CAH       49.3650   58.9680    3.5080 C.ar  258  3HU258      0.0354
     11  CAI       48.2230   58.2580    3.5250 C.ar  258  3HU258      0.0053
     12  CAJ       43.0890   56.1230    1.6610 C.ar  258  3HU258      0.0417
     13  CAK       41.9130   57.7600    3.1870 C.ar  258  3HU258      0.0529
     14  CAL       47.1520   56.1000    4.3000 C.3   258  3HU258      0.1410
     15  SAN       41.6040   56.8810    1.7860 S.2   258  3HU258     -0.0842
     16  SAO       50.5260   58.0440    4.3270 S.2   258  3HU258     -0.0802
     17  CAP       50.0100   55.4980    5.4290 C.2   258  3HU258      0.3934
     18  CAR       48.2940   57.0670    4.1570 C.ar  258  3HU258      0.0136
     19  CAS       49.5520   56.7730    4.6840 C.ar  258  3HU258      0.1071
     20  CAT       45.1180   56.1440    2.9750 C.ar  258  3HU258      0.2664
     21  CAU       45.1640   57.5290    4.9580 C.ar  258  3HU258      0.3341
     22  CAV       43.8180   56.5420    2.6980 C.ar  258  3HU258      0.0791
     23  CAW       43.1630   57.4660    3.5650 C.ar  258  3HU258      0.0754
     24  NAY       45.7970   56.6320    4.0790 N.ar  258  3HU258     -0.2445
     25  NAZ       43.8560   57.9590    4.6880 N.ar  258  3HU258     -0.2785
     26  OXT       43.1330   60.1830    8.3970 O.co2 258  3HU258     -0.2440
@<TRIPOS>BOND
     1    12    15   ar
     2    12    22   ar
     3    15    13   ar
     4     7    20    2
     5    22    20   ar
     6    22    23   ar
     7    20    24   ar
     8    13    23   ar
     9    10    11   ar
    10    10    16   ar
    11    11    18   ar
    12    23    25   ar
    13    24    14    1
    14    24    21   ar
    15    18    14    1
    16    18    19   ar
    17    16    19   ar
    18    19    17    1
    19    25    21   ar
    20    25     5    1
    21    21     8    2
    22    17     6   ar
    23    17     9   ar
    24     5     4    1
    25     2     4    1
    26     4     1    1
    27     1    26   ar
    28     1     3   ar
