@<TRIPOS>MOLECULE
3s2y_FMN_A_1.pdb
 31 33 0 0 0
SMALL
GASTEIGER

@<TRIPOS>ATOM
      1  N1       -37.5380  -20.3270   39.3030 N.2   200  FMN200     -0.2887
      2  C2       -37.1660  -19.0060   39.2790 C.1   200  FMN200      0.3669
      3  O2       -37.7500  -18.2270   38.5380 O.2   200  FMN200     -0.1744
      4  N3       -36.1460  -18.5430   40.0860 N.2   200  FMN200     -0.2300
      5  C4       -35.4750  -19.3910   40.9280 C.1   200  FMN200      0.2513
      6  O4       -34.5660  -18.9480   41.6450 O.2   200  FMN200     -0.2057
      7  C4A      -35.8400  -20.7280   40.9510 C.2   200  FMN200      0.2703
      8  N5       -35.1730  -21.6090   41.7680 N.2   200  FMN200     -0.3882
      9  C5A      -35.5270  -22.9420   41.7840 C.2   200  FMN200      0.1277
     10  C6       -34.8530  -23.8350   42.6160 C.3   200  FMN200      0.0820
     11  C7       -35.2070  -25.1740   42.6050 C.2   200  FMN200     -0.0408
     12  C7M      -34.4800  -26.1420   43.4880 C.3   200  FMN200      0.0265
     13  C8       -36.2380  -25.6150   41.7790 C.2   200  FMN200     -0.0280
     14  C8M      -36.6490  -27.0550   41.7640 C.3   200  FMN200      0.0304
     15  C9       -36.9110  -24.7270   40.9580 C.2   200  FMN200      0.0123
     16  C9A      -36.5570  -23.3910   40.9630 C.2   200  FMN200      0.0793
     17  N10      -37.2300  -22.5100   40.1490 N.pl3 200  FMN200     -0.2545
     18  C10      -36.8760  -21.1850   40.1420 C.2   200  FMN200      0.2449
     19  C1'      -38.3410  -22.9990   39.2720 C.3   200  FMN200      0.1336
     20  C2'      -37.8670  -23.3020   37.8630 C.3   200  FMN200      0.2048
     21  O2'      -37.7680  -22.0590   37.2160 O.3   200  FMN200     -0.2185
     22  C3'      -38.9090  -24.1870   37.1850 C.3   200  FMN200      0.2165
     23  O3'      -39.0920  -25.3510   37.9780 O.3   200  FMN200     -0.2175
     24  C4'      -38.4950  -24.5220   35.7490 C.3   200  FMN200      0.2147
     25  O4'      -39.5770  -24.9740   34.9360 O.3   200  FMN200     -0.2176
     26  C5'      -37.3720  -25.5510   35.7570 C.3   200  FMN200      0.1892
     27  O5'      -36.8340  -25.6020   34.4550 O.3   200  FMN200     -0.2674
     28  P        -37.1040  -26.9030   33.5650 P.3   200  FMN200      0.5327
     29  O1P      -38.5880  -26.8870   33.2150 O.3   200  FMN200     -0.1145
     30  O2P      -36.7730  -28.1300   34.3610 O.3   200  FMN200     -0.1145
     31  O3P      -36.2690  -26.8310   32.3010 O.2   200  FMN200     -0.2224
@<TRIPOS>BOND
     1    31    28    2
     2    29    28    1
     3    28    30    1
     4    28    27    1
     5    27    26    1
     6    25    24    1
     7    24    26    1
     8    24    22    1
     9    22    20    1
    10    22    23    1
    11    21    20    1
    12    20    19    1
    13     3     2    2
    14    19    17    1
    15     2     1    2
    16     2     4    2
    17     1    18    2
    18     4     5    2
    19    18    17    1
    20    18     7    1
    21    17    16    1
    22     5     7    1
    23     5     6    2
    24     7     8    2
    25    15    16    2
    26    15    13    1
    27    16     9    1
    28    14    13    1
    29     8     9    2
    30    13    11    2
    31     9    10    1
    32    11    10    1
    33    11    12    1
