@<TRIPOS>MOLECULE
3s2z_DHC_A_1.pdb
 13 13 0 0 0
SMALL
GASTEIGER

@<TRIPOS>ATOM
      1  C1        18.5100    0.9440   39.1240 C.2   259  DHC259      0.3880
      2  O1        18.9990    0.9310   37.9370 O.co2 259  DHC259     -0.2405
      3  C2        17.6380    2.0170   39.4250 C.2   259  DHC259      0.0861
      4  C3        17.3020    2.9740   38.4520 C.2   259  DHC259      0.0069
      5  C1'       16.4980    4.0890   38.6990 C.ar  259  DHC259      0.0036
      6  C2'       16.9050    5.3040   38.1010 C.ar  259  DHC259      0.0454
      7  C3'       16.1930    6.4880   38.3000 C.ar  259  DHC259      0.2343
      8  C4'       15.0120    6.4240   39.0860 C.ar  259  DHC259      0.2343
      9  C5'       14.6070    5.2170   39.6870 C.ar  259  DHC259      0.0454
     10  C6'       15.3450    4.0300   39.5130 C.ar  259  DHC259      0.0035
     11  O4'       14.2660    7.5580   39.2810 O.3   259  DHC259     -0.2831
     12  O3'       16.6200    7.6530   37.6370 O.3   259  DHC259     -0.2831
     13  O2        18.8050    0.1120   40.0500 O.co2 259  DHC259     -0.2405
@<TRIPOS>BOND
     1    12     7    1
     2     2     1   ar
     3     6     7   ar
     4     6     5   ar
     5     7     8   ar
     6     4     5    1
     7     4     3    2
     8     5    10   ar
     9     8    11    1
    10     8     9   ar
    11     1     3    1
    12     1    13   ar
    13    10     9   ar
