@<TRIPOS>MOLECULE
3s33_HEM_A_1.pdb
 43 50 0 0 0
SMALL
GASTEIGER

@<TRIPOS>ATOM
      1  CHA       20.9570  -34.6860   -5.8030 C.2   800  HEM800      0.0000
      2  CHB       16.6440  -36.2440   -4.3110 C.2   800  HEM800      0.0000
      3  CHC       14.5600  -32.3410   -6.2280 C.2   800  HEM800      0.0000
      4  CHD       18.8960  -30.5550   -7.3180 C.2   800  HEM800      0.0000
      5  C1A       19.9770  -35.4350   -5.2020 C.2   800  HEM800      0.0000
      6  C2A       20.1910  -36.6370   -4.4170 C.2   800  HEM800      0.0000
      7  C3A       18.9910  -37.0610   -4.0070 C.2   800  HEM800      0.0000
      8  C4A       17.9940  -36.1440   -4.5200 C.2   800  HEM800      0.0000
      9  CMA       18.7000  -38.3020   -3.1340 C.3   800  HEM800      0.0000
     10  CAA       21.5640  -37.2920   -4.1100 C.3   800  HEM800      0.0000
     11  CBA       22.0340  -38.1590   -5.2760 C.3   800  HEM800      0.0000
     12  CGA       23.4920  -38.5130   -5.1150 C.2   800  HEM800      0.0000
     13  O1A       23.8490  -39.7050   -5.3180 O.co2 800  HEM800      0.0000
     14  O2A       24.3030  -37.6010   -4.7870 O.co2 800  HEM800      0.0000
     15  C1B       15.7040  -35.3360   -4.7220 C.ar  800  HEM800      0.0000
     16  C2B       14.2720  -35.4700   -4.5480 C.ar  800  HEM800      0.0000
     17  C3B       13.7010  -34.3910   -5.0800 C.ar  800  HEM800      0.0000
     18  C4B       14.7500  -33.5440   -5.6030 C.ar  800  HEM800      0.0000
     19  CMB       13.5340  -36.6500   -3.8690 C.3   800  HEM800      0.0000
     20  CAB       12.1880  -34.0880   -5.1360 C.2   800  HEM800      0.0000
     21  CBB       11.5270  -34.2740   -6.2940 C.2   800  HEM800      0.0000
     22  C1C       15.5570  -31.4930   -6.6290 C.2   800  HEM800      0.0000
     23  C2C       15.3720  -30.1340   -7.0800 C.2   800  HEM800      0.0000
     24  C3C       16.5780  -29.6420   -7.3760 C.2   800  HEM800      0.0000
     25  C4C       17.5500  -30.6800   -7.1250 C.2   800  HEM800      0.0000
     26  CMC       14.0070  -29.4190   -7.1750 C.3   800  HEM800      0.0000
     27  CAC       16.9610  -28.2380   -7.8980 C.2   800  HEM800      0.0000
     28  CBC       16.0510  -27.3330   -8.2510 C.2   800  HEM800      0.0000
     29  C1D       19.8410  -31.5080   -7.0760 C.ar  800  HEM800      0.0000
     30  C2D       21.2320  -31.3970   -7.4380 C.ar  800  HEM800      0.0000
     31  C3D       21.8750  -32.6910   -6.9630 C.ar  800  HEM800      0.0000
     32  C4D       20.8020  -33.4420   -6.3610 C.ar  800  HEM800      0.0000
     33  CMD       21.9430  -30.2310   -8.1490 C.3   800  HEM800      0.0000
     34  CAD       23.3550  -33.0930   -7.0790 C.3   800  HEM800      0.0000
     35  CBD       23.6880  -33.5780   -8.4780 C.3   800  HEM800      0.0000
     36  CGD       25.0730  -34.1650   -8.4260 C.2   800  HEM800      0.0000
     37  O1D       25.5650  -34.6270   -9.4880 O.co2 800  HEM800      0.0000
     38  O2D       25.6850  -34.1720   -7.3220 O.co2 800  HEM800      0.0000
     39  NA        18.6250  -35.1590   -5.2510 N.2   800  HEM800      0.0000
     40  NB        15.9670  -34.1470   -5.3680 N.ar  800  HEM800      0.0000
     41  NC        16.9000  -31.7960   -6.6670 N.2   800  HEM800      0.0000
     42  ND        19.6200  -32.7180   -6.4470 N.ar  800  HEM800      0.0000
     43 FE         17.7660  -33.3810   -5.8740 Fe    800  HEM800      0.0000
@<TRIPOS>BOND
     1    37    36   ar
     2    35    36    1
     3    35    34    1
     4    36    38   ar
     5    28    27    2
     6    33    30    1
     7    27    24    1
     8    30    29   ar
     9    30    31   ar
    10    24    25    1
    11    24    23    2
    12     4    25    1
    13     4    29    2
    14    26    23    1
    15    25    41    2
    16    23    22    1
    17    34    31    1
    18    29    42   ar
    19    31    32   ar
    20    41    22    1
    21    41    43    1
    22    22     3    2
    23    42    32   ar
    24    42    43    1
    25    32     1    2
    26    21    20    2
    27     3    18    1
    28    43    40    1
    29    43    39    1
    30     1     5    1
    31    18    40   ar
    32    18    17   ar
    33    40    15   ar
    34    13    12   ar
    35    11    12    1
    36    11    10    1
    37    39     5    2
    38    39     8    1
    39     5     6    1
    40    20    17    1
    41    12    14   ar
    42    17    16   ar
    43    15    16   ar
    44    15     2    1
    45    16    19    1
    46     8     2    2
    47     8     7    1
    48     6    10    1
    49     6     7    2
    50     7     9    1
