@<TRIPOS>MOLECULE
3s38_HEM_A_1.pdb
 43 50 0 0 0
SMALL
GASTEIGER

@<TRIPOS>ATOM
      1  CHA      -33.1370   19.5640   -5.6150 C.2   800  HEM800      0.0000
      2  CHB      -37.3970   18.0870   -3.9410 C.2   800  HEM800      0.0000
      3  CHC      -39.5240   21.8860   -6.0120 C.2   800  HEM800      0.0000
      4  CHD      -35.2320   23.5500   -7.4140 C.2   800  HEM800      0.0000
      5  C1A      -34.0990   18.8480   -4.9530 C.2   800  HEM800      0.0000
      6  C2A      -33.8550   17.6840   -4.1130 C.2   800  HEM800      0.0000
      7  C3A      -35.0410   17.2800   -3.6530 C.2   800  HEM800      0.0000
      8  C4A      -36.0560   18.1750   -4.1860 C.2   800  HEM800      0.0000
      9  CMA      -35.2890   16.0710   -2.7160 C.3   800  HEM800      0.0000
     10  CAA      -32.4790   17.0310   -3.8010 C.3   800  HEM800      0.0000
     11  CBA      -32.0430   16.1590   -4.9750 C.3   800  HEM800      0.0000
     12  CGA      -30.5340   15.9940   -4.9870 C.2   800  HEM800      0.0000
     13  O1A      -30.0900   14.8440   -5.2610 O.co2 800  HEM800      0.0000
     14  O2A      -29.7560   16.9840   -4.7220 O.co2 800  HEM800      0.0000
     15  C1B      -38.3450   18.9630   -4.3930 C.ar  800  HEM800      0.0000
     16  C2B      -39.7770   18.8040   -4.2240 C.ar  800  HEM800      0.0000
     17  C3B      -40.3640   19.8570   -4.7960 C.ar  800  HEM800      0.0000
     18  C4B      -39.3210   20.7060   -5.3430 C.ar  800  HEM800      0.0000
     19  CMB      -40.4900   17.6270   -3.5090 C.3   800  HEM800      0.0000
     20  CAB      -41.8870   20.1240   -4.8730 C.2   800  HEM800      0.0000
     21  CBB      -42.5790   19.6310   -5.9150 C.2   800  HEM800      0.0000
     22  C1C      -38.5330   22.7120   -6.4720 C.2   800  HEM800      0.0000
     23  C2C      -38.7050   24.0950   -6.8660 C.2   800  HEM800      0.0000
     24  C3C      -37.5100   24.5520   -7.2530 C.2   800  HEM800      0.0000
     25  C4C      -36.5640   23.4690   -7.1080 C.2   800  HEM800      0.0000
     26  CMC      -40.0520   24.8510   -6.8270 C.3   800  HEM800      0.0000
     27  CAC      -37.1040   25.9540   -7.7660 C.2   800  HEM800      0.0000
     28  CBC      -37.9590   26.7760   -8.4010 C.2   800  HEM800      0.0000
     29  C1D      -34.2690   22.6520   -7.0550 C.ar  800  HEM800      0.0000
     30  C2D      -32.8520   22.8450   -7.2600 C.ar  800  HEM800      0.0000
     31  C3D      -32.2050   21.5880   -6.6880 C.ar  800  HEM800      0.0000
     32  C4D      -33.2970   20.7870   -6.2070 C.ar  800  HEM800      0.0000
     33  CMD      -32.1430   24.0560   -7.9110 C.3   800  HEM800      0.0000
     34  CAD      -30.7140   21.2350   -6.6180 C.3   800  HEM800      0.0000
     35  CBD      -30.3790   20.2530   -7.7200 C.3   800  HEM800      0.0000
     36  CGD      -28.8530   20.1220   -7.7320 C.2   800  HEM800      0.0000
     37  O1D      -28.2990   20.0660   -8.8650 O.co2 800  HEM800      0.0000
     38  O2D      -28.2440   20.0740   -6.6190 O.co2 800  HEM800      0.0000
     39  NA       -35.4530   19.1270   -4.9800 N.2   800  HEM800      0.0000
     40  NB       -38.0920   20.1330   -5.0790 N.ar  800  HEM800      0.0000
     41  NC       -37.2100   22.3590   -6.6230 N.2   800  HEM800      0.0000
     42  ND       -34.4990   21.4350   -6.4320 N.ar  800  HEM800      0.0000
     43 FE        -36.3270   20.7390   -5.8310 Fe    800  HEM800      0.0000
@<TRIPOS>BOND
     1    37    36   ar
     2    28    27    2
     3    33    30    1
     4    27    24    1
     5    36    35    1
     6    36    38   ar
     7    35    34    1
     8     4    25    1
     9     4    29    2
    10    30    29   ar
    11    30    31   ar
    12    24    25    1
    13    24    23    2
    14    25    41    2
    15    29    42   ar
    16    23    26    1
    17    23    22    1
    18    31    34    1
    19    31    32   ar
    20    41    22    1
    21    41    43    1
    22    22     3    2
    23    42    32   ar
    24    42    43    1
    25    32     1    2
    26     3    18    1
    27    21    20    2
    28    43    40    1
    29    43    39    1
    30     1     5    1
    31    18    40   ar
    32    18    17   ar
    33    13    12   ar
    34    40    15   ar
    35    12    11    1
    36    12    14   ar
    37    39     5    2
    38    39     8    1
    39    11    10    1
    40     5     6    1
    41    20    17    1
    42    17    16   ar
    43    15    16   ar
    44    15     2    1
    45    16    19    1
    46     8     2    2
    47     8     7    1
    48     6    10    1
    49     6     7    2
    50     7     9    1
