@<TRIPOS>MOLECULE
3s39_HEM_A_1.pdb
 43 50 0 0 0
SMALL
GASTEIGER

@<TRIPOS>ATOM
      1  CHA       20.5450  -34.4580   -6.5810 C.2   800  HEM800      0.0000
      2  CHB       16.1400  -35.3290   -4.8320 C.2   800  HEM800      0.0000
      3  CHC       14.4500  -31.3300   -6.9770 C.2   800  HEM800      0.0000
      4  CHD       18.9260  -30.1930   -8.3110 C.2   800  HEM800      0.0000
      5  C1A       19.5140  -35.0410   -5.8990 C.2   800  HEM800      0.0000
      6  C2A       19.6060  -36.2240   -5.0660 C.2   800  HEM800      0.0000
      7  C3A       18.3880  -36.4660   -4.5810 C.2   800  HEM800      0.0000
      8  C4A       17.4900  -35.4390   -5.0940 C.2   800  HEM800      0.0000
      9  CMA       18.0160  -37.6320   -3.6370 C.3   800  HEM800      0.0000
     10  CAA       20.8840  -37.0520   -4.7870 C.3   800  HEM800      0.0000
     11  CBA       21.2370  -37.8880   -6.0140 C.3   800  HEM800      0.0000
     12  CGA       22.5470  -38.6020   -5.8000 C.2   800  HEM800      0.0000
     13  O1A       22.7210  -39.7020   -6.3870 O.co2 800  HEM800      0.0000
     14  O2A       23.4140  -38.0860   -5.0390 O.co2 800  HEM800      0.0000
     15  C1B       15.2790  -34.3520   -5.2950 C.ar  800  HEM800      0.0000
     16  C2B       13.8330  -34.3310   -5.1130 C.ar  800  HEM800      0.0000
     17  C3B       13.3660  -33.2270   -5.7120 C.ar  800  HEM800      0.0000
     18  C4B       14.5020  -32.5160   -6.2840 C.ar  800  HEM800      0.0000
     19  CMB       12.9910  -35.3990   -4.3670 C.3   800  HEM800      0.0000
     20  CAB       11.8830  -32.7800   -5.7820 C.2   800  HEM800      0.0000
     21  CBB       11.0500  -33.3170   -6.6880 C.2   800  HEM800      0.0000
     22  C1C       15.5320  -30.6080   -7.4250 C.2   800  HEM800      0.0000
     23  C2C       15.5280  -29.2110   -7.8330 C.2   800  HEM800      0.0000
     24  C3C       16.7740  -28.8950   -8.2010 C.2   800  HEM800      0.0000
     25  C4C       17.5890  -30.0880   -8.0360 C.2   800  HEM800      0.0000
     26  CMC       14.2950  -28.2730   -7.8330 C.3   800  HEM800      0.0000
     27  CAC       17.2920  -27.5270   -8.7160 C.2   800  HEM800      0.0000
     28  CBC       16.4710  -26.4940   -8.9350 C.2   800  HEM800      0.0000
     29  C1D       19.7540  -31.2520   -8.0290 C.ar  800  HEM800      0.0000
     30  C2D       21.1390  -31.3320   -8.4400 C.ar  800  HEM800      0.0000
     31  C3D       21.6380  -32.6640   -7.8930 C.ar  800  HEM800      0.0000
     32  C4D       20.5090  -33.2450   -7.2140 C.ar  800  HEM800      0.0000
     33  CMD       21.9610  -30.3110   -9.2540 C.3   800  HEM800      0.0000
     34  CAD       23.0530  -33.2540   -8.0440 C.3   800  HEM800      0.0000
     35  CBD       23.1830  -33.9070   -9.4170 C.3   800  HEM800      0.0000
     36  CGD       24.4770  -34.6900   -9.5060 C.2   800  HEM800      0.0000
     37  O1D       24.8010  -35.1690  -10.6360 O.co2 800  HEM800      0.0000
     38  O2D       25.1710  -34.8460   -8.4600 O.co2 800  HEM800      0.0000
     39  NA        18.2160  -34.5820   -5.8980 N.2   800  HEM800      0.0000
     40  NB        15.6560  -33.2290   -6.0130 N.ar  800  HEM800      0.0000
     41  NC        16.8090  -31.1100   -7.5560 N.2   800  HEM800      0.0000
     42  ND        19.4160  -32.3910   -7.3100 N.ar  800  HEM800      0.0000
     43 FE         17.5200  -32.8360   -6.7690 Fe    800  HEM800      0.0000
@<TRIPOS>BOND
     1    37    36   ar
     2    36    35    1
     3    36    38   ar
     4    35    34    1
     5    33    30    1
     6    28    27    2
     7    27    24    1
     8    30    29   ar
     9    30    31   ar
    10     4    25    1
    11     4    29    2
    12    24    25    1
    13    24    23    2
    14    34    31    1
    15    25    41    2
    16    29    42   ar
    17    31    32   ar
    18    23    26    1
    19    23    22    1
    20    41    22    1
    21    41    43    1
    22    22     3    2
    23    42    32   ar
    24    42    43    1
    25    32     1    2
    26     3    18    1
    27    43    40    1
    28    43    39    1
    29    21    20    2
    30     1     5    1
    31    13    12   ar
    32    18    40   ar
    33    18    17   ar
    34    11    12    1
    35    11    10    1
    36    40    15   ar
    37     5    39    2
    38     5     6    1
    39    39     8    1
    40    12    14   ar
    41    20    17    1
    42    17    16   ar
    43    15    16   ar
    44    15     2    1
    45    16    19    1
    46     8     2    2
    47     8     7    1
    48     6    10    1
    49     6     7    2
    50     7     9    1
