@<TRIPOS>MOLECULE
3s3a_HEM_A_1.pdb
 43 50 0 0 0
SMALL
GASTEIGER

@<TRIPOS>ATOM
      1  CHA      -35.4950   21.1080    6.0780 C.2   800  HEM800      0.0000
      2  CHB      -36.6150   16.8930    3.9490 C.2   800  HEM800      0.0000
      3  CHC      -32.9650   14.8010    6.3630 C.2   800  HEM800      0.0000
      4  CHD      -31.1760   19.1920    7.2830 C.2   800  HEM800      0.0000
      5  C1A      -36.1190   20.1740    5.2750 C.ar  800  HEM800      0.0000
      6  C2A      -37.2240   20.4030    4.3520 C.ar  800  HEM800      0.0000
      7  C3A      -37.5240   19.2380    3.7690 C.ar  800  HEM800      0.0000
      8  C4A      -36.6260   18.2280    4.3000 C.ar  800  HEM800      0.0000
      9  CMA      -38.6390   19.0090    2.7130 C.3   800  HEM800      0.0000
     10  CAA      -37.9330   21.7470    4.0740 C.3   800  HEM800      0.0000
     11  CBA      -38.9950   22.0150    5.1470 C.3   800  HEM800      0.0000
     12  CGA      -39.3410   23.4910    5.1590 C.2   800  HEM800      0.0000
     13  O1A      -40.4790   23.8170    5.5790 O.co2 800  HEM800      0.0000
     14  O2A      -38.5020   24.3500    4.7510 O.co2 800  HEM800      0.0000
     15  C1B      -35.7840   15.9350    4.4830 C.2   800  HEM800      0.0000
     16  C2B      -35.9230   14.4980    4.3430 C.2   800  HEM800      0.0000
     17  C3B      -34.9130   13.9280    5.0110 C.2   800  HEM800      0.0000
     18  C4B      -34.1020   14.9780    5.6000 C.2   800  HEM800      0.0000
     19  CMB      -37.0370   13.7540    3.5660 C.3   800  HEM800      0.0000
     20  CAB      -34.6540   12.4130    5.1550 C.2   800  HEM800      0.0000
     21  CBB      -34.9860   11.8320    6.3370 C.2   800  HEM800      0.0000
     22  C1C      -32.1090   15.8050    6.7430 C.ar  800  HEM800      0.0000
     23  C2C      -30.7520   15.6270    7.2420 C.ar  800  HEM800      0.0000
     24  C3C      -30.2660   16.8490    7.4980 C.ar  800  HEM800      0.0000
     25  C4C      -31.3030   17.8250    7.1650 C.ar  800  HEM800      0.0000
     26  CMC      -30.0420   14.2560    7.4230 C.3   800  HEM800      0.0000
     27  CAC      -28.8650   17.2360    8.0400 C.3   800  HEM800      0.0000
     28  CBC      -27.8090   16.3300    8.0670 C.3   800  HEM800      0.0000
     29  C1D      -32.1930   20.1100    7.1330 C.2   800  HEM800      0.0000
     30  C2D      -32.1170   21.4980    7.5580 C.2   800  HEM800      0.0000
     31  C3D      -33.4670   22.1080    7.1820 C.2   800  HEM800      0.0000
     32  C4D      -34.2150   21.0170    6.5740 C.2   800  HEM800      0.0000
     33  CMD      -30.9270   22.2250    8.2370 C.3   800  HEM800      0.0000
     34  CAD      -33.9190   23.5790    7.4060 C.3   800  HEM800      0.0000
     35  CBD      -34.0980   23.9040    8.9000 C.3   800  HEM800      0.0000
     36  CGD      -34.7860   25.2470    9.0890 C.2   800  HEM800      0.0000
     37  O1D      -35.2820   25.4890   10.2330 O.co2 800  HEM800      0.0000
     38  O2D      -34.8640   26.0950    8.0970 O.co2 800  HEM800      0.0000
     39  NA       -35.7790   18.8370    5.2170 N.ar  800  HEM800      0.0000
     40  NB       -34.6660   16.1920    5.2570 N.2   800  HEM800      0.0000
     41  NC       -32.4120   17.1600    6.7060 N.ar  800  HEM800      0.0000
     42  ND       -33.4370   19.8640    6.5730 N.2   800  HEM800      0.0000
     43 FE        -34.0650   17.9800    5.9790 Fe    800  HEM800      0.0000
@<TRIPOS>BOND
     1     9     7    1
     2    19    16    1
     3     7     8   ar
     4     7     6   ar
     5     2     8    2
     6     2    15    1
     7    10     6    1
     8    10    11    1
     9     8    39   ar
    10    16    15    1
    11    16    17    2
    12     6     5   ar
    13    15    40    2
    14    14    12   ar
    15    17    20    1
    16    17    18    1
    17    11    12    1
    18    20    21    2
    19    12    13   ar
    20    39     5   ar
    21    39    43    1
    22    40    18    1
    23    40    43    1
    24     5     1    2
    25    18     3    2
    26    43    42    1
    27    43    41    1
    28     1    32    1
    29     3    22    1
    30    42    32    2
    31    42    29    1
    32    32    31    1
    33    41    22   ar
    34    41    25   ar
    35    22    23   ar
    36    29     4    2
    37    29    30    1
    38    25     4    1
    39    25    24   ar
    40    31    34    1
    41    31    30    2
    42    23    26    1
    43    23    24   ar
    44    34    35    1
    45    24    27    1
    46    30    33    1
    47    27    28    1
    48    38    36   ar
    49    35    36    1
    50    36    37   ar
