@<TRIPOS>MOLECULE
3s3b_HEM_A_1.pdb
 43 50 0 0 0
SMALL
GASTEIGER

@<TRIPOS>ATOM
      1  CHA       20.9660  -35.4440   -5.9750 C.2   800  HEM800      0.0000
      2  CHB       16.7000  -36.6920   -4.1350 C.2   800  HEM800      0.0000
      3  CHC       14.6430  -32.8560   -6.2840 C.2   800  HEM800      0.0000
      4  CHD       19.0220  -31.1910   -7.3220 C.2   800  HEM800      0.0000
      5  C1A       20.0120  -36.1160   -5.2570 C.2   800  HEM800      0.0000
      6  C2A       20.2310  -37.2680   -4.3970 C.2   800  HEM800      0.0000
      7  C3A       19.0490  -37.5970   -3.9040 C.2   800  HEM800      0.0000
      8  C4A       18.0450  -36.6800   -4.4160 C.2   800  HEM800      0.0000
      9  CMA       18.8220  -38.7730   -2.9380 C.3   800  HEM800      0.0000
     10  CAA       21.5590  -38.0080   -4.1000 C.3   800  HEM800      0.0000
     11  CBA       21.9700  -38.8060   -5.3320 C.3   800  HEM800      0.0000
     12  CGA       23.3940  -39.2780   -5.2450 C.2   800  HEM800      0.0000
     13  O1A       23.6620  -40.3970   -5.7480 O.co2 800  HEM800      0.0000
     14  O2A       24.2610  -38.5440   -4.6920 O.co2 800  HEM800      0.0000
     15  C1B       15.7650  -35.8040   -4.6140 C.ar  800  HEM800      0.0000
     16  C2B       14.3290  -35.9210   -4.4740 C.ar  800  HEM800      0.0000
     17  C3B       13.7620  -34.8650   -5.0690 C.ar  800  HEM800      0.0000
     18  C4B       14.8170  -34.0390   -5.6130 C.ar  800  HEM800      0.0000
     19  CMB       13.5970  -37.0700   -3.7630 C.3   800  HEM800      0.0000
     20  CAB       12.2540  -34.5620   -5.1870 C.2   800  HEM800      0.0000
     21  CBB       11.5470  -35.1520   -6.1570 C.2   800  HEM800      0.0000
     22  C1C       15.6600  -32.0170   -6.6790 C.2   800  HEM800      0.0000
     23  C2C       15.5140  -30.6550   -7.1680 C.2   800  HEM800      0.0000
     24  C3C       16.7360  -30.2140   -7.4400 C.2   800  HEM800      0.0000
     25  C4C       17.6780  -31.2640   -7.1340 C.2   800  HEM800      0.0000
     26  CMC       14.1970  -29.8630   -7.3360 C.3   800  HEM800      0.0000
     27  CAC       17.1410  -28.8350   -7.9990 C.2   800  HEM800      0.0000
     28  CBC       16.2650  -27.8530   -8.1880 C.2   800  HEM800      0.0000
     29  C1D       19.9300  -32.2070   -7.1800 C.ar  800  HEM800      0.0000
     30  C2D       21.3040  -32.1890   -7.6430 C.ar  800  HEM800      0.0000
     31  C3D       21.9010  -33.5120   -7.2010 C.ar  800  HEM800      0.0000
     32  C4D       20.8360  -34.1970   -6.5290 C.ar  800  HEM800      0.0000
     33  CMD       22.0460  -31.0690   -8.3930 C.3   800  HEM800      0.0000
     34  CAD       23.3320  -34.0160   -7.4030 C.3   800  HEM800      0.0000
     35  CBD       23.5880  -34.3880   -8.8450 C.3   800  HEM800      0.0000
     36  CGD       24.9630  -34.9530   -8.8600 C.2   800  HEM800      0.0000
     37  O1D       25.4350  -35.2090   -9.9880 O.co2 800  HEM800      0.0000
     38  O2D       25.5430  -35.1270   -7.7560 O.co2 800  HEM800      0.0000
     39  NA        18.6710  -35.7790   -5.2480 N.2   800  HEM800      0.0000
     40  NB        16.0320  -34.6390   -5.3230 N.ar  800  HEM800      0.0000
     41  NC        17.0010  -32.3560   -6.6680 N.2   800  HEM800      0.0000
     42  ND        19.6870  -33.4110   -6.5400 N.ar  800  HEM800      0.0000
     43 FE         17.8590  -34.0010   -5.9170 Fe    800  HEM800      0.0000
@<TRIPOS>BOND
     1    37    36   ar
     2    36    35    1
     3    36    38   ar
     4    35    34    1
     5    33    30    1
     6    28    27    2
     7    27    24    1
     8    30    31   ar
     9    30    29   ar
    10    24    23    2
    11    24    25    1
    12    34    31    1
    13    26    23    1
    14     4    29    2
    15     4    25    1
    16    31    32   ar
    17    29    42   ar
    18    23    22    1
    19    25    41    2
    20    22    41    1
    21    22     3    2
    22    41    43    1
    23    42    32   ar
    24    42    43    1
    25    32     1    2
    26     3    18    1
    27    21    20    2
    28     1     5    1
    29    43    40    1
    30    43    39    1
    31    13    12   ar
    32    18    40   ar
    33    18    17   ar
    34    11    12    1
    35    11    10    1
    36    40    15   ar
    37     5    39    2
    38     5     6    1
    39    39     8    1
    40    12    14   ar
    41    20    17    1
    42    17    16   ar
    43    15    16   ar
    44    15     2    1
    45    16    19    1
    46     8     2    2
    47     8     7    1
    48     6    10    1
    49     6     7    2
    50     7     9    1
