@<TRIPOS>MOLECULE
3s3c_HEM_A_1.pdb
 43 50 0 0 0
SMALL
GASTEIGER

@<TRIPOS>ATOM
      1  CHA      -34.0910   20.0740    6.8470 C.2   800  HEM800      0.0000
      2  CHB      -34.8960   15.7100    4.9850 C.2   800  HEM800      0.0000
      3  CHC      -30.9990   14.1130    7.4370 C.2   800  HEM800      0.0000
      4  CHD      -29.6360   18.6690    8.2690 C.2   800  HEM800      0.0000
      5  C1A      -34.6450   19.0650    6.1060 C.ar  800  HEM800      0.0000
      6  C2A      -35.7520   19.1970    5.1820 C.ar  800  HEM800      0.0000
      7  C3A      -35.9870   17.9880    4.6580 C.ar  800  HEM800      0.0000
      8  C4A      -35.0210   17.0590    5.2420 C.ar  800  HEM800      0.0000
      9  CMA      -37.0890   17.6520    3.6160 C.3   800  HEM800      0.0000
     10  CAA      -36.5130   20.5110    4.8860 C.3   800  HEM800      0.0000
     11  CBA      -37.4450   20.8100    6.0610 C.3   800  HEM800      0.0000
     12  CGA      -38.2650   22.0500    5.7990 C.2   800  HEM800      0.0000
     13  O1A      -39.3550   22.1700    6.4290 O.co2 800  HEM800      0.0000
     14  O2A      -37.8460   22.9080    4.9650 O.co2 800  HEM800      0.0000
     15  C1B      -33.9270   14.8780    5.5050 C.2   800  HEM800      0.0000
     16  C2B      -33.8440   13.4460    5.2930 C.2   800  HEM800      0.0000
     17  C3B      -32.7710   13.0020    5.9730 C.2   800  HEM800      0.0000
     18  C4B      -32.1350   14.1380    6.6380 C.2   800  HEM800      0.0000
     19  CMB      -34.8210   12.6000    4.4400 C.3   800  HEM800      0.0000
     20  CAB      -32.2830   11.5320    6.0480 C.2   800  HEM800      0.0000
     21  CBB      -32.6700   10.7490    7.0750 C.2   800  HEM800      0.0000
     22  C1C      -30.2140   15.2080    7.7510 C.ar  800  HEM800      0.0000
     23  C2C      -28.7980   15.2120    8.0860 C.ar  800  HEM800      0.0000
     24  C3C      -28.4300   16.4810    8.3120 C.ar  800  HEM800      0.0000
     25  C4C      -29.5970   17.3100    8.1270 C.ar  800  HEM800      0.0000
     26  CMC      -27.8980   13.9620    8.1590 C.3   800  HEM800      0.0000
     27  CAC      -27.0400   17.0310    8.7030 C.2   800  HEM800      0.0000
     28  CBC      -26.2440   16.3480    9.5420 C.2   800  HEM800      0.0000
     29  C1D      -30.7470   19.4460    8.0800 C.2   800  HEM800      0.0000
     30  C2D      -30.8910   20.8050    8.5400 C.2   800  HEM800      0.0000
     31  C3D      -32.2840   21.2340    8.0870 C.2   800  HEM800      0.0000
     32  C4D      -32.8350   20.0910    7.4060 C.2   800  HEM800      0.0000
     33  CMD      -29.8680   21.6550    9.3210 C.3   800  HEM800      0.0000
     34  CAD      -32.9670   22.5960    8.3120 C.3   800  HEM800      0.0000
     35  CBD      -33.6230   22.5580    9.6840 C.3   800  HEM800      0.0000
     36  CGD      -34.3050   23.8660    9.9520 C.2   800  HEM800      0.0000
     37  O1D      -34.7170   24.0360   11.1280 O.co2 800  HEM800      0.0000
     38  O2D      -34.4300   24.7050    9.0130 O.co2 800  HEM800      0.0000
     39  NA       -34.2140   17.7580    6.1170 N.ar  800  HEM800      0.0000
     40  NB       -32.8720   15.2680    6.3220 N.2   800  HEM800      0.0000
     41  NC       -30.6630   16.5120    7.7790 N.ar  800  HEM800      0.0000
     42  ND       -31.9020   19.0560    7.4190 N.2   800  HEM800      0.0000
     43 FE        -32.4100   17.1520    6.9660 Fe    800  HEM800      0.0000
@<TRIPOS>BOND
     1     9     7    1
     2    19    16    1
     3     7     6   ar
     4     7     8   ar
     5    10     6    1
     6    10    11    1
     7    14    12   ar
     8     2     8    2
     9     2    15    1
    10     6     5   ar
    11     8    39   ar
    12    16    15    1
    13    16    17    2
    14    15    40    2
    15    12    11    1
    16    12    13   ar
    17    17    20    1
    18    17    18    1
    19    20    21    2
    20     5    39   ar
    21     5     1    2
    22    39    43    1
    23    40    18    1
    24    40    43    1
    25    18     3    2
    26     1    32    1
    27    43    42    1
    28    43    41    1
    29    32    42    2
    30    32    31    1
    31    42    29    1
    32     3    22    1
    33    22    41   ar
    34    22    23   ar
    35    41    25   ar
    36    29     4    2
    37    29    30    1
    38    23    26    1
    39    23    24   ar
    40    31    34    1
    41    31    30    2
    42    25     4    1
    43    25    24   ar
    44    34    35    1
    45    24    27    1
    46    30    33    1
    47    27    28    2
    48    38    36   ar
    49    35    36    1
    50    36    37   ar
