@<TRIPOS>MOLECULE
3s3d_HEM_A_1.pdb
 43 50 0 0 0
SMALL
GASTEIGER

@<TRIPOS>ATOM
      1  CHA      -34.0720   19.4610   -6.0900 C.2   800  HEM800      0.0000
      2  CHB      -38.2390   18.3870   -3.9720 C.2   800  HEM800      0.0000
      3  CHC      -40.3390   22.0520   -6.3320 C.2   800  HEM800      0.0000
      4  CHD      -36.0030   23.6740   -7.5520 C.2   800  HEM800      0.0000
      5  C1A      -34.9920   18.8440   -5.2810 C.2   800  HEM800      0.0000
      6  C2A      -34.7490   17.7450   -4.3570 C.2   800  HEM800      0.0000
      7  C3A      -35.9130   17.4640   -3.7830 C.2   800  HEM800      0.0000
      8  C4A      -36.9130   18.3610   -4.3170 C.2   800  HEM800      0.0000
      9  CMA      -36.1540   16.3660   -2.7250 C.3   800  HEM800      0.0000
     10  CAA      -33.4010   17.0220   -4.0790 C.3   800  HEM800      0.0000
     11  CBA      -33.0870   16.0830   -5.2530 C.3   800  HEM800      0.0000
     12  CGA      -31.6120   15.7690   -5.4150 C.2   800  HEM800      0.0000
     13  O1A      -31.3360   14.8120   -6.1810 O.co2 800  HEM800      0.0000
     14  O2A      -30.7240   16.4410   -4.8160 O.co2 800  HEM800      0.0000
     15  C1B      -39.1820   19.2260   -4.5070 C.ar  800  HEM800      0.0000
     16  C2B      -40.6120   19.0570   -4.3930 C.ar  800  HEM800      0.0000
     17  C3B      -41.1890   20.0630   -5.0430 C.ar  800  HEM800      0.0000
     18  C4B      -40.1470   20.9080   -5.5960 C.ar  800  HEM800      0.0000
     19  CMB      -41.3410   17.9130   -3.6640 C.3   800  HEM800      0.0000
     20  CAB      -42.7120   20.2740   -5.1960 C.2   800  HEM800      0.0000
     21  CBB      -43.3260   19.6530   -6.2310 C.2   800  HEM800      0.0000
     22  C1C      -39.3440   22.8800   -6.7700 C.2   800  HEM800      0.0000
     23  C2C      -39.5060   24.2420   -7.2320 C.2   800  HEM800      0.0000
     24  C3C      -38.2990   24.6820   -7.5660 C.2   800  HEM800      0.0000
     25  C4C      -37.3520   23.6140   -7.3220 C.2   800  HEM800      0.0000
     26  CMC      -40.8340   25.0290   -7.3200 C.3   800  HEM800      0.0000
     27  CAC      -37.9200   26.0720   -8.1190 C.2   800  HEM800      0.0000
     28  CBC      -38.8360   27.0450   -8.3020 C.2   800  HEM800      0.0000
     29  C1D      -35.0790   22.6840   -7.3130 C.ar  800  HEM800      0.0000
     30  C2D      -33.6610   22.7770   -7.6130 C.ar  800  HEM800      0.0000
     31  C3D      -33.0800   21.4540   -7.1430 C.ar  800  HEM800      0.0000
     32  C4D      -34.1890   20.7140   -6.6190 C.ar  800  HEM800      0.0000
     33  CMD      -32.8940   23.9590   -8.2580 C.3   800  HEM800      0.0000
     34  CAD      -31.6260   20.9780   -7.1940 C.3   800  HEM800      0.0000
     35  CBD      -31.4080   20.3040   -8.5250 C.3   800  HEM800      0.0000
     36  CGD      -29.9460   20.0230   -8.6000 C.2   800  HEM800      0.0000
     37  O1D      -29.4220   20.0550   -9.7440 O.co2 800  HEM800      0.0000
     38  O2D      -29.3340   19.7720   -7.5250 O.co2 800  HEM800      0.0000
     39  NA       -36.3180   19.1980   -5.2340 N.2   800  HEM800      0.0000
     40  NB       -38.9270   20.3630   -5.2540 N.ar  800  HEM800      0.0000
     41  NC       -38.0160   22.5250   -6.8310 N.2   800  HEM800      0.0000
     42  ND       -35.3530   21.4530   -6.7380 N.ar  800  HEM800      0.0000
     43 FE        -37.1460   20.9390   -5.9820 Fe    800  HEM800      0.0000
@<TRIPOS>BOND
     1    37    36   ar
     2    36    35    1
     3    36    38   ar
     4    35    34    1
     5    28    27    2
     6    33    30    1
     7    27    24    1
     8    30    29   ar
     9    30    31   ar
    10    24    25    1
    11    24    23    2
    12     4    25    1
    13     4    29    2
    14    25    41    2
    15    26    23    1
    16    29    42   ar
    17    23    22    1
    18    34    31    1
    19    31    32   ar
    20    41    22    1
    21    41    43    1
    22    22     3    2
    23    42    32   ar
    24    42    43    1
    25    32     1    2
    26     3    18    1
    27    21    20    2
    28    13    12   ar
    29     1     5    1
    30    43    40    1
    31    43    39    1
    32    18    40   ar
    33    18    17   ar
    34    12    11    1
    35    12    14   ar
    36     5    39    2
    37     5     6    1
    38    40    15   ar
    39    11    10    1
    40    39     8    1
    41    20    17    1
    42    17    16   ar
    43    15    16   ar
    44    15     2    1
    45    16    19    1
    46     6    10    1
    47     6     7    2
    48     8     2    2
    49     8     7    1
    50     7     9    1
