@<TRIPOS>MOLECULE
3s3g_TLT_A_1.pdb
 19 20 0 0 0
SMALL
GASTEIGER

@<TRIPOS>ATOM
      1  N         -7.4170    8.9460   17.2280 N.ar  317  TLT317     -0.3256
      2  C1        -7.0460    7.7990   17.8890 C.ar  317  TLT317      0.0486
      3  O1        -9.1340   11.1040   16.2110 O.2   317  TLT317     -0.2850
      4  C2        -8.5560    9.3950   17.7910 C.ar  317  TLT317      0.0992
      5  O2        -7.3240    5.9130   16.0210 O.co2 317  TLT317     -0.2452
      6  C3        -7.9730    7.5460   18.8770 C.ar  317  TLT317      0.0149
      7  O3        -5.0860    5.6560   15.7520 O.co2 317  TLT317     -0.2452
      8  C4        -8.9450    8.5810   18.8010 C.ar  317  TLT317      0.0216
      9  C5        -5.8210    7.0610   17.5290 C.3   317  TLT317      0.1576
     10  C6        -9.2760   10.6160   17.3530 C.2   317  TLT317      0.2112
     11  C7        -6.6790    9.5240   16.1240 C.3   317  TLT317      0.1302
     12  C8       -10.1680   11.2960   18.2880 C.ar  317  TLT317      0.0404
     13  C9        -9.6730   11.8090   19.4940 C.ar  317  TLT317      0.0029
     14  C10      -11.5240   11.4410   17.9800 C.ar  317  TLT317      0.0029
     15  C11      -11.8900   12.5950   20.0800 C.ar  317  TLT317     -0.0218
     16  C12      -10.5320   12.4610   20.3900 C.ar  317  TLT317     -0.0042
     17  C13      -12.3830   12.0870   18.8710 C.ar  317  TLT317     -0.0042
     18  C14       -6.0270    6.1470   16.3450 C.2   317  TLT317      0.3707
     19  C15      -12.8150   13.2910   21.0270 C.3   317  TLT317      0.0310
@<TRIPOS>BOND
     1     7    18   ar
     2     5    18   ar
     3    11     1    1
     4     3    10    2
     5    18     9    1
     6     1     4   ar
     7     1     2   ar
     8    10     4    1
     9    10    12    1
    10     9     2    1
    11     4     8   ar
    12     2     6   ar
    13    14    12   ar
    14    14    17   ar
    15    12    13   ar
    16     8     6   ar
    17    17    15   ar
    18    13    16   ar
    19    15    16   ar
    20    15    19    1
