@<TRIPOS>MOLECULE
3s3g_NAP_A_1.pdb
 48 52 0 0 0
SMALL
GASTEIGER

@<TRIPOS>ATOM
      1  PA         2.5490    4.8930   23.6320 P.3   316  NAP316      0.2189
      2  O1A        2.0490    3.8110   24.5430 O.3   316  NAP316     -0.4371
      3  O2A        3.5820    4.5450   22.5950 O.2   316  NAP316     -0.5170
      4  O5B        3.1150    6.0890   24.5380 O.3   316  NAP316     -0.3112
      5  C5B        3.6630    7.2840   23.9650 C.3   316  NAP316      0.1813
      6  C4B        3.9330    8.2140   25.1400 C.3   316  NAP316      0.1820
      7  O4B        4.9470    7.6110   25.9460 O.3   316  NAP316     -0.3136
      8  C3B        4.4510    9.5780   24.7270 C.3   316  NAP316      0.2157
      9  O3B        3.8710   10.5320   25.6160 O.3   316  NAP316     -0.2175
     10  C2B        5.9530    9.4810   24.9370 C.3   316  NAP316      0.2314
     11  O2B        6.5360   10.7330   25.2890 O.3   316  NAP316     -0.2630
     12  C1B        6.0470    8.5010   26.0940 C.3   316  NAP316      0.3158
     13  N9A        7.3040    7.7230   26.0740 N.pl3 316  NAP316     -0.1439
     14  C8A        7.8630    7.1350   25.0060 C.3   316  NAP316      0.3377
     15  N7A        9.0000    6.5340   25.4070 N.2   316  NAP316     -0.2095
     16  C5A        9.1470    6.7380   26.7270 C.2   316  NAP316      0.2526
     17  C6A       10.1100    6.3580   27.6570 C.2   316  NAP316      0.4393
     18  N6A       11.1890    5.6180   27.2840 N.pl3 316  NAP316      0.2180
     19  N1A        9.9620    6.7470   28.9410 N.2   316  NAP316      0.0021
     20  C2A        8.9050    7.4810   29.3170 C.3   316  NAP316      0.5254
     21  N3A        7.9630    7.8540   28.4370 N.2   316  NAP316     -0.0055
     22  C4A        8.0690    7.4950   27.1380 C.2   316  NAP316      0.3518
     23  O3         1.2600    5.6430   23.0300 O.3   316  NAP316     -0.2703
     24  PN         0.5380    5.6900   21.5950 P.3   316  NAP316      0.2189
     25  O1N        1.0930    6.8530   20.7920 O.2   316  NAP316     -0.5170
     26  O2N       -0.9530    5.6700   21.8760 O.3   316  NAP316     -0.4371
     27  O5D        0.8270    4.2760   20.8590 O.3   316  NAP316     -0.3112
     28  C5D        1.9860    4.0940   20.0500 C.3   316  NAP316      0.1813
     29  C4D        1.6100    4.1120   18.5710 C.3   316  NAP316      0.1799
     30  O4D        0.6190    3.1260   18.2480 O.3   316  NAP316     -0.3327
     31  C3D        0.9440    5.4050   18.1380 C.3   316  NAP316      0.2158
     32  O3D        1.8550    6.5220   18.0510 O.3   316  NAP316     -0.2175
     33  C2D        0.3420    4.9850   16.8180 C.3   316  NAP316      0.2309
     34  O2D        1.3710    4.9580   15.8190 O.3   316  NAP316     -0.2158
     35  C1D       -0.1410    3.5650   17.1150 C.3   316  NAP316      0.2263
     36  N1N       -1.5710    3.5700   17.4710 N.pl3 316  NAP316     -0.2787
     37  C2N       -2.4730    3.0430   16.6150 C.3   316  NAP316      0.1244
     38  C3N       -3.8350    3.0310   16.9230 C.2   316  NAP316      0.0544
     39  C7N       -4.8490    2.4380   15.9780 C.2   316  NAP316      0.2818
     40  O7N       -6.0360    2.6910   16.1260 O.2   316  NAP316     -0.2670
     41  N7N       -4.4360    1.6290   15.0060 N.am  316  NAP316     -0.0839
     42  C4N       -4.2540    3.5780   18.1240 C.2   316  NAP316      0.0033
     43  C5N       -3.3080    4.1170   18.9990 C.2   316  NAP316      0.0157
     44  C6N       -1.9610    4.0900   18.6440 C.2   316  NAP316      0.0633
     45  P2B        7.3500   11.6400   24.2390 P.3   316  NAP316      0.5328
     46  O1X        6.7040   11.3780   22.9020 O.2   316  NAP316     -0.2224
     47  O2X        7.0740   13.0190   24.7930 O.3   316  NAP316     -0.1145
     48  O3X        8.7900   11.2000   24.3870 O.3   316  NAP316     -0.1145
@<TRIPOS>BOND
     1    41    39   am
     2    34    33    1
     3    39    40    2
     4    39    38    1
     5    37    38    1
     6    37    36    1
     7    33    35    1
     8    33    31    1
     9    38    42    2
    10    35    36    1
    11    35    30    1
    12    36    44    1
    13    32    31    1
    14    42    43    1
    15    31    29    1
    16    30    29    1
    17    29    28    1
    18    44    43    2
    19    28    27    1
    20    25    24    2
    21    27    24    1
    22    24    26    1
    23    24    23    1
    24     3     1    2
    25    46    45    2
    26    23     1    1
    27     1     4    1
    28     1     2    1
    29     5     4    1
    30     5     6    1
    31    45    48    1
    32    45    47    1
    33    45    11    1
    34     8    10    1
    35     8     6    1
    36     8     9    1
    37    10    11    1
    38    10    12    1
    39    14    15    1
    40    14    13    1
    41     6     7    1
    42    15    16    2
    43     7    12    1
    44    13    12    1
    45    13    22    1
    46    16    22    1
    47    16    17    1
    48    22    21    2
    49    18    17    1
    50    17    19    2
    51    21    20    1
    52    19    20    1
