@<TRIPOS>MOLECULE
3s3h_TYR_C_1.pdb
 16 16 0 0 0
SMALL
GASTEIGER

@<TRIPOS>ATOM
      1  N         13.4060   18.1530   26.7490 N.3     1  TYR1       -0.1241
      2  CA        14.5530   18.5810   27.6030 C.3     1  TYR1        0.1605
      3  C         13.8810   18.8980   28.9350 C.2     1  TYR1        0.2264
      4  O         13.5080   17.9690   29.6930 O.2     1  TYR1       -0.2867
      5  CB        15.3750   19.7570   27.0060 C.3     1  TYR1        0.0534
      6  CG        15.9540   20.6920   28.0510 C.ar    1  TYR1       -0.0201
      7  CD1       15.5410   22.0010   28.1400 C.ar    1  TYR1       -0.0011
      8  CD2       16.8880   20.2430   28.9700 C.ar    1  TYR1       -0.0011
      9  CE1       16.0450   22.8490   29.1200 C.ar    1  TYR1        0.0371
     10  CE2       17.4000   21.0800   29.9520 C.ar    1  TYR1        0.0371
     11  CZ        16.9820   22.3880   30.0270 C.ar    1  TYR1        0.1490
     12  OH        17.4490   23.1100   30.9300 O.3     1  TYR1       -0.3998
     13  P         17.8700   24.6750   30.6820 P.3     1  TYR1        0.5887
     14  O1P       18.6160   24.6970   29.3700 O.2     1  TYR1       -0.2114
     15  O2P       18.8040   25.2030   31.8410 O.3     1  TYR1       -0.1039
     16  O3P       16.5690   25.5490   30.5980 O.3     1  TYR1       -0.1039
@<TRIPOS>BOND
     1     1     2    1
     2     5     2    1
     3     5     6    1
     4     2     3    1
     5     6     7   ar
     6     6     8   ar
     7     7     9   ar
     8     3     4    2
     9     8    10   ar
    10     9    11   ar
    11    14    13    2
    12    10    11   ar
    13    11    12    1
    14    16    13    1
    15    13    12    1
    16    13    15    1
