@<TRIPOS>MOLECULE
3s3i_CQ0_A_1.pdb
 26 29 0 0 0
SMALL
GASTEIGER

@<TRIPOS>ATOM
      1  CAA        6.9830   29.5440   31.0730 C.ar    1  CQ01       -0.0041
      2  CAB        5.7790   30.1950   31.3990 C.ar    1  CQ01       -0.0218
      3  CAC        4.6760   30.0220   30.5650 C.ar    1  CQ01       -0.0037
      4  CAD        4.7900   29.1620   29.4490 C.ar    1  CQ01        0.0043
      5  CAE        5.9750   28.5320   29.0960 C.ar    1  CQ01        0.0550
      6  CAF        7.0960   28.7560   29.9230 C.ar    1  CQ01        0.0042
      7  CAG        3.3750   30.5370   30.7200 C.ar    1  CQ01        0.0043
      8  CAH        2.9530   31.6830   30.0050 C.ar    1  CQ01        0.0393
      9  CAI        1.6500   32.1350   30.1510 C.ar    1  CQ01        0.1701
     10  NAJ        0.7880   31.4550   31.0080 N.ar    1  CQ01       -0.2759
     11  CAK        1.1850   30.2370   31.7010 C.ar    1  CQ01        0.0826
     12  CAL        2.4980   29.8150   31.5450 C.ar    1  CQ01        0.0192
     13  NAM        0.9610   33.1870   29.6460 N.ar    1  CQ01       -0.1287
     14  NAN       -0.2490   33.1940   30.0380 N.ar    1  CQ01       -0.1330
     15  CAO       -0.4660   32.1710   30.9040 C.ar    1  CQ01        0.1463
     16  CAP       -1.8340   31.7700   31.5840 C.3     1  CQ01        0.0529
     17  CAQ        5.6810   31.0640   32.6390 C.3     1  CQ01        0.0310
     18  CAR        5.9630   27.6530   27.8240 C.2     1  CQ01        0.2647
     19  NAS        6.8520   26.6460   27.7280 N.am    1  CQ01       -0.2034
     20  CAT        6.9360   25.7480   26.5820 C.3     1  CQ01        0.0957
     21  CAU        7.1770   26.4590   25.2880 C.3     1  CQ01        0.0234
     22  CAV        8.3000   25.6460   25.9180 C.3     1  CQ01        0.0234
     23  OAW        5.1540   27.8980   26.9440 O.2     1  CQ01       -0.2684
     24  CAX       -2.9280   32.7050   31.1570 C.3     1  CQ01        0.0076
     25  CAY       -1.7000   31.7690   33.1000 C.3     1  CQ01        0.0076
     26  CAZ       -2.2800   30.3590   31.0450 C.3     1  CQ01        0.0076
@<TRIPOS>BOND
     1    21    22    1
     2    21    20    1
     3    22    20    1
     4    20    19    1
     5    23    18    2
     6    19    18   am
     7    18     5    1
     8     5     4   ar
     9     5     6   ar
    10     4     3   ar
    11    13    14   ar
    12    13     9   ar
    13     6     1   ar
    14     8     9   ar
    15     8     7   ar
    16    14    15   ar
    17     9    10   ar
    18     3     7    1
    19     3     2   ar
    20     7    12   ar
    21    15    10   ar
    22    15    16    1
    23    10    11   ar
    24    26    16    1
    25     1     2   ar
    26    24    16    1
    27     2    17    1
    28    12    11   ar
    29    16    25    1
