@<TRIPOS>MOLECULE
3s3j_III_B_1.pdb
 42 43 0 0 0
SMALL
GASTEIGER

@<TRIPOS>ATOM
      1  C1         0.3810    3.2320  -22.4130 C.2   277  PHQ277      0.4218
      2  O1        -0.3110    3.0110  -21.3700 O.2   277  PHQ277     -0.2245
      3  O2         0.6740    4.5900  -22.7810 O.3   277  PHQ277     -0.4285
      4  C2        -0.1870    5.6050  -22.3330 C.3   277  PHQ277      0.2368
      5  C3        -1.6560    5.4060  -22.7230 C.ar  277  PHQ277      0.0213
      6  C4        -2.6040    5.2200  -21.7530 C.ar  277  PHQ277     -0.0007
      7  C5        -3.9540    5.0260  -22.1170 C.ar  277  PHQ277     -0.0002
      8  C6        -4.3150    5.0130  -23.4770 C.ar  277  PHQ277     -0.0000
      9  C7        -3.3610    5.1910  -24.4440 C.ar  277  PHQ277     -0.0002
     10  C8        -2.0130    5.3890  -24.0910 C.ar  277  PHQ277     -0.0007
     11  N          1.3210    2.1660  -22.8700 N.am  278  ALA278     -0.1611
     12  CA         1.2930    1.0850  -21.9040 C.3   278  ALA278      0.1765
     13  C2         1.5140   -0.2260  -22.6310 C.3   278  ALA278      0.0390
     14  C3         1.6990    0.0270  -24.1260 C.3   278  ALA278      0.0668
     15  C4         1.8390   -1.2340  -24.9970 C.2   278  ALA278      0.1512
     16  O          3.4080    1.7890  -20.9520 O.2   278  ALA278     -0.2715
     17  O2         2.8730   -1.4360  -25.6360 O.2   278  ALA278     -0.2960
     18  C6         0.6820   -2.1510  -25.0700 C.3   278  ALA278      0.0722
     19  C1         2.3040    1.2920  -20.7680 C.2   278  ALA278      0.2617
     20  N          1.8660    0.8610  -19.4300 N.am  279  VAL279     -0.1964
     21  CA         2.7670    1.0300  -18.2940 C.3   279  VAL279      0.1712
     22  C          2.6620   -0.3460  -17.6650 C.2   279  VAL279      0.2458
     23  O          1.6600   -1.0300  -17.7880 O.2   279  VAL279     -0.2730
     24  CB         2.3060    2.2040  -17.4500 C.3   279  VAL279      0.0289
     25  CG1        2.2150    3.5070  -18.2100 C.3   279  VAL279      0.0023
     26  CG2        1.0800    1.8860  -16.6390 C.3   279  VAL279      0.0023
     27  N          3.8290   -0.8240  -16.8840 N.am  280  PRO280     -0.2716
     28  CA         3.8770   -2.0880  -16.2170 C.3   280  PRO280      0.1536
     29  C          2.7450   -2.0860  -15.2650 C.2   280  PRO280      0.2599
     30  O          2.4440   -1.0840  -14.6510 O.2   280  PRO280     -0.2715
     31  CB         5.1100   -2.1170  -15.4660 C.3   280  PRO280      0.0310
     32  CG         5.9900   -1.0340  -16.0330 C.3   280  PRO280      0.0237
     33  CD         5.0440   -0.0930  -16.6820 C.3   280  PRO280      0.0939
     34  N          1.9650   -3.3020  -15.0500 N.am  281  LEU281     -0.1942
     35  CA         0.8970   -3.2200  -14.0940 C.3   281  LEU281      0.1978
     36  C          1.4950   -3.6320  -12.8050 C.2   281  LEU281      0.3842
     37  O          2.8540   -3.8210  -12.7810 O.co2 281  LEU281     -0.2437
     38  CB        -0.2230   -4.1330  -14.5410 C.3   281  LEU281      0.0333
     39  CG        -1.6280   -3.4950  -14.5450 C.3   281  LEU281      0.0023
     40  CD1       -2.6960   -4.4450  -15.0130 C.3   281  LEU281      0.0001
     41  CD2       -1.9410   -2.7900  -13.2800 C.3   281  LEU281      0.0001
     42  OXT        0.8270   -4.2850  -12.0340 O.co2 281  LEU281     -0.2437
@<TRIPOS>BOND
     1    17    15    2
     2    18    15    1
     3    15    14    1
     4     9    10   ar
     5     9     8   ar
     6    14    13    1
     7    10     5   ar
     8     8     7   ar
     9    11     1   am
    10    11    12    1
    11     3     1    1
    12     3     4    1
    13     5     4    1
    14     5     6   ar
    15    13    12    1
    16     1     2    2
    17     7     6   ar
    18    12    19    1
    19    16    19    2
    20    19    20   am
    21    20    21    1
    22    21    22    1
    23    21    24    1
    24    25    24    1
    25    23    22    2
    26    22    27   am
    27    24    26    1
    28    27    33    1
    29    27    28    1
    30    33    32    1
    31    28    31    1
    32    28    29    1
    33    32    31    1
    34    29    34   am
    35    29    30    2
    36    34    35    1
    37    40    39    1
    38    39    38    1
    39    39    41    1
    40    38    35    1
    41    35    36    1
    42    36    37   ar
    43    36    42   ar
