@<TRIPOS>MOLECULE
3s3k_CSN_B_1.pdb
 15 15 0 0 0
SMALL
GASTEIGER

@<TRIPOS>ATOM
      1  S1       -16.6410   26.5870   -3.0160 S.3   308  CSN308      0.0426
      2  O4       -17.8470   26.3510   -2.2020 O.3   308  CSN308     -0.3559
      3  O3       -16.4390   25.4710   -4.0390 O.2   308  CSN308     -0.3360
      4  O2       -15.4350   26.6120   -2.0970 O.3   308  CSN308     -0.2589
      5  O1       -16.7860   27.9340   -3.7070 O.2   308  CSN308     -0.3360
      6  O7       -19.6490   25.3920   -3.9990 O.3   308  CSN308     -0.2832
      7  O6       -16.3410   22.1620    0.5800 O.2   308  CSN308     -0.1261
      8  O5       -17.6500   20.3880   -0.4560 O.2   308  CSN308     -0.1261
      9  C6       -17.4280   24.1460   -1.1330 C.ar  308  CSN308      0.0672
     10  N1       -17.2910   21.7780   -0.4070 N.pl3 308  CSN308      0.0578
     11  C3       -19.3840   23.1650   -3.1110 C.ar  308  CSN308      0.0470
     12  C1       -18.1510   25.0180   -2.1650 C.ar  308  CSN308      0.2117
     13  C4       -18.7810   22.2720   -2.2140 C.ar  308  CSN308      0.0276
     14  C2       -19.0690   24.5310   -3.1010 C.ar  308  CSN308      0.2322
     15  C5       -17.8380   22.6760   -1.2530 C.ar  308  CSN308      0.1462
@<TRIPOS>BOND
     1     3     1    2
     2     6    14    1
     3     5     1    2
     4    11    14   ar
     5    11    13   ar
     6    14    12   ar
     7     1     2    1
     8     1     4    1
     9    13    15   ar
    10     2    12    1
    11    12     9   ar
    12    15     9   ar
    13    15    10    1
    14     8    10    2
    15    10     7    2
