@<TRIPOS>MOLECULE
3s3m_DLU_A_1.pdb
 30 33 0 0 0
SMALL
GASTEIGER

@<TRIPOS>ATOM
      1  CAA      -36.2970   25.8820  -19.4050 C.3   398  DLU398      0.0217
      2  OAB      -38.0710   34.0460  -22.7880 O.2   398  DLU398     -0.2682
      3  OAC      -36.4440   29.3970  -17.4480 O.2   398  DLU398     -0.2681
      4  OAD      -37.0250   34.2060  -18.8970 O.2   398  DLU398     -0.2829
      5  OAE      -36.5870   31.9920  -17.3810 O.3   398  DLU398     -0.2814
      6  FAF      -42.5300   39.3240  -20.9210 F     398  DLU398     -0.2041
      7  FAG      -38.4720   37.6160  -19.4090 F     398  DLU398     -0.2044
      8  CAH      -41.1360   38.1950  -22.5070 C.ar  398  DLU398      0.0295
      9  CAI      -39.9290   37.5220  -22.7650 C.ar  398  DLU398      0.0020
     10  CAJ      -40.5150   38.4550  -20.1720 C.ar  398  DLU398      0.0590
     11  CAK      -37.4540   31.7980  -21.4200 C.ar  398  DLU398      0.0841
     12  CAL      -39.3220   26.7420  -20.0760 C.3   398  DLU398      0.1458
     13  CAM      -38.6640   26.4310  -18.7080 C.3   398  DLU398      0.0520
     14  CAN      -37.7550   36.5760  -22.0470 C.3   398  DLU398      0.1440
     15  CAO      -37.2920   29.3670  -21.5130 C.3   398  DLU398      0.1572
     16  NAP      -37.4770   35.4600  -21.1520 N.am  398  DLU398     -0.1966
     17  OAQ      -39.0750   28.0700  -20.6060 O.3   398  DLU398     -0.3359
     18  CAR      -37.6420   34.2370  -21.6590 C.2   398  DLU398      0.2698
     19  CAS      -36.7650   29.4270  -18.6460 C.2   398  DLU398      0.2699
     20  CAT      -41.4050   38.6520  -21.2100 C.ar  398  DLU398      0.1424
     21  CAU      -39.3340   37.7890  -20.4310 C.ar  398  DLU398      0.1400
     22  CAV      -39.0350   37.2990  -21.7210 C.ar  398  DLU398      0.0271
     23  CAW      -36.8710   31.9030  -18.7040 C.ar  398  DLU398      0.2545
     24  CAX      -37.3830   33.0190  -20.7920 C.ar  398  DLU398      0.1143
     25  CAY      -36.9290   30.6470  -19.3340 C.ar  398  DLU398      0.1570
     26  CAZ      -37.0850   33.0910  -19.4330 C.ar  398  DLU398      0.2417
     27  CBA      -37.1930   26.8990  -18.6710 C.3   398  DLU398      0.0804
     28  CBB      -37.6350   28.1810  -20.7140 C.3   398  DLU398      0.2175
     29  NBC      -37.1670   28.2170  -19.3090 N.am  398  DLU398     -0.2528
     30  NBD      -37.2340   30.6170  -20.7180 N.ar  398  DLU398     -0.3154
@<TRIPOS>BOND
     1     2    18    2
     2     9     8   ar
     3     9    22   ar
     4     8    20   ar
     5    14    22    1
     6    14    16    1
     7    22    21   ar
     8    18    16   am
     9    18    24    1
    10    15    30    1
    11    15    28    1
    12    11    24   ar
    13    11    30   ar
    14    20     6    1
    15    20    10   ar
    16    24    26   ar
    17    30    25   ar
    18    28    17    1
    19    28    29    1
    20    17    12    1
    21    21    10   ar
    22    21     7    1
    23    12    13    1
    24    26     4    2
    25    26    23   ar
    26     1    27    1
    27    25    23   ar
    28    25    19    1
    29    29    27    1
    30    29    19   am
    31    13    27    1
    32    23     5    1
    33    19     3    2
