@<TRIPOS>MOLECULE
3s3n_DLU_A_1.pdb
 30 33 0 0 0
SMALL
GASTEIGER

@<TRIPOS>ATOM
      1  CAA      -36.0510   25.5370  -19.4090 C.3   398  DLU398      0.0217
      2  OAB      -38.3370   33.7350  -22.8200 O.2   398  DLU398     -0.2682
      3  OAC      -36.1760   29.0600  -17.6050 O.2   398  DLU398     -0.2681
      4  OAD      -37.0580   33.8630  -18.9880 O.2   398  DLU398     -0.2829
      5  OAE      -36.4790   31.6820  -17.5050 O.3   398  DLU398     -0.2814
      6  FAF      -42.5990   38.9160  -20.9320 F     398  DLU398     -0.2041
      7  FAG      -38.3960   37.5400  -19.5030 F     398  DLU398     -0.2044
      8  CAH      -41.2500   37.6480  -22.4230 C.ar  398  DLU398      0.0295
      9  CAI      -40.0450   36.9880  -22.6900 C.ar  398  DLU398      0.0020
     10  CAJ      -40.5100   38.2230  -20.1670 C.ar  398  DLU398      0.0590
     11  CAK      -37.5950   31.4450  -21.4740 C.ar  398  DLU398      0.0841
     12  CAL      -39.3790   26.7440  -19.6160 C.3   398  DLU398      0.1458
     13  CAM      -38.3730   25.9900  -18.7070 C.3   398  DLU398      0.0520
     14  CAN      -37.8220   36.2420  -22.0100 C.3   398  DLU398      0.1440
     15  CAO      -37.3830   29.0400  -21.5580 C.3   398  DLU398      0.1572
     16  NAP      -37.5780   35.0890  -21.1860 N.am  398  DLU398     -0.1966
     17  OAQ      -39.0050   27.9460  -20.4270 O.3   398  DLU398     -0.3359
     18  CAR      -37.8530   33.8900  -21.7000 C.2   398  DLU398      0.2698
     19  CAS      -36.6410   29.0870  -18.7500 C.2   398  DLU398      0.2699
     20  CAT      -41.4620   38.2540  -21.1730 C.ar  398  DLU398      0.1424
     21  CAU      -39.3300   37.5730  -20.4480 C.ar  398  DLU398      0.1400
     22  CAV      -39.0910   36.9360  -21.6830 C.ar  398  DLU398      0.0271
     23  CAW      -36.8270   31.5700  -18.8150 C.ar  398  DLU398      0.2545
     24  CAX      -37.5260   32.6690  -20.8590 C.ar  398  DLU398      0.1143
     25  CAY      -36.8930   30.3090  -19.4300 C.ar  398  DLU398      0.1570
     26  CAZ      -37.1310   32.7480  -19.5290 C.ar  398  DLU398      0.2417
     27  CBA      -36.9540   26.5600  -18.7150 C.3   398  DLU398      0.0804
     28  CBB      -37.6410   27.8550  -20.7230 C.3   398  DLU398      0.2175
     29  NBC      -37.0060   27.8620  -19.3860 N.am  398  DLU398     -0.2528
     30  NBD      -37.2890   30.2800  -20.7850 N.ar  398  DLU398     -0.3154
@<TRIPOS>BOND
     1     2    18    2
     2     9     8   ar
     3     9    22   ar
     4     8    20   ar
     5    14    22    1
     6    14    16    1
     7    18    16   am
     8    18    24    1
     9    22    21   ar
    10    15    30    1
    11    15    28    1
    12    11    24   ar
    13    11    30   ar
    14    20     6    1
    15    20    10   ar
    16    24    26   ar
    17    30    25   ar
    18    28    17    1
    19    28    29    1
    20    21    10   ar
    21    21     7    1
    22    17    12    1
    23    12    13    1
    24    26     4    2
    25    26    23   ar
    26    25    23   ar
    27    25    19    1
    28     1    27    1
    29    29    19   am
    30    29    27    1
    31    23     5    1
    32    19     3    2
    33    27    13    1
