@<TRIPOS>MOLECULE
3s3o_DLU_A_1.pdb
 30 33 0 0 0
SMALL
GASTEIGER

@<TRIPOS>ATOM
      1  CAA      -36.0990   25.7270  -19.3230 C.3   399  DLU399      0.0217
      2  OAB      -37.9060   33.8760  -22.7700 O.2   399  DLU399     -0.2682
      3  OAC      -36.5400   29.1010  -17.4580 O.2   399  DLU399     -0.2681
      4  OAD      -36.9460   33.9400  -18.7620 O.2   399  DLU399     -0.2829
      5  OAE      -36.6720   31.7120  -17.3410 O.3   399  DLU399     -0.2814
      6  FAF      -42.3660   39.1910  -20.5990 F     399  DLU399     -0.2041
      7  FAG      -38.2040   37.5450  -19.3260 F     399  DLU399     -0.2044
      8  CAH      -41.0990   38.0170  -22.2070 C.ar  399  DLU399      0.0295
      9  CAI      -39.9210   37.3330  -22.5290 C.ar  399  DLU399      0.0020
     10  CAJ      -40.3030   38.3790  -19.9200 C.ar  399  DLU399      0.0590
     11  CAK      -37.4590   31.6330  -21.4140 C.ar  399  DLU399      0.0841
     12  CAL      -39.5130   27.0120  -19.4770 C.3   399  DLU399      0.1458
     13  CAM      -38.5090   25.9630  -19.0290 C.3   399  DLU399      0.0520
     14  CAN      -37.7040   36.4330  -21.9680 C.3   399  DLU399      0.1440
     15  CAO      -37.4100   29.2060  -21.5460 C.3   399  DLU399      0.1572
     16  NAP      -37.4360   35.3050  -21.0750 N.am  399  DLU399     -0.1966
     17  OAQ      -39.0950   27.8600  -20.6220 O.3   399  DLU399     -0.3359
     18  CAR      -37.5500   34.0770  -21.6110 C.2   399  DLU399      0.2698
     19  CAS      -36.8870   29.1700  -18.6510 C.2   399  DLU399      0.2699
     20  CAT      -41.2570   38.5210  -20.9080 C.ar  399  DLU399      0.1424
     21  CAU      -39.1520   37.7040  -20.2660 C.ar  399  DLU399      0.1400
     22  CAV      -38.9500   37.1690  -21.5550 C.ar  399  DLU399      0.0271
     23  CAW      -36.9200   31.6500  -18.6720 C.ar  399  DLU399      0.2545
     24  CAX      -37.3450   32.8390  -20.7420 C.ar  399  DLU399      0.1143
     25  CAY      -37.0260   30.4020  -19.3270 C.ar  399  DLU399      0.1570
     26  CAZ      -37.0690   32.8610  -19.3650 C.ar  399  DLU399      0.2417
     27  CBA      -37.1730   26.6320  -18.7230 C.3   399  DLU399      0.0804
     28  CBB      -37.6650   27.9820  -20.7480 C.3   399  DLU399      0.2175
     29  NBC      -37.1790   27.9740  -19.3530 N.am  399  DLU399     -0.2528
     30  NBD      -37.3000   30.4140  -20.7280 N.ar  399  DLU399     -0.3154
@<TRIPOS>BOND
     1     2    18    2
     2     9     8   ar
     3     9    22   ar
     4     8    20   ar
     5    14    22    1
     6    14    16    1
     7    18    16   am
     8    18    24    1
     9    22    21   ar
    10    15    28    1
    11    15    30    1
    12    11    24   ar
    13    11    30   ar
    14    20     6    1
    15    20    10   ar
    16    28    17    1
    17    28    29    1
    18    24    26   ar
    19    30    25   ar
    20    17    12    1
    21    21    10   ar
    22    21     7    1
    23    12    13    1
    24    26     4    2
    25    26    23   ar
    26    29    27    1
    27    29    19   am
    28    25    23   ar
    29    25    19    1
    30     1    27    1
    31    13    27    1
    32    23     5    1
    33    19     3    2
