@<TRIPOS>MOLECULE
3s3p_III_B_1.pdb
 48 49 0 0 0
SMALL
GASTEIGER

@<TRIPOS>ATOM
      1  C1       -40.6750   33.5910   22.0330 C.2     1  PHQ1        0.4218
      2  O1       -40.3570   34.5470   21.2880 O.2     1  PHQ1       -0.2245
      3  O2       -42.0780   33.3370   22.2940 O.3     1  PHQ1       -0.4285
      4  C2       -43.0700   34.3200   22.0590 C.3     1  PHQ1        0.2368
      5  C3       -43.0750   35.6160   22.8690 C.ar    1  PHQ1        0.0213
      6  C4       -44.2350   36.3980   22.9110 C.ar    1  PHQ1       -0.0007
      7  C5       -44.2550   37.5820   23.6370 C.ar    1  PHQ1       -0.0002
      8  C6       -43.1150   37.9980   24.3260 C.ar    1  PHQ1       -0.0000
      9  C7       -41.9560   37.2190   24.2810 C.ar    1  PHQ1       -0.0002
     10  C8       -41.9410   36.0290   23.5570 C.ar    1  PHQ1       -0.0007
     11  C1       -33.1850   29.6960   24.5410 C.2     2  ALA2        0.3170
     12  N        -39.6950   33.0820   23.0350 N.am    2  ALA2       -0.1611
     13  CA       -38.4680   32.5310   22.4060 C.3     2  ALA2        0.1761
     14  C13      -37.6090   31.8040   23.4690 C.3     2  ALA2        0.0312
     15  C14      -36.0870   32.0690   23.4820 C.3     2  ALA2        0.0028
     16  C15      -35.2800   31.1470   24.3900 C.3     2  ALA2        0.0117
     17  C17      -33.8540   30.9720   24.0110 C.3     2  ALA2        0.1096
     18  C        -38.7420   31.6590   21.1640 C.2     2  ALA2        0.2620
     19  O        -39.5160   30.7030   21.2600 O.2     2  ALA2       -0.2715
     20  O91      -33.8940   28.7380   24.8520 O.2     2  ALA2       -0.2501
     21  O92      -31.8720   29.7700   24.9960 O.3     2  ALA2       -0.4485
     22  C93      -30.8410   30.2210   24.1620 C.3     2  ALA2        0.2086
     23  C94      -30.0600   29.2390   23.3250 C.3     2  ALA2        0.0513
     24  N        -38.0530   32.0220   19.8340 N.am    3  GLN3       -0.1918
     25  CA       -38.3220   31.2290   18.6250 C.3     3  GLN3        0.1934
     26  C        -37.0440   31.0840   17.8410 C.2     3  GLN3        0.2501
     27  O        -36.2700   32.0370   17.7560 O.2     3  GLN3       -0.2726
     28  CB       -39.4050   31.8990   17.7640 C.2     3  GLN3        0.0090
     29  CG       -40.8070   32.0440   18.3010 C.2     3  GLN3        0.0587
     30  CD       -41.7010   33.0700   17.5800 C.2     3  GLN3        0.2841
     31  OE1      -41.2050   33.8360   16.7740 O.2     3  GLN3       -0.2667
     32  NE2      -43.1700   33.1300   17.8460 N.am    3  GLN3       -0.0837
     33  N        -36.7550   29.8300   17.1560 N.am    4  PRO4       -0.2713
     34  CA       -35.6160   29.5540   16.3350 C.3     4  PRO4        0.1536
     35  C        -35.5420   30.5680   15.2400 C.2     4  PRO4        0.2599
     36  O        -36.5510   30.9810   14.6830 O.2     4  PRO4       -0.2715
     37  CB       -35.8100   28.1810   15.7370 C.3     4  PRO4        0.0310
     38  CG       -36.8410   27.5440   16.6190 C.3     4  PRO4        0.0237
     39  CD       -37.6110   28.6850   17.1920 C.3     4  PRO4        0.0939
     40  N        -34.2680   31.0800   14.8410 N.am    5  LEU5       -0.1942
     41  CA       -34.2150   32.0960   13.7630 C.3     5  LEU5        0.1978
     42  C        -34.7310   31.4510   12.4920 C.2     5  LEU5        0.3842
     43  O        -34.7450   30.2040   12.3900 O.co2   5  LEU5       -0.2437
     44  CB       -32.8440   32.6400   13.5760 C.3     5  LEU5        0.0333
     45  CG       -32.5250   33.9310   14.3220 C.3     5  LEU5        0.0023
     46  CD1      -31.4250   34.6860   13.7330 C.3     5  LEU5        0.0001
     47  CD2      -33.7890   34.7950   14.6370 C.3     5  LEU5        0.0001
     48  OXT      -35.1560   32.1700   11.5440 O.co2   5  LEU5       -0.2437
@<TRIPOS>BOND
     1    48    42   ar
     2    43    42   ar
     3    42    41    1
     4    44    41    1
     5    44    45    1
     6    46    45    1
     7    41    40    1
     8    45    47    1
     9    36    35    2
    10    40    35   am
    11    35    34    1
    12    37    34    1
    13    37    38    1
    14    34    33    1
    15    38    39    1
    16    31    30    2
    17    33    39    1
    18    33    26   am
    19    30    32   am
    20    30    29    1
    21    27    26    2
    22    28    29    2
    23    28    25    1
    24    26    25    1
    25    25    24    1
    26    24    18   am
    27    18    19    2
    28    18    13    1
    29     2     1    2
    30     1     3    1
    31     1    12   am
    32     4     3    1
    33     4     5    1
    34    13    12    1
    35    13    14    1
    36     5     6   ar
    37     5    10   ar
    38     6     7   ar
    39    23    22    1
    40    14    15    1
    41    15    16    1
    42    10     9   ar
    43     7     8   ar
    44    17    16    1
    45    17    11    1
    46    22    21    1
    47     9     8   ar
    48    11    20    2
    49    11    21    1
