@<TRIPOS>MOLECULE
3s3q_C1P_A_1.pdb
 37 39 0 0 0
SMALL
GASTEIGER

@<TRIPOS>ATOM
      1  N1        20.8400   10.5570   21.8310 N.am    1  C1P1       -0.1808
      2  C15       21.7280   11.4630   22.2660 C.2     1  C1P1        0.3238
      3  O16       21.6500   12.6250   21.8770 O.2     1  C1P1       -0.2508
      4  N9        22.6970   11.1200   23.1390 N.am    1  C1P1       -0.2577
      5  C14       22.8640    9.7340   23.6090 C.3     1  C1P1        0.1271
      6  C13       23.1520    9.7470   25.1160 C.3     1  C1P1        0.1637
      7  O12       24.2910   10.5920   25.3180 O.3     1  C1P1       -0.3501
      8  C11       23.9660   11.9550   25.0730 C.3     1  C1P1        0.1637
      9  C10       23.6600   12.1460   23.5910 C.3     1  C1P1        0.1271
     10  C2        19.7580   10.9450   20.9030 C.3     1  C1P1        0.1743
     11  C3        18.8680   11.9500   21.6030 C.2     1  C1P1        0.2612
     12  O4        18.3790   11.6330   22.6760 O.2     1  C1P1       -0.2715
     13  N28       18.6710   13.1590   21.0430 N.am    1  C1P1       -0.2057
     14  C19       17.8320   14.1700   21.7190 C.3     1  C1P1        0.0975
     15  C18       16.5940   14.4920   20.8480 C.3     1  C1P1        0.0474
     16  C17       16.8530   15.1470   19.4900 C.3     1  C1P1        0.1577
     17  S33       16.1320   16.6610   19.3770 S.O2    1  C1P1        0.0087
     18  O34       14.6970   16.5920   19.3330 O.2     1  C1P1       -0.1686
     19  O35       16.5110   17.4590   20.5100 O.2     1  C1P1       -0.1686
     20  C32       16.7890   17.3710   18.1100 C.ar    1  C1P1        0.1057
     21  C36       16.2970   17.2000   16.8120 C.ar    1  C1P1        0.0183
     22  C37       16.9300   17.8660   15.7520 C.ar    1  C1P1        0.0013
     23  C29       18.0240   18.6960   15.9850 C.ar    1  C1P1        0.0001
     24  C30       18.5180   18.8720   17.2810 C.ar    1  C1P1        0.0013
     25  C31       17.9010   18.2020   18.3390 C.ar    1  C1P1        0.0183
     26  C20       18.6710   15.4240   21.9080 C.3     1  C1P1        0.0264
     27  C21       19.6860   15.2400   23.0360 C.3     1  C1P1        0.0281
     28  C22       20.5680   16.4540   23.2080 C.ar    1  C1P1       -0.0221
     29  C23       20.2580   17.3880   24.2030 C.ar    1  C1P1       -0.0043
     30  C24       21.0750   18.5070   24.3970 C.ar    1  C1P1       -0.0003
     31  C25       22.1920   18.6800   23.5870 C.ar    1  C1P1       -0.0000
     32  C26       22.5130   17.7450   22.6010 C.ar    1  C1P1       -0.0003
     33  C27       21.6980   16.6250   22.3950 C.ar    1  C1P1       -0.0043
     34  C5        18.9330    9.6980   20.5860 C.3     1  C1P1        0.0312
     35  C6        19.6490    8.7190   19.6490 C.3     1  C1P1        0.0022
     36  C7        19.9820    9.3500   18.3130 C.3     1  C1P1        0.0001
     37  C8        18.7940    7.5080   19.3710 C.3     1  C1P1        0.0001
@<TRIPOS>BOND
     1    22    23   ar
     2    22    21   ar
     3    23    24   ar
     4    21    20   ar
     5    24    25   ar
     6    20    25   ar
     7    20    17    1
     8    36    35    1
     9    18    17    2
    10    37    35    1
    11    17    16    1
    12    17    19    2
    13    16    15    1
    14    35    34    1
    15    34    10    1
    16    15    14    1
    17    10    11    1
    18    10     1    1
    19    13    11   am
    20    13    14    1
    21    11    12    2
    22    14    26    1
    23     1     2   am
    24     3     2    2
    25    26    27    1
    26     2     4   am
    27    33    32   ar
    28    33    28   ar
    29    32    31   ar
    30    27    28    1
    31     4     9    1
    32     4     5    1
    33    28    29   ar
    34    31    30   ar
    35     9     8    1
    36     5     6    1
    37    29    30   ar
    38     8     7    1
    39     6     7    1
