@<TRIPOS>MOLECULE
3s3r_0IW_A_1.pdb
 41 44 0 0 0
SMALL
GASTEIGER

@<TRIPOS>ATOM
      1  N1         0.8360  -14.5110  -22.7020 N.am  324  0IW324     -0.2600
      2  C          1.6460  -14.6220  -21.6330 C.2   324  0IW324      0.3237
      3  O          2.6330  -15.3620  -21.6570 O.2   324  0IW324     -0.2508
      4  C2        -0.3400  -13.6360  -22.7040 C.3   324  0IW324      0.1123
      5  C3        -0.8730  -13.4730  -24.1180 C.3   324  0IW324      0.0940
      6  N4        -1.1280  -14.8020  -24.6500 N.3   324  0IW324     -0.2686
      7  CM        -2.3170  -15.0370  -25.4610 C.3   324  0IW324      0.0897
      8  C5        -0.2010  -15.9020  -24.3970 C.3   324  0IW324      0.0940
      9  C6         1.1090  -15.2790  -23.9230 C.3   324  0IW324      0.1123
     10  N          1.3630  -13.9180  -20.5330 N.am  324  0IW324     -0.1804
     11  CA         2.1910  -13.9920  -19.3270 C.3   324  0IW324      0.1786
     12  C1         2.0430  -15.3480  -18.6960 C.2   324  0IW324      0.2616
     13  O1         0.9370  -15.7740  -18.4520 O.2   324  0IW324     -0.2715
     14  CB         1.6870  -12.8920  -18.3810 C.3   324  0IW324      0.0575
     15  CG         2.2090  -11.5380  -18.8160 C.ar  324  0IW324     -0.0200
     16  CD1        3.3930  -11.0360  -18.2660 C.ar  324  0IW324     -0.0042
     17  CD2        1.5100  -10.7870  -19.7600 C.ar  324  0IW324     -0.0042
     18  CE1        3.8670   -9.7850  -18.6700 C.ar  324  0IW324     -0.0003
     19  CE2        1.9780   -9.5370  -20.1610 C.ar  324  0IW324     -0.0003
     20  CZ         3.1570   -9.0340  -19.6120 C.ar  324  0IW324     -0.0000
     21  C11        5.1690  -16.9180  -16.3090 C.3   324  0IW324      0.1577
     22  C21        3.7030  -17.3150  -16.4480 C.3   324  0IW324      0.0474
     23  C31        3.1000  -17.3700  -17.8600 C.3   324  0IW324      0.0975
     24  N2         3.1480  -16.0380  -18.4480 N.am  324  0IW324     -0.2057
     25  C4         3.9490  -18.2510  -18.7700 C.3   324  0IW324      0.0264
     26  C51        3.4030  -18.3410  -20.1880 C.3   324  0IW324      0.0281
     27  C1'        4.0910  -19.5040  -20.8540 C.ar  324  0IW324     -0.0221
     28  C2'        3.5010  -20.7740  -20.8030 C.ar  324  0IW324     -0.0043
     29  C3'        4.1500  -21.8470  -21.4020 C.ar  324  0IW324     -0.0003
     30  C4'        5.3650  -21.6430  -22.0570 C.ar  324  0IW324     -0.0000
     31  C5'        5.9520  -20.3730  -22.1050 C.ar  324  0IW324     -0.0003
     32  C6'        5.3120  -19.2950  -21.4970 C.ar  324  0IW324     -0.0043
     33  C12        6.3640  -21.8570  -17.6970 C.ar  324  0IW324      0.0001
     34  C22        5.5550  -21.7690  -16.5480 C.ar  324  0IW324      0.0013
     35  C32        5.4460  -20.5640  -15.8230 C.ar  324  0IW324      0.0183
     36  C41        6.1520  -19.4390  -16.2500 C.ar  324  0IW324      0.1057
     37  S1         6.0730  -18.0490  -15.4620 S.O2  324  0IW324      0.0087
     38  O11        5.5530  -18.1990  -14.1350 O.2   324  0IW324     -0.1686
     39  O2         7.4260  -17.5740  -15.3300 O.2   324  0IW324     -0.1686
     40  C52        6.9640  -19.5380  -17.3860 C.ar  324  0IW324      0.0183
     41  C61        7.0790  -20.7320  -18.1180 C.ar  324  0IW324      0.0013
@<TRIPOS>BOND
     1     7     6    1
     2     6     8    1
     3     6     5    1
     4     8     9    1
     5     5     4    1
     6     9     1    1
     7     4     1    1
     8     1     2   am
     9    31    30   ar
    10    31    32   ar
    11    30    29   ar
    12     3     2    2
    13     2    10   am
    14    32    27   ar
    15    29    28   ar
    16    27    28   ar
    17    27    26    1
    18    10    11    1
    19    26    25    1
    20    19    17   ar
    21    19    20   ar
    22    17    15   ar
    23    20    18   ar
    24    11    12    1
    25    11    14    1
    26    15    14    1
    27    15    16   ar
    28    25    23    1
    29    12    13    2
    30    12    24   am
    31    18    16   ar
    32    24    23    1
    33    41    33   ar
    34    41    40   ar
    35    23    22    1
    36    33    34   ar
    37    40    36   ar
    38    34    35   ar
    39    22    21    1
    40    21    37    1
    41    36    35   ar
    42    36    37    1
    43    37    39    2
    44    37    38    2
