@<TRIPOS>MOLECULE
3s3s_III_B_1.pdb
 46 47 0 0 0
SMALL
GASTEIGER

@<TRIPOS>ATOM
      1  C1        41.0740  -33.8420   22.1640 C.2     1  PHQ1        0.4218
      2  O1        40.6760  -34.7300   21.4410 O.2     1  PHQ1       -0.2245
      3  O2        42.4170  -33.7570   22.5270 O.3     1  PHQ1       -0.4285
      4  C2        43.3500  -34.7640   22.1640 C.3     1  PHQ1        0.2368
      5  C3        43.2420  -36.0930   22.8480 C.ar    1  PHQ1        0.0213
      6  C4        44.3660  -36.8760   23.0100 C.ar    1  PHQ1       -0.0007
      7  C5        44.2580  -38.1050   23.6500 C.ar    1  PHQ1       -0.0002
      8  C6        43.0250  -38.5470   24.1190 C.ar    1  PHQ1       -0.0000
      9  C7        41.8960  -37.7660   23.9540 C.ar    1  PHQ1       -0.0002
     10  C8        42.0050  -36.5380   23.3300 C.ar    1  PHQ1       -0.0007
     11  C1        33.3780  -30.3410   24.2770 C.2     2  ALA2        0.3170
     12  N         40.1470  -33.1770   23.0610 N.am    2  ALA2       -0.1611
     13  CA        38.8600  -32.8620   22.4150 C.3     2  ALA2        0.1761
     14  C13       37.8980  -32.1820   23.4380 C.3     2  ALA2        0.0312
     15  C14       36.3680  -32.4160   23.2480 C.3     2  ALA2        0.0028
     16  C15       35.5830  -31.5860   24.2300 C.3     2  ALA2        0.0117
     17  C17       34.1090  -31.5580   23.8630 C.3     2  ALA2        0.1096
     18  C         39.1200  -32.0240   21.1660 C.2     2  ALA2        0.2617
     19  O         39.8020  -30.9940   21.2310 O.2     2  ALA2       -0.2715
     20  O91       34.0040  -29.2970   24.5220 O.2     2  ALA2       -0.2501
     21  O92       32.0660  -30.4710   24.7360 O.3     2  ALA2       -0.4485
     22  C93       31.1790  -29.4330   24.5630 C.3     2  ALA2        0.2086
     23  C94       29.8600  -29.7200   23.8160 C.3     2  ALA2        0.0513
     24  N         38.5210  -32.4830   19.8940 N.am    3  VAL3       -0.1964
     25  CA        38.7440  -31.7540   18.6400 C.3     3  VAL3        0.1712
     26  C         37.4210  -31.5690   17.8930 C.2     3  VAL3        0.2458
     27  O         36.6120  -32.5020   17.8120 O.2     3  VAL3       -0.2730
     28  CB        39.8130  -32.5110   17.8450 C.3     3  VAL3        0.0289
     29  CG1       39.4150  -32.9470   16.4570 C.3     3  VAL3        0.0023
     30  CG2       41.2440  -31.9670   17.9500 C.3     3  VAL3        0.0023
     31  N         37.1150  -30.2400   17.2950 N.am    4  PRO4       -0.2716
     32  CA        35.9410  -29.9030   16.5380 C.3     4  PRO4        0.1536
     33  C         35.8970  -30.8210   15.3820 C.2     4  PRO4        0.2599
     34  O         36.9420  -31.1420   14.8390 O.2     4  PRO4       -0.2715
     35  CB        36.1240  -28.5290   16.0220 C.3     4  PRO4        0.0310
     36  CG        37.2050  -27.9280   16.8610 C.3     4  PRO4        0.0237
     37  CD        37.9910  -29.0970   17.3370 C.3     4  PRO4        0.0939
     38  N         34.6170  -31.3560   14.8740 N.am    5  LEU5       -0.1942
     39  CA        34.6070  -32.2820   13.7070 C.3     5  LEU5        0.1978
     40  C         35.1070  -31.7260   12.3640 C.2     5  LEU5        0.3842
     41  O         35.6230  -32.5640   11.4330 O.co2   5  LEU5       -0.2437
     42  CB        33.1950  -32.9140   13.5870 C.3     5  LEU5        0.0333
     43  CG        32.9340  -34.1730   14.4270 C.3     5  LEU5        0.0023
     44  CD1       31.7650  -35.0100   13.9260 C.3     5  LEU5        0.0001
     45  CD2       34.1590  -34.9660   14.6800 C.3     5  LEU5        0.0001
     46  OXT       35.2190  -30.5150   12.2200 O.co2   5  LEU5       -0.2437
@<TRIPOS>BOND
     1    41    40   ar
     2    46    40   ar
     3    40    39    1
     4    42    39    1
     5    42    43    1
     6    39    38    1
     7    44    43    1
     8    43    45    1
     9    34    33    2
    10    38    33   am
    11    33    32    1
    12    35    32    1
    13    35    36    1
    14    29    28    1
    15    32    31    1
    16    36    37    1
    17    31    37    1
    18    31    26   am
    19    27    26    2
    20    28    30    1
    21    28    25    1
    22    26    25    1
    23    25    24    1
    24    24    18   am
    25    18    19    2
    26    18    13    1
    27     2     1    2
    28     4     3    1
    29     4     5    1
    30     1     3    1
    31     1    12   am
    32    13    12    1
    33    13    14    1
    34     5     6   ar
    35     5    10   ar
    36     6     7   ar
    37    15    14    1
    38    15    16    1
    39    10     9   ar
    40     7     8   ar
    41    23    22    1
    42    17    16    1
    43    17    11    1
    44     9     8   ar
    45    11    20    2
    46    11    21    1
    47    22    21    1
