@<TRIPOS>MOLECULE
3s3t_ATP_A_1.pdb
 31 33 0 0 0
SMALL
GASTEIGER

@<TRIPOS>ATOM
      1  PG        11.6710    0.1090    4.3860 P.3   501  ATP501      0.5373
      2  O1G       12.0140   -0.4440    5.7500 O.3   501  ATP501     -0.1143
      3  O2G       12.6140   -0.3700    3.3250 O.2   501  ATP501     -0.2221
      4  O3G       10.2350   -0.0940    3.9220 O.3   501  ATP501     -0.1143
      5  PB        12.7360    2.6740    5.3320 P.3   501  ATP501      0.2277
      6  O1B       13.3360    3.7650    4.4920 O.2   501  ATP501     -0.5168
      7  O2B       13.6300    1.9200    6.2560 O.3   501  ATP501     -0.4368
      8  O3B       11.9460    1.6990    4.3430 O.3   501  ATP501     -0.2258
      9  PA        10.7070    2.8670    7.4040 P.3   501  ATP501      0.2189
     10  O1A       11.2980    1.6430    8.0320 O.3   501  ATP501     -0.4371
     11  O2A        9.2770    2.7740    7.0610 O.2   501  ATP501     -0.5170
     12  O3A       11.5060    3.3700    6.1260 O.3   501  ATP501     -0.2700
     13  O5'       10.9410    4.0720    8.4940 O.3   501  ATP501     -0.3112
     14  C5'       10.0050    5.1470    8.5460 C.3   501  ATP501      0.1813
     15  C4'        9.8580    5.6470    9.9860 C.3   501  ATP501      0.1821
     16  O4'        9.4310    4.5110   10.7280 O.3   501  ATP501     -0.3135
     17  C3'       11.1620    6.0840   10.6330 C.3   501  ATP501      0.2184
     18  O3'       11.5040    7.4270   10.3320 O.3   501  ATP501     -0.2174
     19  C2'       10.8270    5.8030   12.0770 C.3   501  ATP501      0.2570
     20  O2'       10.0220    6.8820   12.5320 O.3   501  ATP501     -0.2130
     21  C1'       10.0040    4.5230   12.0260 C.3   501  ATP501      0.3186
     22  N9        10.8240    3.3350   12.2520 N.pl3 501  ATP501     -0.1439
     23  C8        11.4380    2.5560   11.3080 C.3   501  ATP501      0.3377
     24  N7        12.1380    1.5560   11.8910 N.2   501  ATP501     -0.2095
     25  C5        11.9640    1.7040   13.2090 C.2   501  ATP501      0.2526
     26  C6        12.4490    1.0030   14.3920 C.2   501  ATP501      0.4393
     27  N6        13.2500   -0.0690   14.2230 N.pl3 501  ATP501      0.2180
     28  N1        12.0550    1.4580   15.6340 N.2   501  ATP501      0.0021
     29  C2        11.2560    2.5320   15.7360 C.3   501  ATP501      0.5254
     30  N3        10.8040    3.2580   14.7040 N.2   501  ATP501     -0.0055
     31  C4        11.1210    2.8730   13.4480 C.2   501  ATP501      0.3518
@<TRIPOS>BOND
     1     3     1    2
     2     4     1    1
     3     8     1    1
     4     8     5    1
     5     1     2    1
     6     6     5    2
     7     5    12    1
     8     5     7    1
     9    12     9    1
    10    11     9    2
    11     9    10    1
    12     9    13    1
    13    13    14    1
    14    14    15    1
    15    15    17    1
    16    15    16    1
    17    18    17    1
    18    17    19    1
    19    16    21    1
    20    23    24    1
    21    23    22    1
    22    24    25    2
    23    21    19    1
    24    21    22    1
    25    19    20    1
    26    22    31    1
    27    25    31    1
    28    25    26    1
    29    31    30    2
    30    27    26    1
    31    26    28    2
    32    30    29    1
    33    28    29    1
