@<TRIPOS>MOLECULE
3s3v_TOP_A_1.pdb
 21 22 0 0 0
SMALL
GASTEIGER

@<TRIPOS>ATOM
      1  C1        16.4120    5.4590    2.7790 C.2   187  TOP187      0.1118
      2  N2        16.8690    5.9450    3.9240 N.2   187  TOP187     -0.1675
      3  C3        17.7980    7.0010    3.9810 C.1   187  TOP187      0.1877
      4  N4        18.1990    7.4510    5.2160 N.pl3 187  TOP187     -0.0345
      5  N5        18.3110    7.4730    2.8510 N.2   187  TOP187     -0.3170
      6  C6        17.9410    6.9990    1.6570 C.2   187  TOP187      0.2297
      7  N7        18.4700    7.5740    0.5670 N.pl3 187  TOP187     -0.0924
      8  C8        16.9160    5.9390    1.5660 C.2   187  TOP187      0.0500
      9  C9        16.3050    5.3940    0.3060 C.3   187  TOP187      0.0585
     10  C10       15.1070    6.2160   -0.2030 C.ar  187  TOP187     -0.0114
     11  C11       13.8970    6.2670    0.5090 C.ar  187  TOP187      0.0363
     12  C12       12.8190    7.0650    0.0010 C.ar  187  TOP187      0.1751
     13  O13       11.5820    7.1870    0.5260 O.3   187  TOP187     -0.4683
     14  C14       11.4560    6.5320    1.8190 C.3   187  TOP187      0.2526
     15  C15       12.8990    7.6560   -1.3040 C.ar  187  TOP187      0.2060
     16  O16       11.7470    8.3270   -1.7410 O.3   187  TOP187     -0.4654
     17  C17       11.0300    7.5350   -2.7570 C.3   187  TOP187      0.2528
     18  C18       14.1150    7.5150   -2.0070 C.ar  187  TOP187      0.1751
     19  O19       14.0980    8.2110   -3.2170 O.3   187  TOP187     -0.4683
     20  C20       15.3160    8.0590   -3.9210 C.3   187  TOP187      0.2526
     21  C21       15.2650    6.8440   -1.4940 C.ar  187  TOP187      0.0363
@<TRIPOS>BOND
     1    20    19    1
     2    19    18    1
     3    17    16    1
     4    18    21   ar
     5    18    15   ar
     6    16    15    1
     7    21    10   ar
     8    15    12   ar
     9    10     9    1
    10    10    11   ar
    11    12    11   ar
    12    12    13    1
    13     9     8    1
    14    13    14    1
    15     7     6    1
    16     8     6    1
    17     8     1    2
    18     6     5    2
    19     1     2    1
    20     5     3    2
    21     2     3    2
    22     3     4    1
