@<TRIPOS>MOLECULE
3s41_GLC_A_1.pdb
 12 12 0 0 0
SMALL
GASTEIGER

@<TRIPOS>ATOM
      1  C1       -28.0290   -5.6060   12.0790 C.3   500  GLC500      0.3024
      2  C2       -26.9970   -6.3900   12.8900 C.3   500  GLC500      0.2434
      3  C3       -26.0140   -5.4350   13.6120 C.3   500  GLC500      0.2199
      4  C4       -25.3660   -4.4960   12.5470 C.3   500  GLC500      0.2144
      5  C5       -26.4470   -3.8140   11.6260 C.3   500  GLC500      0.1836
      6  C6       -25.9240   -3.1050   10.3950 C.3   500  GLC500      0.2142
      7  O1       -28.7440   -4.6700   13.0080 O.3   500  GLC500     -0.1869
      8  O2       -27.6390   -7.2080   13.8380 O.3   500  GLC500     -0.2148
      9  O3       -24.9720   -6.1980   14.2060 O.3   500  GLC500     -0.2174
     10  O4       -24.4920   -3.5640   13.1440 O.3   500  GLC500     -0.2176
     11  O5       -27.3700   -4.7880   11.1540 O.3   500  GLC500     -0.3236
     12  O6       -25.0270   -3.8580    9.6630 O.3   500  GLC500     -0.2176
@<TRIPOS>BOND
     1    12     6    1
     2     6     5    1
     3    11     5    1
     4    11     1    1
     5     5     4    1
     6     1     2    1
     7     1     7    1
     8     4    10    1
     9     4     3    1
    10     2     3    1
    11     2     8    1
    12     3     9    1
