@<TRIPOS>MOLECULE
3s41_S41_A_1.pdb
 32 35 0 0 0
SMALL
GASTEIGER

@<TRIPOS>ATOM
      1  C1       -11.2670    3.6130   20.9530 C.ar  4000  S414000     0.1480
      2  C2       -10.8290    4.2830   19.7810 C.ar  4000  S414000     0.0717
      3  C3        -9.8210    3.7380   18.9650 C.ar  4000  S414000     0.1482
      4  C4        -9.2860    2.5110   19.2930 C.ar  4000  S414000     0.0446
      5  C5        -9.6840    1.8600   20.4770 C.ar  4000  S414000     0.0881
      6  C6       -10.6920    2.3920   21.2930 C.ar  4000  S414000     0.0446
      7  O7       -12.2090    4.3840   21.5340 O.2   4000  S414000    -0.4576
      8  C8       -12.4500    5.4750   20.7790 C.ar  4000  S414000     0.1234
      9  C9       -11.6330    5.4980   19.7080 C.ar  4000  S414000     0.0390
     10  C10      -13.4640    6.5420   21.1120 C.3   4000  S414000     0.0725
     11  C11       -9.1200    0.5370   20.7760 C.2   4000  S414000     0.3755
     12  O12       -9.5140    4.3660   17.7990 O.3   4000  S414000    -0.4540
     13  O13       -8.5370   -0.0440   19.8830 O.2   4000  S414000    -0.2377
     14  N14       -9.3350   -0.0130   21.9920 N.am  4000  S414000     0.0337
     15  C15       -8.2670    4.4190   17.2540 C.2   4000  S414000     0.1679
     16  C16       -7.0920    4.3800   18.0250 C.2   4000  S414000     0.1446
     17  N17       -5.9190    4.4350   17.4270 N.2   4000  S414000    -0.1859
     18  C18       -5.8440    4.5770   16.1070 C.1   4000  S414000     0.0865
     19  N19       -6.9320    4.6560   15.3400 N.2   4000  S414000    -0.2080
     20  C20       -8.1380    4.5910   15.8690 C.3   4000  S414000     0.2020
     21  C21       -4.5020    4.7100   15.4690 C.2   4000  S414000     0.3120
     22  N22       -3.7350    3.6040   15.2130 N.am  4000  S414000    -0.2646
     23  O23       -4.1280    5.8460   15.1800 O.2   4000  S414000    -0.2586
     24  C24       -4.2200    2.2560   15.5460 C.3   4000  S414000     0.1159
     25  C25       -2.4250    3.7410   14.5630 C.3   4000  S414000     0.1159
     26  C26       -8.9270   -1.2660   22.4400 C.2   4000  S414000     0.3654
     27  N27       -9.3520   -1.6150   23.6550 N.2   4000  S414000    -0.0575
     28  C28       -9.0290   -2.8080   24.1580 C.3   4000  S414000     0.3036
     29  C29       -8.2380   -3.6890   23.4190 C.2   4000  S414000     0.0857
     30  N30       -7.8030   -3.3440   22.2000 N.2   4000  S414000    -0.2617
     31  C31       -8.1460   -2.1610   21.6850 C.3   4000  S414000     0.2454
     32  C32       -7.9010   -5.0320   24.0130 C.3   4000  S414000     0.0515
@<TRIPOS>BOND
     1    25    22    1
     2    23    21    2
     3    22    21   am
     4    22    24    1
     5    19    20    1
     6    19    18    2
     7    21    18    1
     8    20    15    1
     9    18    17    2
    10    15    12    1
    11    15    16    2
    12    17    16    1
    13    12     3    1
    14     3     4   ar
    15     3     2   ar
    16     4     5   ar
    17     9     2   ar
    18     9     8   ar
    19     2     1   ar
    20    13    11    2
    21     5    11    1
    22     5     6   ar
    23    11    14   am
    24     8    10    1
    25     8     7   ar
    26     1     6   ar
    27     1     7   ar
    28    31    30    1
    29    31    26    1
    30    14    26    1
    31    30    29    2
    32    26    27    2
    33    29    32    1
    34    29    28    1
    35    27    28    1
