@<TRIPOS>MOLECULE
3s43_478_A_1.pdb
 35 37 0 0 0
SMALL
GASTEIGER

@<TRIPOS>ATOM
      1  C1        12.6350   18.2260   19.7570 C.3   401  478401      0.1856
      2  C2        14.6010   19.0590   20.8660 C.3   401  478401      0.0784
      3  C3        14.7900   20.7470   18.3190 C.2   401  478401      0.4211
      4  C4        13.9950   18.8340   19.4730 C.3   401  478401      0.2024
      5  C5        15.2610   22.9200   17.1960 C.3   401  478401      0.1347
      6  C6        15.6900   24.0290   18.1510 C.3   401  478401      0.1898
      7  C7        14.4680   23.3860   15.9600 C.3   401  478401      0.0508
      8  C8        14.0620   22.2520   15.0600 C.ar  401  478401     -0.0204
      9  C9        12.7810   21.7330   15.0120 C.ar  401  478401     -0.0042
     10  C10       15.0160   21.6200   14.2340 C.ar  401  478401     -0.0042
     11  C11       12.4870   20.5960   14.2590 C.ar  401  478401     -0.0003
     12  C12       14.7740   20.5230   13.4130 C.ar  401  478401     -0.0003
     13  C13       13.4750   20.0120   13.4750 C.ar  401  478401     -0.0000
     14  C14       16.7510   24.9870   17.5370 C.3   401  478401      0.1304
     15  C15       18.9000   24.6650   18.6800 C.3   401  478401      0.0958
     16  C16       18.6410   23.9570   20.0300 C.3   401  478401      0.0178
     17  C17       19.4650   25.4270   15.4260 C.ar  401  478401      0.1223
     18  C18       18.7070   26.2940   14.6320 C.ar  401  478401      0.0213
     19  C19       19.2470   27.5290   14.2230 C.ar  401  478401      0.0194
     20  C20       20.5110   27.9530   14.6620 C.ar  401  478401      0.0892
     21  C21       21.2690   27.0370   15.4200 C.ar  401  478401      0.0194
     22  C22       20.6950   25.8680   15.8650 C.ar  401  478401      0.0213
     23  C23       18.8800   22.4520   19.8730 C.3   401  478401      0.0015
     24  C24       19.6650   24.5510   21.0080 C.3   401  478401      0.0015
     25  C25       13.5080   18.6350   21.8460 C.3   401  478401      0.1461
     26  N1        14.4280   21.9640   17.9130 N.am  401  478401     -0.1675
     27  N2        18.0700   24.3890   17.5710 N.3   401  478401     -0.1529
     28  N3        21.1210   29.0360   14.1780 N.pl3 401  478401     -0.1281
     29  O1        13.7140   20.1220   18.9310 O.3   401  478401     -0.4346
     30  O2        15.8990   20.2770   18.2330 O.2   401  478401     -0.2246
     31  O3        14.5730   24.8820   18.4580 O.3   401  478401     -0.2197
     32  O4        17.6490   23.6920   15.1640 O.2   401  478401     -0.1528
     33  O5        19.7190   22.9040   16.3290 O.2   401  478401     -0.1528
     34  O6        12.3130   18.6930   21.0730 O.3   401  478401     -0.3498
     35  S1        18.7460   23.9790   16.1310 S.O2  401  478401      0.0634
@<TRIPOS>BOND
     1    12    13   ar
     2    12    10   ar
     3    13    11   ar
     4    28    20    1
     5    19    18   ar
     6    19    20   ar
     7    10     8   ar
     8    11     9   ar
     9    18    17   ar
    10    20    21   ar
    11     9     8   ar
    12     8     7    1
    13    32    35    2
    14    21    22   ar
    15    17    22   ar
    16    17    35    1
    17     7     5    1
    18    35    33    2
    19    35    27    1
    20     5    26    1
    21     5     6    1
    22    14    27    1
    23    14     6    1
    24    27    15    1
    25    26     3   am
    26     6    31    1
    27    30     3    2
    28     3    29    1
    29    15    16    1
    30    29     4    1
    31     4     1    1
    32     4     2    1
    33     1    34    1
    34    23    16    1
    35    16    24    1
    36     2    25    1
    37    34    25    1
