@<TRIPOS>MOLECULE
3s44_FN5_A_1.pdb
 21 22 0 0 0
SMALL
GASTEIGER

@<TRIPOS>ATOM
      1  P         11.4620    7.5150   -7.5500 P.3     1  FN51        0.5327
      2  N1        15.5120   10.4140   -5.9790 N.am    1  FN51       -0.1778
      3  C2        16.7140   11.1180   -5.9400 C.1     1  FN51        0.2756
      4  O2        17.3460   11.3300   -4.8850 O.2     1  FN51       -0.1925
      5  N3        17.2560   11.6280   -7.0750 N.2     1  FN51       -0.3024
      6  C4        16.6230   11.4130   -8.2370 C.2     1  FN51        0.2346
      7  N4        17.1670   11.9210   -9.3640 N.pl3   1  FN51       -0.0921
      8  C5        15.4320   10.7110   -8.3150 C.2     1  FN51        0.0687
      9  C6        14.8810   10.1770   -7.1520 C.2     1  FN51        0.0836
     10  C1'       15.0030    9.8050   -4.7460 C.3     1  FN51        0.2400
     11  O2P        9.9440    7.4980   -7.4190 O.3     1  FN51       -0.1145
     12  C2'       13.6220   10.2800   -4.3510 C.3     1  FN51        0.2319
     13  O2'       13.7130   11.4060   -3.4660 O.3     1  FN51       -0.2157
     14  O1P       11.7830    8.5660   -8.5700 O.2     1  FN51       -0.2224
     15  C3'       12.9700    9.0650   -3.7370 C.3     1  FN51        0.2158
     16  O3'       13.2510    9.0880   -2.3480 O.3     1  FN51       -0.2175
     17  O3P       12.0650    6.1870   -7.9850 O.3     1  FN51       -0.1145
     18  C4'       13.7130    7.8790   -4.3480 C.3     1  FN51        0.1801
     19  O4'       14.8300    8.4130   -5.0980 O.3     1  FN51       -0.3320
     20  C5'       12.8140    7.0680   -5.2670 C.3     1  FN51        0.1859
     21  O5'       12.0660    7.9460   -6.1220 O.3     1  FN51       -0.2675
@<TRIPOS>BOND
     1     7     6    1
     2    14     1    2
     3     8     6    1
     4     8     9    2
     5     6     5    2
     6    17     1    1
     7     1    11    1
     8     1    21    1
     9     9     2    1
    10     5     3    2
    11    21    20    1
    12     2     3   am
    13     2    10    1
    14     3     4    2
    15    20    18    1
    16    19    10    1
    17    19    18    1
    18    10    12    1
    19    12    15    1
    20    12    13    1
    21    18    15    1
    22    15    16    1
