@<TRIPOS>MOLECULE
3s45_478_B_1.pdb
 35 37 0 0 0
SMALL
GASTEIGER

@<TRIPOS>ATOM
      1  C1        25.3390   14.6720   16.1890 C.3   201  478201      0.1856
      2  C2        25.5900   13.0850   17.9530 C.3   201  478201      0.0784
      3  C3        22.6850   12.3820   17.1770 C.2   201  478201      0.4211
      4  C4        24.5210   13.8780   17.2150 C.3   201  478201      0.2024
      5  C5        20.7090   10.8980   16.9940 C.3   201  478201      0.1347
      6  C6        20.8840    9.3830   16.9690 C.3   201  478201      0.1898
      7  C7        19.5440   11.3920   16.1260 C.3   201  478201      0.0508
      8  C8        19.5240   12.9130   16.2390 C.ar  201  478201     -0.0204
      9  C9        20.2090   13.6660   15.2930 C.ar  201  478201     -0.0042
     10  C10       18.8590   13.5460   17.2740 C.ar  201  478201     -0.0042
     11  C11       20.2440   15.0360   15.5030 C.ar  201  478201     -0.0003
     12  C12       18.8270   14.9130   17.5130 C.ar  201  478201     -0.0003
     13  C13       19.6360   15.5850   16.6220 C.ar  201  478201     -0.0000
     14  C14       19.7050    8.6550   17.6290 C.3   201  478201      0.1304
     15  C15       20.1520    7.7090   19.8100 C.3   201  478201      0.0958
     16  C16       21.6890    7.5950   19.7070 C.3   201  478201      0.0178
     17  C17       17.1610    8.5720   19.8360 C.ar  201  478201      0.1223
     18  C18       16.2610    8.5470   18.7700 C.ar  201  478201      0.0213
     19  C19       15.2060    7.6470   18.8200 C.ar  201  478201      0.0194
     20  C20       15.0700    6.7960   19.9040 C.ar  201  478201      0.0892
     21  C21       15.9650    6.8360   20.9680 C.ar  201  478201      0.0194
     22  C22       17.0480    7.7290   20.9250 C.ar  201  478201      0.0213
     23  C23       22.3230    8.9080   20.1920 C.3   201  478201      0.0015
     24  C24       22.1800    6.3970   20.5330 C.3   201  478201      0.0015
     25  C25       26.7420   12.9930   16.9510 C.3   201  478201      0.1461
     26  N1        21.9350   11.5240   16.4820 N.am  201  478201     -0.1675
     27  N2        19.7980    8.9180   19.0740 N.3   201  478201     -0.1529
     28  N3        14.0700    5.9200   19.8790 N.pl3 201  478201     -0.1281
     29  O1        23.6820   12.9860   16.4930 O.3   201  478201     -0.4346
     30  O2        22.5180   12.6370   18.3630 O.2   201  478201     -0.2246
     31  O3        21.0740    8.8850   15.6460 O.3   201  478201     -0.2197
     32  O4        18.1160   10.7450   18.7150 O.2   201  478201     -0.1528
     33  O5        18.8580   10.2220   21.0150 O.2   201  478201     -0.1528
     34  O6        26.4420   13.8410   15.8480 O.3   201  478201     -0.3498
     35  S1        18.4990    9.6790   19.6900 S.O2  201  478201      0.0634
@<TRIPOS>BOND
     1     9    11   ar
     2     9     8   ar
     3    11    13   ar
     4    31     6    1
     5    34     1    1
     6    34    25    1
     7     7     8    1
     8     7     5    1
     9     1     4    1
    10     8    10   ar
    11    26     5    1
    12    26     3   am
    13    29     3    1
    14    29     4    1
    15    13    12   ar
    16    25     2    1
    17     6     5    1
    18     6    14    1
    19     3    30    2
    20     4     2    1
    21    10    12   ar
    22    14    27    1
    23    32    35    2
    24    18    19   ar
    25    18    17   ar
    26    19    20   ar
    27    27    35    1
    28    27    15    1
    29    35    17    1
    30    35    33    2
    31    16    15    1
    32    16    23    1
    33    16    24    1
    34    17    22   ar
    35    28    20    1
    36    20    21   ar
    37    22    21   ar
