@<TRIPOS>MOLECULE
3s48_HEM_C_1.pdb
 43 50 0 0 0
SMALL
GASTEIGER

@<TRIPOS>ATOM
      1  CHA       13.5930  -64.1710    4.4300 C.2   500  HEM500      0.0000
      2  CHB       17.9860  -62.9630    2.7340 C.2   500  HEM500      0.0000
      3  CHC       18.2860  -59.3360    5.9570 C.2   500  HEM500      0.0000
      4  CHD       13.9080  -60.5180    7.7010 C.2   500  HEM500      0.0000
      5  C1A       14.7550  -64.1570    3.6870 C.ar  500  HEM500      0.0000
      6  C2A       15.0900  -65.0730    2.6130 C.ar  500  HEM500      0.0000
      7  C3A       16.2950  -64.7390    2.1470 C.ar  500  HEM500      0.0000
      8  C4A       16.7780  -63.6060    2.9100 C.ar  500  HEM500      0.0000
      9  CMA       17.0450  -65.4430    0.9950 C.3   500  HEM500      0.0000
     10  CAA       14.2030  -66.2230    2.0840 C.3   500  HEM500      0.0000
     11  CBA       14.5820  -67.5490    2.7330 C.3   500  HEM500      0.0000
     12  CGA       13.7270  -68.6430    2.1440 C.2   500  HEM500      0.0000
     13  O1A       13.8660  -68.9240    0.9250 O.co2 500  HEM500      0.0000
     14  O2A       12.9040  -69.2330    2.8910 O.co2 500  HEM500      0.0000
     15  C1B       18.4520  -61.8820    3.4530 C.2   500  HEM500      0.0000
     16  C2B       19.7220  -61.2100    3.2600 C.2   500  HEM500      0.0000
     17  C3B       19.8060  -60.2130    4.1450 C.2   500  HEM500      0.0000
     18  C4B       18.5900  -60.2090    4.9340 C.2   500  HEM500      0.0000
     19  CMB       20.7930  -61.5840    2.2130 C.3   500  HEM500      0.0000
     20  CAB       20.9900  -59.2330    4.2990 C.2   500  HEM500      0.0000
     21  CBB       22.2110  -59.6940    4.5920 C.2   500  HEM500      0.0000
     22  C1C       17.1310  -59.3360    6.7100 C.ar  500  HEM500      0.0000
     23  C2C       16.8120  -58.4230    7.7910 C.ar  500  HEM500      0.0000
     24  C3C       15.6100  -58.7500    8.2680 C.ar  500  HEM500      0.0000
     25  C4C       15.1170  -59.8840    7.5120 C.ar  500  HEM500      0.0000
     26  CMC       17.7010  -57.2690    8.3030 C.3   500  HEM500      0.0000
     27  CAC       14.8710  -58.0400    9.4230 C.2   500  HEM500      0.0000
     28  CBC       15.3980  -58.0390   10.6520 C.2   500  HEM500      0.0000
     29  C1D       13.4160  -61.5990    6.9960 C.2   500  HEM500      0.0000
     30  C2D       12.1360  -62.2250    7.2390 C.2   500  HEM500      0.0000
     31  C3D       12.0350  -63.3640    6.2200 C.2   500  HEM500      0.0000
     32  C4D       13.2650  -63.3120    5.4590 C.2   500  HEM500      0.0000
     33  CMD       11.0860  -61.8330    8.3000 C.3   500  HEM500      0.0000
     34  CAD       10.8570  -64.3510    6.0560 C.3   500  HEM500      0.0000
     35  CBD       10.9420  -65.4370    7.1290 C.3   500  HEM500      0.0000
     36  CGD       10.6920  -66.7910    6.5200 C.2   500  HEM500      0.0000
     37  O1D        9.5060  -67.2020    6.4350 O.co2 500  HEM500      0.0000
     38  O2D       11.6790  -67.4600    6.1190 O.co2 500  HEM500      0.0000
     39  NA        15.8110  -63.2780    3.8420 N.ar  500  HEM500      0.0000
     40  NB        17.7880  -61.2420    4.4840 N.2   500  HEM500      0.0000
     41  NC        16.0730  -60.2150    6.5710 N.ar  500  HEM500      0.0000
     42  ND        14.0470  -62.2660    5.9470 N.2   500  HEM500      0.0000
     43 FE         15.9320  -61.7460    5.2100 Fe    500  HEM500      0.0000
@<TRIPOS>BOND
     1    13    12   ar
     2     9     7    1
     3    10     6    1
     4    10    11    1
     5    12    11    1
     6    12    14   ar
     7     7     6   ar
     8     7     8   ar
     9    19    16    1
    10     6     5   ar
    11     2     8    2
    12     2    15    1
    13     8    39   ar
    14    16    15    1
    15    16    17    2
    16    15    40    2
    17     5    39   ar
    18     5     1    2
    19    39    43    1
    20    17    20    1
    21    17    18    1
    22    20    21    2
    23     1    32    1
    24    40    18    1
    25    40    43    1
    26    18     3    2
    27    43    42    1
    28    43    41    1
    29    32    42    2
    30    32    31    1
    31    42    29    1
    32     3    22    1
    33    34    31    1
    34    34    35    1
    35    38    36   ar
    36    31    30    2
    37    37    36   ar
    38    36    35    1
    39    41    22   ar
    40    41    25   ar
    41    22    23   ar
    42    29    30    1
    43    29     4    2
    44    30    33    1
    45    25     4    1
    46    25    24   ar
    47    23    24   ar
    48    23    26    1
    49    24    27    1
    50    27    28    2
