@<TRIPOS>MOLECULE
3s4a_CBI_A_1.pdb
 44 45 0 0 0
SMALL
GASTEIGER

@<TRIPOS>ATOM
      1  C1       -16.9110   31.1810  -41.0080 C.3   823  CBI823      0.1884
      2  C2       -17.8590   32.1700  -40.3480 C.3   823  CBI823      0.1341
      3  C3       -19.1960   32.3150  -41.0430 C.3   823  CBI823      0.1141
      4  C4       -18.9630   32.4500  -42.5220 C.3   823  CBI823      0.1119
      5  C5       -18.1780   31.2490  -42.9730 C.3   823  CBI823      0.1130
      6  C6       -18.0060   31.2300  -44.4720 C.3   823  CBI823      0.0730
      7  O2       -18.1200   31.8760  -38.9920 O.3   823  CBI823     -0.3841
      8  O3       -19.8310   33.4210  -40.4980 O.3   823  CBI823     -0.3864
      9  O4       -20.1740   32.6960  -43.1930 O.3   823  CBI823     -0.3865
     10  O5       -16.9010   31.2680  -42.4220 O.3   823  CBI823     -0.3405
     11  O6       -16.8980   32.0240  -44.7840 O.3   823  CBI823     -0.3924
     12  C1'      -11.8440   29.9720  -41.0890 C.3   823  CBI823      0.1855
     13  C2'      -12.9020   29.2410  -41.8980 C.3   823  CBI823      0.1372
     14  C3'      -14.2610   29.9510  -41.9390 C.3   823  CBI823      0.1527
     15  C4'      -14.6400   30.4600  -40.5480 C.3   823  CBI823      0.1217
     16  C5'      -13.4140   30.9900  -39.7710 C.3   823  CBI823      0.1135
     17  C6'      -13.6670   31.2340  -38.2830 C.3   823  CBI823      0.0730
     18  O1'      -10.6090   29.3040  -41.0240 O.3   823  CBI823     -0.3649
     19  O2'      -12.4230   28.9830  -43.1770 O.3   823  CBI823     -0.3840
     20  O3'      -15.1780   29.0280  -42.4950 O.3   823  CBI823     -0.2255
     21  O4'      -15.6030   31.4790  -40.5450 O.3   823  CBI823     -0.3400
     22  O5'      -12.3690   30.0850  -39.8260 O.3   823  CBI823     -0.3407
     23  O6'      -12.7890   32.2110  -37.8030 O.3   823  CBI823     -0.3924
     24  H1       -17.1510   30.2790  -40.7440 H     823  CBI823      0.0938
     25  H2       -17.4090   33.0310  -40.3270 H     823  CBI823      0.0671
     26  H3       -19.7350   31.5210  -40.8830 H     823  CBI823      0.0648
     27  H4       -18.3960   33.2330  -42.6500 H     823  CBI823      0.0647
     28  H5       -18.6350   30.4440  -42.6890 H     823  CBI823      0.0647
     29  H61      -18.8060   31.5970  -44.9010 H     823  CBI823      0.0584
     30  H62      -17.8610   30.3300  -44.7730 H     823  CBI823      0.0584
     31  HO2      -17.9070   31.0220  -38.8260 H     823  CBI823      0.2101
     32  HO3      -19.2530   33.8770  -39.9950 H     823  CBI823      0.2100
     33  HO4      -20.4970   31.9340  -43.5090 H     823  CBI823      0.2100
     34  HO6      -16.6780   31.9030  -45.6360 H     823  CBI823      0.2095
     35  H1'      -11.6720   30.8620  -41.4630 H     823  CBI823      0.0935
     36  H2'      -13.0240   28.3780  -41.4760 H     823  CBI823      0.0672
     37  H3'      -14.1990   30.7270  -42.5190 H     823  CBI823      0.0683
     38  H4'      -15.0200   29.7060  -40.0690 H     823  CBI823      0.0652
     39  H5'      -13.1520   31.8180  -40.1660 H     823  CBI823      0.0647
     40 H6'1      -13.5550   30.4160  -37.7950 H     823  CBI823      0.0584
     41 H6'2      -14.5880   31.5610  -38.1650 H     823  CBI823      0.0584
     42 HO1'      -10.5150   28.9240  -40.2150 H     823  CBI823      0.2126
     43 HO2'      -11.9600   28.2250  -43.1730 H     823  CBI823      0.2101
     44 HO6'      -12.8460   32.2520  -36.9180 H     823  CBI823      0.2095
@<TRIPOS>BOND
     1    34    11    1
     2    29     6    1
     3    11     6    1
     4    30     6    1
     5     6     5    1
     6    33     9    1
     7     9     4    1
     8    19    43    1
     9    19    13    1
    10     5    28    1
    11     5     4    1
    12     5    10    1
    13    27     4    1
    14     4     3    1
    15    37    14    1
    16    20    14    1
    17    10     1    1
    18    14    13    1
    19    14    15    1
    20    13    36    1
    21    13    12    1
    22    35    12    1
    23    12    18    1
    24    12    22    1
    25     3    26    1
    26     3     8    1
    27     3     2    1
    28    18    42    1
    29     1    24    1
    30     1    21    1
    31     1     2    1
    32    15    21    1
    33    15    38    1
    34    15    16    1
    35     8    32    1
    36     2    25    1
    37     2     7    1
    38    39    16    1
    39    22    16    1
    40    16    17    1
    41     7    31    1
    42    17    41    1
    43    17    23    1
    44    17    40    1
    45    23    44    1
