@<TRIPOS>MOLECULE
3s4b_GLC_A_1.pdb
 12 12 0 0 0
SMALL
GASTEIGER

@<TRIPOS>ATOM
      1  C1         8.3020  -16.4220   18.9110 C.3   823  GLC823      0.3024
      2  C2         8.0410  -15.5340   17.6980 C.3   823  GLC823      0.2434
      3  C3         7.1680  -16.2510   16.6910 C.3   823  GLC823      0.2199
      4  C4         7.7080  -17.6400   16.3720 C.3   823  GLC823      0.2144
      5  C5         7.9950  -18.4020   17.6660 C.3   823  GLC823      0.1836
      6  C6         8.6380  -19.7540   17.4190 C.3   823  GLC823      0.2142
      7  O1         9.1940  -15.7520   19.7890 O.3   823  GLC823     -0.1869
      8  O2         7.3510  -14.3690   18.0920 O.3   823  GLC823     -0.2148
      9  O3         7.0890  -15.4290   15.5600 O.3   823  GLC823     -0.2174
     10  O4         6.7590  -18.3400   15.5940 O.3   823  GLC823     -0.2176
     11  O5         8.8620  -17.6500   18.4840 O.3   823  GLC823     -0.3236
     12  O6        10.0250  -19.5780   17.3450 O.3   823  GLC823     -0.2176
@<TRIPOS>BOND
     1     9     3    1
     2    10     4    1
     3     4     3    1
     4     4     5    1
     5     3     2    1
     6    12     6    1
     7     6     5    1
     8     5    11    1
     9     2     8    1
    10     2     1    1
    11    11     1    1
    12     1     7    1
