@<TRIPOS>MOLECULE
3s4d_CBI_A_1.pdb
 23 24 0 0 0
SMALL
GASTEIGER

@<TRIPOS>ATOM
      1  C1       -11.6810  -14.3400   18.9840 C.3   824  CBI824      0.2695
      2  C2       -12.4460  -13.7180   17.8280 C.3   824  CBI824      0.2406
      3  C3       -13.5360  -14.5570   17.2050 C.3   824  CBI824      0.2198
      4  C4       -13.2780  -15.9960   17.4210 C.3   824  CBI824      0.2144
      5  C5       -13.0660  -16.2630   18.8600 C.3   824  CBI824      0.1835
      6  C6       -12.8210  -17.7400   18.9310 C.3   824  CBI824      0.2142
      7  O2       -13.0200  -12.4980   18.1830 O.3   824  CBI824     -0.2149
      8  O3       -13.5910  -14.2840   15.8630 O.3   824  CBI824     -0.2174
      9  O4       -14.3170  -16.7670   16.9180 O.3   824  CBI824     -0.2176
     10  O5       -11.9110  -15.6880   19.3490 O.3   824  CBI824     -0.3256
     11  O6       -11.5590  -17.8860   18.3830 O.3   824  CBI824     -0.2176
     12  C1'       -7.2020  -15.5470   20.7870 C.3   824  CBI824      0.3023
     13  C2'       -8.4740  -15.6090   21.5930 C.3   824  CBI824      0.2433
     14  C3'       -9.7120  -15.2360   20.7920 C.3   824  CBI824      0.2168
     15  C4'       -9.4750  -14.0910   19.8250 C.3   824  CBI824      0.1804
     16  C5'       -8.0050  -13.8710   19.4030 C.3   824  CBI824      0.1804
     17  C6'       -7.7430  -12.4060   19.1090 C.3   824  CBI824      0.2141
     18  O1'       -6.1770  -15.8800   21.6500 O.3   824  CBI824     -0.1869
     19  O2'       -8.6160  -16.8390   22.2530 O.3   824  CBI824     -0.2148
     20  O3'      -10.7760  -14.9990   21.6650 O.3   824  CBI824     -0.2175
     21  O4'      -10.3110  -14.1570   18.6880 O.3   824  CBI824     -0.3257
     22  O5'       -7.0580  -14.2490   20.3560 O.3   824  CBI824     -0.3237
     23  O6'       -8.4830  -11.9490   18.0290 O.3   824  CBI824     -0.2176
@<TRIPOS>BOND
     1     8     3    1
     2     9     4    1
     3     3     4    1
     4     3     2    1
     5     4     5    1
     6     2     7    1
     7     2     1    1
     8    23    17    1
     9    11     6    1
    10    21     1    1
    11    21    15    1
    12     5     6    1
    13     5    10    1
    14     1    10    1
    15    17    16    1
    16    16    15    1
    17    16    22    1
    18    15    14    1
    19    22    12    1
    20    12    13    1
    21    12    18    1
    22    14    13    1
    23    14    20    1
    24    13    19    1
