@<TRIPOS>MOLECULE
3s4f_HEM_A_1.pdb
 43 50 0 0 0
SMALL
GASTEIGER

@<TRIPOS>ATOM
      1  CHA      -18.5700    0.1070   27.4400 C.2   605  HEM605      0.0000
      2  CHB      -18.1600    4.9690   27.2700 C.2   605  HEM605      0.0000
      3  CHC      -16.1950    4.7390   22.8160 C.2   605  HEM605      0.0000
      4  CHD      -16.5870   -0.2170   22.8780 C.2   605  HEM605      0.0000
      5  C1A      -18.5870    1.5650   27.7630 C.2   605  HEM605      0.0000
      6  C2A      -19.1330    1.8820   29.0950 C.2   605  HEM605      0.0000
      7  C3A      -19.0070    3.3430   29.0560 C.2   605  HEM605      0.0000
      8  C4A      -18.4350    3.6270   27.7470 C.2   605  HEM605      0.0000
      9  CMA      -19.4140    4.2670   30.1710 C.3   605  HEM605      0.0000
     10  CAA      -19.6850    0.9220   30.1590 C.3   605  HEM605      0.0000
     11  CBA      -18.3560    0.5400   30.9520 C.3   605  HEM605      0.0000
     12  CGA      -18.7030   -0.4570   32.0810 C.2   605  HEM605      0.0000
     13  O1A      -19.5620   -0.0900   32.9350 O.co2 605  HEM605      0.0000
     14  O2A      -18.1950   -1.5980   32.1500 O.co2 605  HEM605      0.0000
     15  C1B      -17.5730    5.3700   25.9520 C.ar  605  HEM605      0.0000
     16  C2B      -17.3460    6.7150   25.5750 C.ar  605  HEM605      0.0000
     17  C3B      -16.8100    6.6740   24.3200 C.ar  605  HEM605      0.0000
     18  C4B      -16.7120    5.2860   23.9910 C.ar  605  HEM605      0.0000
     19  CMB      -17.6370    7.9510   26.4290 C.3   605  HEM605      0.0000
     20  CAB      -16.3500    7.7950   23.3570 C.2   605  HEM605      0.0000
     21  CBB      -16.3670    9.1060   23.4970 C.2   605  HEM605      0.0000
     22  C1C      -16.0890    3.3060   22.4290 C.2   605  HEM605      0.0000
     23  C2C      -15.4750    2.9820   21.1820 C.2   605  HEM605      0.0000
     24  C3C      -15.5930    1.5650   21.2350 C.2   605  HEM605      0.0000
     25  C4C      -16.2530    1.2010   22.4440 C.2   605  HEM605      0.0000
     26  CMC      -14.8840    4.0210   20.1970 C.3   605  HEM605      0.0000
     27  CAC      -15.1220    0.5230   20.2270 C.2   605  HEM605      0.0000
     28  CBC      -14.4540    0.7390   19.0570 C.2   605  HEM605      0.0000
     29  C1D      -17.2650   -0.5610   24.2220 C.ar  605  HEM605      0.0000
     30  C2D      -17.5710   -2.0230   24.5390 C.ar  605  HEM605      0.0000
     31  C3D      -18.0560   -1.9450   25.9560 C.ar  605  HEM605      0.0000
     32  C4D      -18.0760   -0.4190   26.1340 C.ar  605  HEM605      0.0000
     33  CMD      -16.4830   -3.0760   24.2660 C.3   605  HEM605      0.0000
     34  CAD      -19.1320   -2.8900   26.3880 C.3   605  HEM605      0.0000
     35  CBD      -20.5840   -2.8980   25.8490 C.3   605  HEM605      0.0000
     36  CGD      -21.1110   -4.0840   26.7000 C.2   605  HEM605      0.0000
     37  O1D      -21.0160   -5.3790   26.2250 O.co2 605  HEM605      0.0000
     38  O2D      -21.6220   -3.8570   27.7900 O.co2 605  HEM605      0.0000
     39  NA       -18.1990    2.5370   27.0200 N.2   605  HEM605      0.0000
     40  NB       -17.1860    4.4700   24.9880 N.ar  605  HEM605      0.0000
     41  NC       -16.5150    2.2930   23.1000 N.2   605  HEM605      0.0000
     42  ND       -17.6170    0.2380   25.1470 N.ar  605  HEM605      0.0000
     43 FE        -17.3370    2.3760   25.0620 Fe    605  HEM605      0.0000
@<TRIPOS>BOND
     1    28    27    2
     2    26    23    1
     3    27    24    1
     4    23    24    2
     5    23    22    1
     6    24    25    1
     7    22     3    2
     8    22    41    1
     9    25     4    1
    10    25    41    2
    11     3    18    1
    12     4    29    2
    13    41    43    1
    14    20    21    2
    15    20    17    1
    16    18    17   ar
    17    18    40   ar
    18    29    30   ar
    19    29    42   ar
    20    33    30    1
    21    17    16   ar
    22    30    31   ar
    23    40    43    1
    24    40    15   ar
    25    43    42    1
    26    43    39    1
    27    42    32   ar
    28    16    15   ar
    29    16    19    1
    30    35    34    1
    31    35    36    1
    32    15     2    1
    33    31    32   ar
    34    31    34    1
    35    32     1    2
    36    37    36   ar
    37    36    38   ar
    38    39     8    1
    39    39     5    2
    40     2     8    2
    41     1     5    1
    42     8     7    1
    43     5     6    1
    44     7     6    2
    45     7     9    1
    46     6    10    1
    47    10    11    1
    48    11    12    1
    49    12    14   ar
    50    12    13   ar
