@<TRIPOS>MOLECULE
3s4j_UNV_A_1.pdb
 17 18 0 0 0
SMALL
GASTEIGER

@<TRIPOS>ATOM
      1  N1        13.3980   31.5850   -9.8290 N.ar  901  UNV901     -0.2484
      2  C2        15.1990   30.5780   -8.0420 C.ar  901  UNV901     -0.0015
      3  C3        15.0450   31.9050   -8.2290 C.ar  901  UNV901     -0.0077
      4  C4        14.4070   29.7290   -8.7580 C.ar  901  UNV901      0.0203
      5  C5        13.5020   30.2340   -9.6520 C.ar  901  UNV901      0.0984
      6  C6        14.1790   32.3870   -9.0790 C.ar  901  UNV901      0.0559
      7  C7        15.8690   32.9780   -7.5640 C.3   901  UNV901      0.0416
      8  C10       14.2210   33.8890   -9.1710 C.3   901  UNV901      0.0595
      9  P11       15.6470   35.7880   -7.6230 P.3   901  UNV901      0.1235
     10  C14       15.6030   34.1760   -8.5130 C.3   901  UNV901      0.1016
     11  P17       16.8390   34.1410   -9.8440 P.3   901  UNV901      0.1235
     12  O18       17.0270   35.8410   -6.9870 O.3   901  UNV901     -0.3568
     13  O19       14.5330   35.7240   -6.6160 O.3   901  UNV901     -0.3568
     14  O20       15.4440   36.8310   -8.7030 O.2   901  UNV901     -0.4597
     15  O21       16.5540   32.8610  -10.6040 O.3   901  UNV901     -0.3568
     16  O22       18.1790   34.1410   -9.1420 O.3   901  UNV901     -0.3568
     17  O23       16.5820   35.3950  -10.6580 O.2   901  UNV901     -0.4597
@<TRIPOS>BOND
     1    17    11    2
     2    15    11    1
     3    11    16    1
     4    11    10    1
     5     1     5   ar
     6     1     6   ar
     7     5     4   ar
     8     8     6    1
     9     8    10    1
    10     6     3   ar
    11     4     2   ar
    12    14     9    2
    13    10     9    1
    14    10     7    1
    15     3     2   ar
    16     3     7    1
    17     9    12    1
    18     9    13    1
