@<TRIPOS>MOLECULE
3s4q_NK0_A_1.pdb
 32 36 0 0 0
SMALL
GASTEIGER

@<TRIPOS>ATOM
      1  C1        -0.2190   -6.9990   13.4740 C.ar  361  NK0361      0.0001
      2  N1         1.7650   -4.2270   17.7170 N.ar  361  NK0361     -0.2242
      3  O1         1.6890   -8.8790   17.3370 O.2   361  NK0361     -0.2865
      4  C2         0.6020   -7.6320   12.5690 C.ar  361  NK0361      0.0000
      5  N2         2.2390   -2.4740   19.7900 N.ar  361  NK0361     -0.2043
      6  O2         0.2400   -1.7610   24.4560 O.2   361  NK0361     -0.2684
      7  C3         1.6630   -8.3880   13.0200 C.ar  361  NK0361      0.0001
      8  N3         1.6080   -2.8720   17.4770 N.ar  361  NK0361     -0.1422
      9  C4         1.9130   -8.5020   14.3790 C.ar  361  NK0361      0.0032
     10  N4         3.1060   -4.2310   21.1510 N.pl3 361  NK0361     -0.1932
     11  C5         1.1030   -7.8450   15.3040 C.ar  361  NK0361      0.0390
     12  N5         1.5970   -0.3150   25.5270 N.am  361  NK0361     -0.2034
     13  C6         0.0150   -7.1170   14.8350 C.ar  361  NK0361      0.0032
     14  C7         1.4790   -7.8180   16.7490 C.2   361  NK0361      0.1968
     15  C8         1.6700   -6.4710   17.4820 C.ar  361  NK0361      0.0557
     16  C9         1.4900   -5.2170   16.8390 C.ar  361  NK0361      0.1034
     17  C10        2.1630   -4.8030   18.9740 C.ar  361  NK0361      0.1123
     18  C11        2.0770   -6.2030   18.8380 C.ar  361  NK0361      0.0032
     19  C12        2.2610   -7.1960   19.9070 C.3   361  NK0361      0.0329
     20  C13        2.4540   -3.8250   20.0100 C.ar  361  NK0361      0.1710
     21  C14        1.8400   -2.0900   18.5740 C.ar  361  NK0361      0.2211
     22  C15        3.3830   -3.3760   22.2260 C.ar  361  NK0361      0.0683
     23  C16        2.3300   -2.8510   22.9750 C.ar  361  NK0361      0.0208
     24  C17        2.5470   -1.8280   23.8940 C.ar  361  NK0361      0.0563
     25  C18        3.8400   -1.3470   24.0760 C.ar  361  NK0361      0.0043
     26  C19        4.8970   -1.8960   23.3700 C.ar  361  NK0361     -0.0028
     27  C20        4.7110   -2.9240   22.4450 C.ar  361  NK0361     -0.0065
     28  C21        5.8980   -3.5790   21.7830 C.3   361  NK0361      0.0324
     29  C22        1.3660   -1.3050   24.6490 C.2   361  NK0361      0.2648
     30  C23        0.5210    0.4050   26.2080 C.3   361  NK0361      0.0957
     31  C24        0.7960    1.0190   27.5140 C.3   361  NK0361      0.0234
     32  C25       -0.0780   -0.1640   27.4240 C.3   361  NK0361      0.0234
@<TRIPOS>BOND
     1     4     7   ar
     2     4     1   ar
     3     7     9   ar
     4     1    13   ar
     5     9    11   ar
     6    13    11   ar
     7    11    14    1
     8    14     3    2
     9    14    15    1
    10    16    15   ar
    11    16     2   ar
    12     8     2   ar
    13     8    21   ar
    14    15    18   ar
    15     2    17   ar
    16    21     5   ar
    17    18    17   ar
    18    18    19    1
    19    17    20   ar
    20     5    20   ar
    21    20    10    1
    22    10    22    1
    23    28    27    1
    24    22    27   ar
    25    22    23   ar
    26    27    26   ar
    27    23    24   ar
    28    26    25   ar
    29    24    25   ar
    30    24    29    1
    31     6    29    2
    32    29    12   am
    33    12    30    1
    34    30    32    1
    35    30    31    1
    36    32    31    1
