@<TRIPOS>MOLECULE
3s53_017_A_1.pdb
 38 41 0 0 0
SMALL
GASTEIGER

@<TRIPOS>ATOM
      1  N1        -1.2440    8.3360   29.7810 N.pl3 201  017201     -0.1281
      2  C2        -0.8030    8.5720   31.0660 C.ar  201  017201      0.0892
      3  C3         0.4490    8.0710   31.4570 C.ar  201  017201      0.0194
      4  C4         0.9160    8.3050   32.7560 C.ar  201  017201      0.0213
      5  C5         0.1540    9.1080   33.6220 C.ar  201  017201      0.1223
      6  C6        -1.1190    9.5580   33.2650 C.ar  201  017201      0.0213
      7  C7        -1.6240    9.2630   31.9770 C.ar  201  017201      0.0194
      8  S8         0.7610    9.3110   35.3580 S.O2  201  017201      0.0634
      9  O9         2.3390    9.1590   35.2590 O.2   201  017201     -0.1528
     10  O10        0.4090   10.7540   35.8810 O.2   201  017201     -0.1528
     11  N11        0.1140    8.0290   36.4110 N.3   201  017201     -0.1529
     12  C12       -1.3590    7.9720   36.6140 C.3   201  017201      0.0958
     13  C13       -1.7940    7.5460   38.0440 C.3   201  017201      0.0178
     14  C14       -1.2610    8.6020   39.0030 C.3   201  017201      0.0015
     15  C15       -3.3170    7.5300   38.0270 C.3   201  017201      0.0015
     16  C16        0.8010    6.6770   36.2480 C.3   201  017201      0.1304
     17  C17        1.5450    6.2760   37.5920 C.3   201  017201      0.1898
     18  O18        2.0420    4.9460   37.4960 O.3   201  017201     -0.2197
     19  C19        2.7300    7.2540   37.8760 C.3   201  017201      0.1347
     20  N20        3.2130    7.1380   39.2160 N.am  201  017201     -0.1675
     21  C21        3.0130    8.0430   40.2250 C.2   201  017201      0.4211
     22  O22        2.5170    9.2020   40.0700 O.2   201  017201     -0.2246
     23  O23        3.4170    7.5250   41.5080 O.3   201  017201     -0.4345
     24  C24        3.4780    8.5330   42.5940 C.3   201  017201      0.2048
     25  C25        3.0180    7.7640   43.8750 C.3   201  017201      0.1884
     26  O26        4.0850    6.8150   44.1540 O.3   201  017201     -0.3265
     27  C27        5.2600    7.5420   43.7840 C.3   201  017201      0.2388
     28  O28        6.1770    6.6890   43.0700 O.3   201  017201     -0.3304
     29  C29        6.2860    7.3260   41.7750 C.3   201  017201      0.1451
     30  C30        6.0380    8.8360   42.0080 C.3   201  017201      0.0409
     31  C31        4.9330    8.7360   43.0190 C.3   201  017201      0.1016
     32  C32        3.9630    7.0410   36.9160 C.3   201  017201      0.0508
     33  C33        6.2770    7.3910   37.9630 C.ar  201  017201     -0.0042
     34  C34        7.3630    8.2190   38.3560 C.ar  201  017201     -0.0003
     35  C35        7.2310    9.6040   38.1820 C.ar  201  017201     -0.0000
     36  C36        6.1460   10.1320   37.4660 C.ar  201  017201     -0.0003
     37  C37        5.0530    9.3100   37.0870 C.ar  201  017201     -0.0042
     38  C38        5.1470    7.9240   37.3220 C.ar  201  017201     -0.0204
@<TRIPOS>BOND
     1     1     2    1
     2     2     3   ar
     3     2     7   ar
     4     3     4   ar
     5     7     6   ar
     6     4     5   ar
     7     6     5   ar
     8     5     8    1
     9     9     8    2
    10     8    10    2
    11     8    11    1
    12    16    11    1
    13    16    17    1
    14    11    12    1
    15    12    13    1
    16    32    38    1
    17    32    19    1
    18    37    38   ar
    19    37    36   ar
    20    38    33   ar
    21    36    35   ar
    22    18    17    1
    23    17    19    1
    24    19    20    1
    25    33    34   ar
    26    15    13    1
    27    13    14    1
    28    35    34   ar
    29    20    21   am
    30    22    21    2
    31    21    23    1
    32    23    24    1
    33    29    30    1
    34    29    28    1
    35    30    31    1
    36    24    31    1
    37    24    25    1
    38    31    27    1
    39    28    27    1
    40    27    26    1
    41    25    26    1
