@<TRIPOS>MOLECULE
3s54_017_B_1.pdb
 39 41 0 0 0
SMALL
GASTEIGER

@<TRIPOS>ATOM
      1  N1        21.1120   28.7880   14.2350 N.pl3 201  017201     -0.1281
      2  N1        11.4330   17.4040   21.6400 N.3   201  017201      0.0000
      3  C2        20.4600   27.6390   14.5790 C.ar  201  017201      0.0892
      4  C3        19.1300   27.4450   14.1920 C.ar  201  017201      0.0194
      5  C4        18.4500   26.2650   14.5460 C.ar  201  017201      0.0213
      6  C5        19.2130   25.2940   15.2130 C.ar  201  017201      0.1223
      7  C6        20.5200   25.5070   15.6660 C.ar  201  017201      0.0213
      8  C7        21.1930   26.6980   15.3250 C.ar  201  017201      0.0194
      9  S8        18.3560   23.8210   15.8620 S.O2  201  017201      0.0634
     10  O9        17.1620   23.5110   14.8740 O.2   201  017201     -0.1528
     11  O10       19.3970   22.6140   15.9200 O.2   201  017201     -0.1528
     12  N11       17.7290   24.0760   17.5190 N.3   201  017201     -0.1529
     13  C12       18.7290   24.4300   18.5850 C.3   201  017201      0.0958
     14  C13       18.3710   23.7800   19.9610 C.3   201  017201      0.0178
     15  C14       18.2810   22.2690   19.7720 C.3   201  017201      0.0015
     16  C15       19.5510   24.1170   20.8820 C.3   201  017201      0.0015
     17  C16       16.4540   24.9030   17.5330 C.3   201  017201      0.1304
     18  C17       15.2710   23.9940   17.9900 C.3   201  017201      0.1898
     19  O18       14.1340   24.7930   18.3030 O.3   201  017201     -0.2197
     20  C19       14.8880   22.8570   16.9850 C.3   201  017201      0.1347
     21  N20       14.0050   21.9430   17.6730 N.am  201  017201     -0.1675
     22  C21       14.3540   20.6720   17.9940 C.2   201  017201      0.4211
     23  O22       15.4180   20.0960   17.5900 O.2   201  017201     -0.2246
     24  O23       13.3840   20.0720   18.8530 O.3   201  017201     -0.4345
     25  C24       13.4480   18.6010   18.9250 C.3   201  017201      0.2048
     26  C25       12.8730   18.2950   20.3270 C.3   201  017201      0.1884
     27  O26       11.4280   18.4540   20.2070 O.3   201  017201     -0.3265
     28  C27       11.1240   18.1000   18.8580 C.3   201  017201      0.2388
     29  O28       10.1650   18.9750   18.2290 O.3   201  017201     -0.3304
     30  C29       10.8810   19.5210   17.1180 C.3   201  017201      0.1451
     31  C30       11.9500   18.4790   16.7020 C.3   201  017201      0.0409
     32  C31       12.3460   17.9580   18.0720 C.3   201  017201      0.1016
     33  C32       14.0810   23.3350   15.7190 C.3   201  017201      0.0508
     34  C33       12.3610   21.7300   14.7270 C.ar  201  017201     -0.0042
     35  C34       11.9790   20.6200   13.9360 C.ar  201  017201     -0.0003
     36  C35       13.0060   19.8890   13.2880 C.ar  201  017201     -0.0000
     37  C36       14.3400   20.3110   13.3750 C.ar  201  017201     -0.0003
     38  C37       14.7080   21.3970   14.2010 C.ar  201  017201     -0.0042
     39  C38       13.6870   22.1650   14.7970 C.ar  201  017201     -0.0204
@<TRIPOS>BOND
     1    36    37   ar
     2    36    35   ar
     3    37    38   ar
     4    35    34   ar
     5     4     5   ar
     6     4     3   ar
     7    38    39   ar
     8     1     3    1
     9     5     6   ar
    10     3     8   ar
    11    34    39   ar
    12    39    33    1
    13    10     9    2
    14     6     7   ar
    15     6     9    1
    16     8     7   ar
    17    33    20    1
    18     9    11    2
    19     9    12    1
    20    31    30    1
    21    31    32    1
    22    20    21    1
    23    20    18    1
    24    30    29    1
    25    12    17    1
    26    12    13    1
    27    17    18    1
    28    23    22    2
    29    21    22   am
    30    18    19    1
    31    22    24    1
    32    32    28    1
    33    32    25    1
    34    29    28    1
    35    13    14    1
    36    24    25    1
    37    28    27    1
    38    25    26    1
    39    15    14    1
    40    14    16    1
    41    27    26    1
