@<TRIPOS>MOLECULE
3s55_NAD_A_1.pdb
 44 48 0 0 0
SMALL
GASTEIGER

@<TRIPOS>ATOM
      1  PA        51.1210   -6.9410   49.1640 P.3   279  NAD279      0.2189
      2  O1A       52.0490   -6.7020   48.0020 O.2   279  NAD279     -0.5170
      3  O2A       50.9700   -5.8330   50.1670 O.3   279  NAD279     -0.4371
      4  O5B       51.5980   -8.2460   49.9480 O.3   279  NAD279     -0.3112
      5  C5B       52.1840   -9.3310   49.2470 C.3   279  NAD279      0.1813
      6  C4B       53.4430   -9.7570   49.9890 C.3   279  NAD279      0.1821
      7  O4B       54.0260  -10.8920   49.3200 O.3   279  NAD279     -0.3135
      8  C3B       54.4870   -8.6440   49.9870 C.3   279  NAD279      0.2184
      9  O3B       54.9280   -8.3880   51.3410 O.3   279  NAD279     -0.2174
     10  C2B       55.6020   -9.1640   49.0990 C.3   279  NAD279      0.2570
     11  O2B       56.9350   -8.7620   49.4660 O.3   279  NAD279     -0.2130
     12  C1B       55.4320  -10.6730   49.2250 C.3   279  NAD279      0.3186
     13  N9A       56.0380  -11.4150   48.1040 N.pl3 279  NAD279     -0.1439
     14  C8A       55.9740  -11.1430   46.7840 C.3   279  NAD279      0.3377
     15  N7A       56.6770  -12.0720   46.0950 N.2   279  NAD279     -0.2095
     16  C5A       57.1760  -12.9340   46.9970 C.2   279  NAD279      0.2526
     17  C6A       57.9560  -14.0790   46.8920 C.2   279  NAD279      0.4393
     18  N6A       58.3990  -14.5390   45.6980 N.pl3 279  NAD279      0.2180
     19  N1A       58.2760  -14.7260   48.0280 N.2   279  NAD279      0.0021
     20  C2A       57.8730  -14.2970   49.2420 C.3   279  NAD279      0.5254
     21  N3A       57.1250  -13.2020   49.3850 N.2   279  NAD279     -0.0055
     22  C4A       56.7610  -12.5180   48.2620 C.2   279  NAD279      0.3518
     23  O3        49.7080   -7.3410   48.5010 O.3   279  NAD279     -0.2703
     24  PN        48.4750   -8.1240   49.1850 P.3   279  NAD279      0.2189
     25  O1N       47.2610   -7.3860   48.7020 O.2   279  NAD279     -0.5170
     26  O2N       48.6500   -8.3010   50.6690 O.3   279  NAD279     -0.4371
     27  O5D       48.5760   -9.5270   48.4080 O.3   279  NAD279     -0.3112
     28  C5D       48.4540  -10.8000   49.0370 C.3   279  NAD279      0.1813
     29  C4D       47.7870  -11.8360   48.1010 C.3   279  NAD279      0.1799
     30  O4D       46.4110  -11.4970   47.8630 O.3   279  NAD279     -0.3327
     31  C3D       48.4650  -12.0120   46.7390 C.3   279  NAD279      0.2158
     32  O3D       48.4750  -13.4060   46.3610 O.3   279  NAD279     -0.2175
     33  C2D       47.5270  -11.3240   45.7860 C.3   279  NAD279      0.2309
     34  O2D       47.6400  -11.8560   44.4620 O.3   279  NAD279     -0.2158
     35  C1D       46.1710  -11.5850   46.4570 C.3   279  NAD279      0.2263
     36  N1N       45.1110  -10.6800   46.0450 N.pl3 279  NAD279     -0.2787
     37  C2N       45.1820   -9.3550   46.3290 C.3   279  NAD279      0.1244
     38  C3N       44.1520   -8.5020   45.9250 C.2   279  NAD279      0.0544
     39  C7N       44.2010   -7.0130   46.1980 C.2   279  NAD279      0.2818
     40  O7N       43.2860   -6.3090   45.7950 O.2   279  NAD279     -0.2670
     41  N7N       45.2370   -6.4730   46.8550 N.am  279  NAD279     -0.0839
     42  C4N       43.0740   -9.0500   45.2090 C.2   279  NAD279      0.0033
     43  C5N       43.0150  -10.4190   44.9320 C.2   279  NAD279      0.0157
     44  C6N       44.0630  -11.2180   45.3820 C.2   279  NAD279      0.0633
@<TRIPOS>BOND
     1    34    33    1
     2    43    42    1
     3    43    44    2
     4    42    38    2
     5    44    36    1
     6    18    17    1
     7    33    35    1
     8    33    31    1
     9    40    39    2
    10    38    39    1
    11    38    37    1
    12    36    37    1
    13    36    35    1
    14    15    14    1
    15    15    16    2
    16    39    41   am
    17    32    31    1
    18    35    30    1
    19    31    29    1
    20    14    13    1
    21    17    16    1
    22    17    19    2
    23    16    22    1
    24    30    29    1
    25     2     1    2
    26    19    20    1
    27    29    28    1
    28    13    22    1
    29    13    12    1
    30    22    21    2
    31    27    28    1
    32    27    24    1
    33    23     1    1
    34    23    24    1
    35    25    24    2
    36    10    12    1
    37    10    11    1
    38    10     8    1
    39     1     4    1
    40     1     3    1
    41    24    26    1
    42    12     7    1
    43    20    21    1
    44     5     4    1
    45     5     6    1
    46     7     6    1
    47     8     6    1
    48     8     9    1
