@<TRIPOS>MOLECULE
3s56_ROC_A_1.pdb
 49 53 0 0 0
SMALL
GASTEIGER

@<TRIPOS>ATOM
      1  C          5.9410    7.4990   41.2560 C.2   201  ROC201      0.2910
      2  O          5.9960    6.3410   41.5470 O.2   201  ROC201     -0.2659
      3  N1         6.9990    9.5440   40.7250 N.2   201  ROC201     -0.4056
      4  C2         7.1880    8.2990   41.1580 C.2   201  ROC201      0.1675
      5  C3         8.4550    7.8340   41.5270 C.3   201  ROC201      0.0895
      6  C4         9.5130    8.7640   41.4070 C.2   201  ROC201     -0.0202
      7  C5        10.3130   11.0140   40.7460 C.3   201  ROC201      0.0539
      8  C6        10.0010   12.2950   40.2500 C.2   201  ROC201     -0.0255
      9  C7         8.6970   12.6290   39.9080 C.2   201  ROC201     -0.0229
     10  C8         7.6890   11.6870   40.0600 C.3   201  ROC201      0.0843
     11  C4A        9.2780   10.0650   40.9250 C.2   201  ROC201      0.0041
     12  C8A        7.9780   10.4370   40.5970 C.2   201  ROC201      0.1091
     13  N          4.7650    8.1640   41.0830 N.am  201  ROC201     -0.1916
     14  CA         3.5260    7.3740   41.1560 C.3   201  ROC201      0.1823
     15  C1         2.6910    7.7850   39.8990 C.2   201  ROC201      0.2618
     16  O1         2.0820    8.8920   39.8120 O.2   201  ROC201     -0.2715
     17  CB         2.7660    7.8540   42.3470 C.3   201  ROC201      0.1195
     18  CG         3.5820    7.5720   43.6370 C.2   201  ROC201      0.2630
     19  OD1        4.2090    8.5190   44.1900 O.2   201  ROC201     -0.2716
     20  ND2        3.5860    6.3680   44.0280 N.am  201  ROC201     -0.0877
     21  C9         0.9560    5.8740   37.6430 C.3   201  ROC201      0.1879
     22  O2         1.4750    4.5270   37.4700 O.3   201  ROC201     -0.2198
     23  CA1        1.9870    6.9990   37.6630 C.3   201  ROC201      0.1313
     24  N2         2.7210    6.8610   38.9580 N.am  201  ROC201     -0.2027
     25  CB1        2.9990    6.7490   36.5280 C.3   201  ROC201      0.0506
     26  CG1        4.2480    7.5510   36.7820 C.ar  201  ROC201     -0.0204
     27  CD1        4.2930    8.9070   36.5500 C.ar  201  ROC201     -0.0042
     28  CD2        5.4010    6.8550   37.1920 C.ar  201  ROC201     -0.0042
     29  CE1        5.4820    9.6440   36.8670 C.ar  201  ROC201     -0.0003
     30  CE2        6.5410    7.5420   37.4580 C.ar  201  ROC201     -0.0003
     31  CZ         6.6300    8.9470   37.2380 C.ar  201  ROC201     -0.0000
     32  N11       -1.0890    7.0120   36.8900 N.3   201  ROC201     -0.2643
     33  CM        -0.0480    6.0370   36.5160 C.3   201  ROC201      0.1075
     34  C21       -1.6970    7.7940   35.8130 C.3   201  ROC201      0.1365
     35  CC        -0.6760    8.4060   34.9250 C.2   201  ROC201      0.2558
     36  O3         0.2610    9.1230   35.3690 O.2   201  ROC201     -0.2719
     37  C31       -2.5590    8.9100   36.4270 C.3   201  ROC201      0.0254
     38  C3A       -3.7000    8.3100   37.3380 C.3   201  ROC201      0.0032
     39  C41       -4.6520    9.3580   37.9330 C.3   201  ROC201      0.0001
     40  C51       -3.8790   10.3080   38.8740 C.3   201  ROC201      0.0000
     41  C61       -3.1770    9.4130   39.9410 C.3   201  ROC201      0.0000
     42  C71       -2.2860    8.2630   39.3320 C.3   201  ROC201      0.0014
     43  C7A       -3.1500    7.3570   38.3480 C.3   201  ROC201      0.0161
     44  C81       -2.2210    6.3460   37.6800 C.3   201  ROC201      0.0725
     45  N3        -0.9350    8.1440   33.6290 N.am  201  ROC201     -0.2077
     46  CD        -0.0900    8.6800   32.5650 C.3   201  ROC201      0.0788
     47  C11       -0.6800    8.1950   31.1560 C.3   201  ROC201      0.0217
     48  C22        1.2960    8.1610   32.6720 C.3   201  ROC201      0.0217
     49  C32       -0.0360   10.2170   32.6380 C.3   201  ROC201      0.0217
@<TRIPOS>BOND
     1    47    46    1
     2    46    49    1
     3    46    48    1
     4    46    45    1
     5    45    35   am
     6    35    36    2
     7    35    34    1
     8    34    37    1
     9    34    32    1
    10    37    38    1
    11    33    32    1
    12    33    21    1
    13    25    26    1
    14    25    23    1
    15    27    26   ar
    16    27    29   ar
    17    26    28   ar
    18    29    31   ar
    19    32    44    1
    20    28    30   ar
    21    31    30   ar
    22    38    39    1
    23    38    43    1
    24    22    21    1
    25    21    23    1
    26    23    24    1
    27    44    43    1
    28    39    40    1
    29    43    42    1
    30    40    41    1
    31    24    15   am
    32    42    41    1
    33    16    15    2
    34    15    14    1
    35     9    10    1
    36     9     8    2
    37    10    12    1
    38     8     7    1
    39    12     3    2
    40    12    11    1
    41     3     4    2
    42     7    11    1
    43    11     6    2
    44    13    14    1
    45    13     1   am
    46    14    17    1
    47     4     1    1
    48     4     5    1
    49     1     2    2
    50     6     5    1
    51    17    18    1
    52    18    20   am
    53    18    19    2
