@<TRIPOS>MOLECULE
3s57_AKG_A_1.pdb
 10 9 0 0 0
SMALL
GASTEIGER

@<TRIPOS>ATOM
      1  C1        -0.4270  -14.5990   16.1530 C.2   259  AKG259      0.4219
      2  O1        -1.4660  -14.3750   16.7870 O.co2 259  AKG259     -0.2373
      3  O2        -0.4080  -14.4060   14.8360 O.co2 259  AKG259     -0.2373
      4  C2         0.7650  -15.0310   16.8670 C.2   259  AKG259      0.2526
      5  O5         0.7940  -14.8910   18.0920 O.2   259  AKG259     -0.2843
      6  C3         1.9210  -15.6200   16.0900 C.3   259  AKG259      0.0881
      7  C4         3.0630  -15.9650   17.0360 C.3   259  AKG259      0.1224
      8  C5         4.0840  -16.8830   16.4320 C.2   259  AKG259      0.3653
      9  O3         4.5400  -16.7330   15.2970 O.co2 259  AKG259     -0.2456
     10  O4         4.5210  -17.8460   17.2030 O.co2 259  AKG259     -0.2456
@<TRIPOS>BOND
     1     3     1   ar
     2     9     8   ar
     3     6     4    1
     4     6     7    1
     5     1     2   ar
     6     1     4    1
     7     8     7    1
     8     8    10   ar
     9     4     5    2
