@<TRIPOS>MOLECULE
3s5a_AKG_A_1.pdb
 10 9 0 0 0
SMALL
GASTEIGER

@<TRIPOS>ATOM
      1  C1        -0.4540  -15.0770   16.2120 C.2   259  AKG259      0.4219
      2  O1        -0.4630  -14.9530   14.9900 O.co2 259  AKG259     -0.2373
      3  O2        -1.5890  -14.8160   16.8640 O.co2 259  AKG259     -0.2373
      4  C2         0.7450  -15.4790   16.9490 C.2   259  AKG259      0.2526
      5  O5         0.7870  -15.3240   18.1680 O.2   259  AKG259     -0.2843
      6  C3         1.9480  -16.0580   16.2300 C.3   259  AKG259      0.0881
      7  C4         3.0110  -16.4090   17.2760 C.3   259  AKG259      0.1224
      8  C5         4.0560  -17.3150   16.6650 C.2   259  AKG259      0.3653
      9  O3         4.5220  -18.2340   17.3080 O.co2 259  AKG259     -0.2456
     10  O4         4.4680  -17.1320   15.4190 O.co2 259  AKG259     -0.2456
@<TRIPOS>BOND
     1     2     1   ar
     2    10     8   ar
     3     1     3   ar
     4     1     4    1
     5     6     4    1
     6     6     7    1
     7     8     7    1
     8     8     9   ar
     9     4     5    2
