@<TRIPOS>MOLECULE
3s5w_ONH_A_1.pdb
 10 9 0 0 0
SMALL
GASTEIGER

@<TRIPOS>ATOM
      1  C         96.8520   11.6170  133.1540 C.2   445  ONH445      0.3819
      2  N         96.6120   14.0510  133.4530 N.3   445  ONH445     -0.1208
      3  O         97.5030   11.9350  132.1150 O.co2 445  ONH445     -0.2441
      4  CA        96.1400   12.7150  133.8920 C.3   445  ONH445      0.1944
      5  CB        94.6240   12.5400  133.7400 C.3   445  ONH445      0.0322
      6  CD        92.4290   13.4230  134.4240 C.3   445  ONH445      0.1247
      7  NE        91.8310   14.4520  135.2350 N.4   445  ONH445     -0.0478
      8  CG        93.9230   13.5970  134.5770 C.3   445  ONH445      0.0237
      9  OZ        90.5300   14.8020  134.9520 O.3   445  ONH445     -0.1001
     10  OXT       96.7630   10.4430  133.6140 O.co2 445  ONH445     -0.2441
@<TRIPOS>BOND
     1     3     1   ar
     2     1    10   ar
     3     1     4    1
     4     2     4    1
     5     5     4    1
     6     5     8    1
     7     6     8    1
     8     6     7    1
     9     9     7    1
