@<TRIPOS>MOLECULE
3s5w_NAP_A_1.pdb
 39 42 0 0 0
SMALL
GASTEIGER

@<TRIPOS>ATOM
      1  PA        85.8650   18.6610  141.4690 P.3   452  NAP452      0.2189
      2  O1A       87.1100   18.9240  140.7380 O.2   452  NAP452     -0.5170
      3  O2A       86.0430   17.9940  142.7440 O.3   452  NAP452     -0.4371
      4  O5B       85.0740   20.0350  141.5150 O.3   452  NAP452     -0.3112
      5  C5B       84.1910   20.2080  142.5600 C.3   452  NAP452      0.1813
      6  C4B       83.7850   21.6630  142.4560 C.3   452  NAP452      0.1820
      7  O4B       82.7160   21.7720  143.3520 O.3   452  NAP452     -0.3136
      8  C3B       84.9120   22.5890  142.9340 C.3   452  NAP452      0.2157
      9  O3B       84.7390   23.8030  142.2150 O.3   452  NAP452     -0.2175
     10  C2B       84.5120   22.7690  144.4090 C.3   452  NAP452      0.2314
     11  O2B       84.8890   24.0250  144.8940 O.3   452  NAP452     -0.2630
     12  C1B       82.9660   22.7380  144.3390 C.3   452  NAP452      0.3158
     13  N9A       82.4190   22.3600  145.6520 N.pl3 452  NAP452     -0.1439
     14  C8A       82.6010   21.1650  146.3160 C.3   452  NAP452      0.3377
     15  N7A       81.9520   21.2100  147.5010 N.2   452  NAP452     -0.2095
     16  C5A       81.3860   22.4240  147.6090 C.2   452  NAP452      0.2526
     17  C6A       80.6300   23.0180  148.6210 C.2   452  NAP452      0.4393
     18  N6A       80.3730   22.3580  149.7440 N.pl3 452  NAP452      0.2180
     19  N1A       80.1880   24.2950  148.4430 N.2   452  NAP452      0.0021
     20  C2A       80.4490   25.0100  147.3050 C.3   452  NAP452      0.5254
     21  N3A       81.2020   24.4270  146.2940 N.2   452  NAP452     -0.0055
     22  C4A       81.6720   23.1650  146.4600 C.2   452  NAP452      0.3518
     23  O3        84.8030   17.8610  140.5520 O.3   452  NAP452     -0.2703
     24  PN        84.4490   17.8680  138.9550 P.3   452  NAP452      0.2189
     25  O1N       83.2400   16.9880  138.8220 O.3   452  NAP452     -0.4371
     26  O2N       84.3720   19.2490  138.3770 O.2   452  NAP452     -0.5170
     27  O5D       85.7630   17.0730  138.4720 O.3   452  NAP452     -0.3112
     28  C5D       86.6370   17.3230  137.3920 C.3   452  NAP452      0.1812
     29  C4D       87.0200   15.8930  137.0270 C.3   452  NAP452      0.1780
     30  O4D       87.2950   15.6480  135.6740 O.3   452  NAP452     -0.3482
     31  C3D       88.2250   15.2760  137.7190 C.3   452  NAP452      0.2140
     32  O3D       88.0580   15.2110  139.1150 O.3   452  NAP452     -0.2176
     33  C2D       88.2650   13.9280  136.9810 C.3   452  NAP452      0.2140
     34  O2D       87.5530   12.8500  137.5760 O.3   452  NAP452     -0.2176
     35  C1D       87.6220   14.2640  135.6290 C.3   452  NAP452      0.1777
     36  P2B       86.1740   24.2720  145.8500 P.3   452  NAP452      0.5328
     37  O1X       85.8430   25.6380  146.4380 O.3   452  NAP452     -0.1145
     38  O2X       87.3420   24.2490  144.8830 O.2   452  NAP452     -0.2224
     39  O3X       86.2670   23.1460  146.8490 O.3   452  NAP452     -0.1145
@<TRIPOS>BOND
     1    35    30    1
     2    35    33    1
     3    30    29    1
     4    33    34    1
     5    33    31    1
     6    29    28    1
     7    29    31    1
     8    28    27    1
     9    31    32    1
    10    26    24    2
    11    27    24    1
    12    25    24    1
    13    24    23    1
    14    23     1    1
    15     2     1    2
    16     1     4    1
    17     1     3    1
    18     4     5    1
    19     9     8    1
    20     6     5    1
    21     6     8    1
    22     6     7    1
    23     8    10    1
    24     7    12    1
    25    12    10    1
    26    12    13    1
    27    10    11    1
    28    38    36    2
    29    11    36    1
    30    13    14    1
    31    13    22    1
    32    36    37    1
    33    36    39    1
    34    21    22    2
    35    21    20    1
    36    14    15    1
    37    22    16    1
    38    20    19    1
    39    15    16    2
    40    16    17    1
    41    19    17    2
    42    17    18    1
