@<TRIPOS>MOLECULE
3s5y_FUC_A_1.pdb
 10 10 0 0 0
SMALL
GASTEIGER

@<TRIPOS>ATOM
      1  C1        45.7430    1.4440   44.3490 C.3   644  FUC644      0.1776
      2  C2        46.9470    2.0030   45.1100 C.3   644  FUC644      0.2141
      3  C3        47.2030    1.2410   46.4090 C.3   644  FUC644      0.2172
      4  C4        47.2390   -0.2630   46.1580 C.3   644  FUC644      0.2116
      5  C5        45.9640   -0.6890   45.4370 C.3   644  FUC644      0.1483
      6  C6        45.9570   -2.1870   45.1430 C.3   644  FUC644      0.0349
      7  O2        46.7430    3.3740   45.3910 O.3   644  FUC644     -0.2176
      8  O3        48.4130    1.6690   46.9970 O.3   644  FUC644     -0.2175
      9  O4        48.3670   -0.5950   45.3780 O.3   644  FUC644     -0.2177
     10  O5        45.8410    0.0320   44.2260 O.3   644  FUC644     -0.3508
@<TRIPOS>BOND
     1    10     1    1
     2    10     5    1
     3     1     2    1
     4     2     7    1
     5     2     3    1
     6     6     5    1
     7     9     4    1
     8     5     4    1
     9     4     3    1
    10     3     8    1
