@<TRIPOS>MOLECULE
3s5y_DGJ_A_1.pdb
 11 11 0 0 0
SMALL
GASTEIGER

@<TRIPOS>ATOM
      1  C1        39.1650   16.0310   31.3510 C.3   801  DGJ801      0.1243
      2  C2        39.9530   16.1960   30.0620 C.3   801  DGJ801      0.2020
      3  O2        41.0940   17.0270   30.2770 O.3   801  DGJ801     -0.2188
      4  C3        39.0140   16.7460   28.9920 C.3   801  DGJ801      0.2151
      5  O3        39.7440   17.0680   27.7990 O.3   801  DGJ801     -0.2176
      6  C4        37.9450   15.7000   28.7120 C.3   801  DGJ801      0.2031
      7  O4        38.5840   14.5650   28.1190 O.3   801  DGJ801     -0.2187
      8  C5        37.1990   15.2780   29.9840 C.3   801  DGJ801      0.1386
      9  N5        38.1340   15.0600   31.0690 N.3   801  DGJ801     -0.2113
     10  C6        36.3920   14.0070   29.7670 C.3   801  DGJ801      0.2020
     11  O6        35.4890   13.8040   30.8510 O.3   801  DGJ801     -0.2188
@<TRIPOS>BOND
     1     5     4    1
     2     7     6    1
     3     6     4    1
     4     6     8    1
     5     4     2    1
     6    10     8    1
     7    10    11    1
     8     8     9    1
     9     2     3    1
    10     2     1    1
    11     9     1    1
