@<TRIPOS>MOLECULE
3s5y_NAG_A_1.pdb
 14 14 0 0 0
SMALL
GASTEIGER

@<TRIPOS>ATOM
      1  C1        41.4780    2.4250   42.8280 C.3   639  NAG639      0.1665
      2  C2        42.8530    2.7410   43.4160 C.3   639  NAG639      0.1576
      3  C3        43.3540    1.5600   44.2630 C.3   639  NAG639      0.2069
      4  C4        42.2690    1.1000   45.2470 C.3   639  NAG639      0.2134
      5  C5        40.9670    0.8400   44.4950 C.3   639  NAG639      0.1809
      6  C6        39.8120    0.4390   45.4040 C.3   639  NAG639      0.2141
      7  C7        43.9810    4.2840   41.8540 C.2   639  NAG639      0.2420
      8  C8        44.9630    4.4130   40.7220 C.3   639  NAG639      0.0964
      9  N2        43.7720    3.0520   42.3290 N.am  639  NAG639     -0.2019
     10  O3        44.5250    1.9030   44.9850 O.3   639  NAG639     -0.2184
     11  O4        42.6520   -0.0650   45.9590 O.3   639  NAG639     -0.2176
     12  O5        40.6090    2.0460   43.8730 O.3   639  NAG639     -0.3489
     13  O6        39.5540    1.4720   46.3310 O.3   639  NAG639     -0.2176
     14  O7        43.4240    5.2920   42.2890 O.2   639  NAG639     -0.2733
@<TRIPOS>BOND
     1     8     7    1
     2     7    14    2
     3     7     9   am
     4     9     2    1
     5     1     2    1
     6     1    12    1
     7     2     3    1
     8    12     5    1
     9     3    10    1
    10     3     4    1
    11     5     4    1
    12     5     6    1
    13     4    11    1
    14     6    13    1
