@<TRIPOS>MOLECULE
3s5z_NAG_A_1.pdb
 14 14 0 0 0
SMALL
GASTEIGER

@<TRIPOS>ATOM
      1  C1        19.9290   58.9930    0.5950 C.3   692  NAG692      0.1665
      2  C2        18.5020   58.7540    1.0320 C.3   692  NAG692      0.1576
      3  C3        17.6910   60.0410    0.9780 C.3   692  NAG692      0.2069
      4  C4        18.4090   61.1150    1.7860 C.3   692  NAG692      0.2134
      5  C5        19.8480   61.2970    1.3350 C.3   692  NAG692      0.1809
      6  C6        20.5750   62.1750    2.3460 C.3   692  NAG692      0.2141
      7  C7        17.8620   56.4250    0.5820 C.2   692  NAG692      0.2420
      8  C8        17.2670   55.4610   -0.3970 C.3   692  NAG692      0.0964
      9  N2        17.9470   57.7000    0.1950 N.am  692  NAG692     -0.2019
     10  O3        16.3760   59.8450    1.4810 O.3   692  NAG692     -0.2184
     11  O4        17.7880   62.3620    1.5900 O.3   692  NAG692     -0.2176
     12  O5        20.5500   60.0750    1.2640 O.3   692  NAG692     -0.3489
     13  O6        21.9070   62.3320    1.9330 O.3   692  NAG692     -0.2176
     14  O7        18.2430   56.0150    1.6750 O.2   692  NAG692     -0.2733
@<TRIPOS>BOND
     1     8     7    1
     2     9     7   am
     3     9     2    1
     4     7    14    2
     5     1     2    1
     6     1    12    1
     7     3     2    1
     8     3    10    1
     9     3     4    1
    10    12     5    1
    11     5     4    1
    12     5     6    1
    13    11     4    1
    14    13     6    1
