@<TRIPOS>MOLECULE
3s5z_GAL_A_1.pdb
 12 12 0 0 0
SMALL
GASTEIGER

@<TRIPOS>ATOM
      1  C1        23.2320   65.1070   31.7160 C.3   804  GAL804      0.3024
      2  C2        22.9350   65.6030   30.3030 C.3   804  GAL804      0.2434
      3  C3        22.9310   64.4280   29.3260 C.3   804  GAL804      0.2199
      4  C4        24.2050   63.5880   29.4460 C.3   804  GAL804      0.2144
      5  C5        24.5180   63.2810   30.9150 C.3   804  GAL804      0.1836
      6  C6        25.8620   62.5900   31.0980 C.3   804  GAL804      0.2142
      7  O1        23.2680   66.1960   32.6450 O.3   804  GAL804     -0.1869
      8  O2        21.6640   66.2630   30.2600 O.3   804  GAL804     -0.2148
      9  O3        22.7690   64.9180   27.9910 O.3   804  GAL804     -0.2174
     10  O4        25.3020   64.2550   28.8080 O.3   804  GAL804     -0.2176
     11  O5        24.4990   64.4610   31.7130 O.3   804  GAL804     -0.3236
     12  O6        26.3180   62.7630   32.4520 O.3   804  GAL804     -0.2176
@<TRIPOS>BOND
     1     9     3    1
     2    10     4    1
     3     3     4    1
     4     3     2    1
     5     4     5    1
     6     8     2    1
     7     2     1    1
     8     5     6    1
     9     5    11    1
    10     6    12    1
    11    11     1    1
    12     1     7    1
