@<TRIPOS>MOLECULE
3s5z_GLA_A_1.pdb
 12 12 0 0 0
SMALL
GASTEIGER

@<TRIPOS>ATOM
      1  C1        30.1680   39.6110   15.7910 C.3   801  GLA801      0.3024
      2  C2        28.9850   40.5110   16.1320 C.3   801  GLA801      0.2434
      3  C3        27.8430   39.6940   16.7330 C.3   801  GLA801      0.2199
      4  C4        27.4310   38.6390   15.7170 C.3   801  GLA801      0.2144
      5  C5        28.6370   37.8030   15.2870 C.3   801  GLA801      0.1836
      6  C6        28.2760   36.9170   14.0950 C.3   801  GLA801      0.2142
      7  O1        30.7140   39.0470   16.9580 O.3   801  GLA801     -0.1869
      8  O2        29.4400   41.5150   16.9990 O.3   801  GLA801     -0.2148
      9  O3        26.7210   40.4970   17.0410 O.3   801  GLA801     -0.2174
     10  O4        26.8240   39.2730   14.6050 O.3   801  GLA801     -0.2176
     11  O5        29.7560   38.5890   14.9030 O.3   801  GLA801     -0.3236
     12  O6        29.3060   36.0040   13.7890 O.3   801  GLA801     -0.2176
@<TRIPOS>BOND
     1    12     6    1
     2     6     5    1
     3    10     4    1
     4    11     5    1
     5    11     1    1
     6     5     4    1
     7     4     3    1
     8     1     2    1
     9     1     7    1
    10     2     3    1
    11     2     8    1
    12     3     9    1
