@<TRIPOS>MOLECULE
3s61_NDP_A_1.pdb
 48 52 0 0 0
SMALL
GASTEIGER

@<TRIPOS>ATOM
      1  PA        18.1290  -32.2980  -18.3890 P.3   446  NDP446      0.2189
      2  O1A       19.5100  -32.3040  -17.9090 O.2   446  NDP446     -0.5170
      3  O2A       17.3760  -33.3530  -17.6870 O.3   446  NDP446     -0.4371
      4  O5B       17.5160  -30.8220  -18.2490 O.3   446  NDP446     -0.3112
      5  C5B       16.5280  -30.5680  -17.2920 C.3   446  NDP446      0.1813
      6  C4B       16.1590  -29.1040  -17.3660 C.3   446  NDP446      0.1820
      7  O4B       15.0220  -28.8770  -16.5610 O.3   446  NDP446     -0.3136
      8  C3B       17.2730  -28.2510  -16.8060 C.3   446  NDP446      0.2157
      9  O3B       17.4320  -27.1400  -17.6550 O.3   446  NDP446     -0.2175
     10  C2B       16.7760  -27.8420  -15.4330 C.3   446  NDP446      0.2314
     11  O2B       17.2020  -26.5410  -15.1040 O.3   446  NDP446     -0.2630
     12  C1B       15.2580  -27.9250  -15.5400 C.3   446  NDP446      0.3158
     13  N9A       14.5880  -28.2560  -14.2480 N.pl3 446  NDP446     -0.1439
     14  C8A       14.6250  -29.4390  -13.5380 C.3   446  NDP446      0.3377
     15  N7A       13.8820  -29.3070  -12.4200 N.2   446  NDP446     -0.2095
     16  C5A       13.3650  -28.0540  -12.3900 C.2   446  NDP446      0.2526
     17  C6A       12.5420  -27.3800  -11.4740 C.2   446  NDP446      0.4393
     18  N6A       12.0930  -27.9950  -10.3870 N.pl3 446  NDP446      0.2180
     19  N1A       12.1750  -26.0630  -11.7130 N.2   446  NDP446      0.0021
     20  C2A       12.6190  -25.4190  -12.8650 C.3   446  NDP446      0.5254
     21  N3A       13.4350  -26.0790  -13.7800 N.2   446  NDP446     -0.0055
     22  C4A       13.8000  -27.3800  -13.5400 C.2   446  NDP446      0.3518
     23  O3        18.1450  -32.5600  -19.9740 O.3   446  NDP446     -0.2703
     24  PN        16.8690  -33.0260  -20.8460 P.3   446  NDP446      0.2189
     25  O1N       15.7370  -33.3990  -19.9950 O.3   446  NDP446     -0.4371
     26  O2N       16.6630  -31.9580  -21.8440 O.2   446  NDP446     -0.5170
     27  O5D       17.4200  -34.4010  -21.4890 O.3   446  NDP446     -0.3112
     28  C5D       17.9290  -35.4640  -20.7040 C.3   446  NDP446      0.1813
     29  C4D       18.7760  -36.3900  -21.5700 C.3   446  NDP446      0.1799
     30  O4D       18.2060  -36.5740  -22.8560 O.3   446  NDP446     -0.3327
     31  C3D       20.1370  -35.8020  -21.8400 C.3   446  NDP446      0.2158
     32  O3D       21.0130  -36.8990  -21.9430 O.3   446  NDP446     -0.2175
     33  C2D       19.9720  -35.1410  -23.1900 C.3   446  NDP446      0.2309
     34  O2D       21.1340  -34.9980  -23.9540 O.3   446  NDP446     -0.2158
     35  C1D       19.0720  -36.1190  -23.8870 C.3   446  NDP446      0.2263
     36  N1N       18.4290  -35.4220  -25.0180 N.pl3 446  NDP446     -0.2787
     37  C2N       18.9160  -35.7070  -26.2590 C.3   446  NDP446      0.1244
     38  C3N       18.2010  -35.4560  -27.4330 C.2   446  NDP446      0.0544
     39  C7N       18.8150  -35.8080  -28.7630 C.2   446  NDP446      0.2818
     40  O7N       18.6110  -34.9300  -29.8410 O.2   446  NDP446     -0.2670
     41  N7N       19.5540  -36.9140  -28.8990 N.am  446  NDP446     -0.0839
     42  C4N       16.8330  -34.8150  -27.3820 C.2   446  NDP446      0.0033
     43  C5N       16.3950  -34.5200  -25.9780 C.2   446  NDP446      0.0157
     44  C6N       17.1990  -34.8330  -24.8850 C.2   446  NDP446      0.0633
     45  P2B       18.5430  -26.3250  -14.2420 P.3   446  NDP446      0.5328
     46  O1X       18.4780  -27.2970  -13.0840 O.3   446  NDP446     -0.1145
     47  O2X       18.5820  -24.8900  -13.7500 O.3   446  NDP446     -0.1145
     48  O3X       19.7580  -26.6000  -15.1000 O.2   446  NDP446     -0.2224
@<TRIPOS>BOND
     1    40    39    2
     2    41    39   am
     3    39    38    1
     4    38    42    2
     5    38    37    1
     6    42    43    1
     7    37    36    1
     8    43    44    2
     9    36    44    1
    10    36    35    1
    11    34    33    1
    12    35    33    1
    13    35    30    1
    14    33    31    1
    15    30    29    1
    16    32    31    1
    17    26    24    2
    18    31    29    1
    19    29    28    1
    20    27    24    1
    21    27    28    1
    22    24    25    1
    23    24    23    1
    24    23     1    1
    25     1     4    1
    26     1     2    2
    27     1     3    1
    28     4     5    1
    29     9     8    1
    30     6     5    1
    31     6     8    1
    32     6     7    1
    33     8    10    1
    34     7    12    1
    35    12    10    1
    36    12    13    1
    37    10    11    1
    38    11    45    1
    39    48    45    2
    40    13    22    1
    41    13    14    1
    42    45    47    1
    43    45    46    1
    44    21    22    2
    45    21    20    1
    46    22    16    1
    47    14    15    1
    48    20    19    1
    49    15    16    2
    50    16    17    1
    51    19    17    2
    52    17    18    1
