@<TRIPOS>MOLECULE
3s65_HEM_A_1.pdb
 43 50 0 0 0
SMALL
GASTEIGER

@<TRIPOS>ATOM
      1  CHA       30.0490   -1.5170  -40.0060 C.2   142  HEM142      0.0000
      2  CHB       28.3960   -5.8090  -38.7710 C.2   142  HEM142      0.0000
      3  CHC       25.0920   -3.4290  -36.1160 C.2   142  HEM142      0.0000
      4  CHD       26.3080    0.8400  -37.7370 C.2   142  HEM142      0.0000
      5  C1A       29.9060   -2.8780  -39.9610 C.ar  142  HEM142      0.0000
      6  C2A       30.6410   -3.9070  -40.6840 C.ar  142  HEM142      0.0000
      7  C3A       30.1720   -5.0860  -40.3370 C.ar  142  HEM142      0.0000
      8  C4A       29.1290   -4.8540  -39.3790 C.ar  142  HEM142      0.0000
      9  CMA       30.6190   -6.4790  -40.8190 C.3   142  HEM142      0.0000
     10  CAA       31.7710   -3.7560  -41.7070 C.3   142  HEM142      0.0000
     11  CBA       32.6470   -2.5470  -41.4390 C.3   142  HEM142      0.0000
     12  CGA       33.6400   -2.6190  -42.5590 C.2   142  HEM142      0.0000
     13  O1A       34.7940   -3.0400  -42.2950 O.co2 142  HEM142      0.0000
     14  O2A       33.2410   -2.2980  -43.7120 O.co2 142  HEM142      0.0000
     15  C1B       27.4160   -5.3750  -37.9310 C.2   142  HEM142      0.0000
     16  C2B       26.6850   -6.2950  -37.0800 C.2   142  HEM142      0.0000
     17  C3B       25.8170   -5.5930  -36.4040 C.2   142  HEM142      0.0000
     18  C4B       25.9610   -4.2390  -36.7900 C.2   142  HEM142      0.0000
     19  CMB       26.8380   -7.8280  -36.9130 C.3   142  HEM142      0.0000
     20  CAB       24.7870   -6.0760  -35.3600 C.2   142  HEM142      0.0000
     21  CBB       24.6130   -7.3710  -35.0650 C.2   142  HEM142      0.0000
     22  C1C       25.0490   -2.1060  -36.3370 C.ar  142  HEM142      0.0000
     23  C2C       24.0360   -1.2100  -35.8460 C.ar  142  HEM142      0.0000
     24  C3C       24.3940    0.0040  -36.2830 C.ar  142  HEM142      0.0000
     25  C4C       25.6050   -0.1370  -37.0850 C.ar  142  HEM142      0.0000
     26  CMC       22.8660   -1.6700  -34.9240 C.3   142  HEM142      0.0000
     27  CAC       23.6960    1.3520  -36.1160 C.2   142  HEM142      0.0000
     28  CBC       22.3610    1.4530  -36.0020 C.2   142  HEM142      0.0000
     29  C1D       27.4280    0.5590  -38.5070 C.2   142  HEM142      0.0000
     30  C2D       28.1770    1.5650  -39.2190 C.2   142  HEM142      0.0000
     31  C3D       29.3200    0.8290  -39.9010 C.2   142  HEM142      0.0000
     32  C4D       29.1630   -0.5560  -39.5490 C.2   142  HEM142      0.0000
     33  CMD       27.8810    3.0720  -39.2780 C.3   142  HEM142      0.0000
     34  CAD       30.4130    1.4280  -40.8160 C.3   142  HEM142      0.0000
     35  CBD       30.4310    0.5940  -42.0970 C.3   142  HEM142      0.0000
     36  CGD       31.5530    1.0190  -43.0200 C.2   142  HEM142      0.0000
     37  O1D       31.9740    2.2080  -42.9700 O.co2 142  HEM142      0.0000
     38  O2D       32.0190    0.1520  -43.8010 O.co2 142  HEM142      0.0000
     39  NA        28.9850   -3.5080  -39.1770 N.ar  142  HEM142      0.0000
     40  NB        26.9760   -4.0410  -37.7880 N.2   142  HEM142      0.0000
     41  NC        25.9790   -1.4460  -37.0720 N.ar  142  HEM142      0.0000
     42  ND        28.0420   -0.6830  -38.7050 N.2   142  HEM142      0.0000
     43 FE         27.5760   -2.4040  -38.0910 Fe    142  HEM142      0.0000
@<TRIPOS>BOND
     1    38    36   ar
     2    14    12   ar
     3    36    37   ar
     4    36    35    1
     5    12    13   ar
     6    12    11    1
     7    35    34    1
     8    10    11    1
     9    10     6    1
    10     9     7    1
    11    34    31    1
    12     6     7   ar
    13     6     5   ar
    14     7     8   ar
    15     1     5    2
    16     1    32    1
    17     5    39   ar
    18    31    32    1
    19    31    30    2
    20    32    42    2
    21     8    39   ar
    22     8     2    2
    23    33    30    1
    24    30    29    1
    25    39    43    1
    26     2    15    1
    27    42    29    1
    28    42    43    1
    29    29     4    2
    30    43    40    1
    31    43    41    1
    32    15    40    2
    33    15    16    1
    34    40    18    1
    35     4    25    1
    36    25    41   ar
    37    25    24   ar
    38    16    19    1
    39    16    17    2
    40    41    22   ar
    41    18    17    1
    42    18     3    2
    43    17    20    1
    44    22     3    1
    45    22    23   ar
    46    24    27    1
    47    24    23   ar
    48    27    28    2
    49    23    26    1
    50    20    21    2
