@<TRIPOS>MOLECULE
3s66_HEM_A_1.pdb
 43 50 0 0 0
SMALL
GASTEIGER

@<TRIPOS>ATOM
      1  CHA      -24.8450   42.8340  -17.3040 C.2   142  HEM142      0.0000
      2  CHB      -20.5750   40.7580  -16.3340 C.2   142  HEM142      0.0000
      3  CHC      -22.8410   37.6310  -13.3950 C.2   142  HEM142      0.0000
      4  CHD      -27.1580   39.3340  -14.7840 C.2   142  HEM142      0.0000
      5  C1A      -23.5040   42.5360  -17.3070 C.ar  142  HEM142      0.0000
      6  C2A      -22.5040   43.2430  -18.0750 C.ar  142  HEM142      0.0000
      7  C3A      -21.3210   42.6660  -17.7970 C.ar  142  HEM142      0.0000
      8  C4A      -21.5440   41.5840  -16.8630 C.ar  142  HEM142      0.0000
      9  CMA      -19.9160   43.0360  -18.3360 C.3   142  HEM142      0.0000
     10  CAA      -22.8090   44.4480  -18.9980 C.3   142  HEM142      0.0000
     11  CBA      -22.4250   45.7030  -18.2200 C.3   142  HEM142      0.0000
     12  CGA      -22.9530   46.9700  -18.8450 C.2   142  HEM142      0.0000
     13  O1A      -22.5960   48.0640  -18.3370 O.co2 142  HEM142      0.0000
     14  O2A      -23.7260   46.8950  -19.8310 O.co2 142  HEM142      0.0000
     15  C1B      -20.8010   39.7320  -15.4450 C.2   142  HEM142      0.0000
     16  C2B      -19.8100   38.8630  -14.8460 C.2   142  HEM142      0.0000
     17  C3B      -20.4400   38.0170  -14.0250 C.2   142  HEM142      0.0000
     18  C4B      -21.8610   38.3150  -14.0890 C.2   142  HEM142      0.0000
     19  CMB      -18.2930   38.9640  -15.1200 C.3   142  HEM142      0.0000
     20  CAB      -19.8560   36.8820  -13.1750 C.2   142  HEM142      0.0000
     21  CBB      -18.7650   36.2090  -13.5690 C.2   142  HEM142      0.0000
     22  C1C      -24.1930   37.7920  -13.5690 C.ar  142  HEM142      0.0000
     23  C2C      -25.1980   36.9140  -13.0260 C.ar  142  HEM142      0.0000
     24  C3C      -26.3860   37.3990  -13.4140 C.ar  142  HEM142      0.0000
     25  C4C      -26.1760   38.5700  -14.2080 C.ar  142  HEM142      0.0000
     26  CMC      -24.9090   35.6720  -12.1600 C.3   142  HEM142      0.0000
     27  CAC      -27.8100   36.8620  -13.1680 C.2   142  HEM142      0.0000
     28  CBC      -28.0590   35.5510  -13.0870 C.2   142  HEM142      0.0000
     29  C1D      -26.9280   40.4400  -15.5570 C.2   142  HEM142      0.0000
     30  C2D      -27.9300   41.2750  -16.1220 C.2   142  HEM142      0.0000
     31  C3D      -27.2380   42.3570  -16.9000 C.2   142  HEM142      0.0000
     32  C4D      -25.8300   42.0790  -16.7320 C.2   142  HEM142      0.0000
     33  CMD      -29.4430   41.0870  -15.9660 C.3   142  HEM142      0.0000
     34  CAD      -27.9320   43.4970  -17.6720 C.3   142  HEM142      0.0000
     35  CBD      -28.2160   43.0580  -19.1070 C.3   142  HEM142      0.0000
     36  CGD      -29.1380   44.0400  -19.7830 C.2   142  HEM142      0.0000
     37  O1D      -30.0400   44.5890  -19.1020 O.co2 142  HEM142      0.0000
     38  O2D      -28.9860   44.2620  -21.0100 O.co2 142  HEM142      0.0000
     39  NA       -22.8980   41.5310  -16.5970 N.ar  142  HEM142      0.0000
     40  NB       -22.0550   39.3690  -14.9530 N.2   142  HEM142      0.0000
     41  NC       -24.8060   38.7890  -14.2740 N.ar  142  HEM142      0.0000
     42  ND       -25.6870   40.9360  -15.9420 N.2   142  HEM142      0.0000
     43 FE        -23.8490   40.1350  -15.4670 Fe    142  HEM142      0.0000
@<TRIPOS>BOND
     1    38    36   ar
     2    14    12   ar
     3    36    35    1
     4    36    37   ar
     5    35    34    1
     6    10    11    1
     7    10     6    1
     8    12    13   ar
     9    12    11    1
    10     9     7    1
    11     6     7   ar
    12     6     5   ar
    13     7     8   ar
    14    34    31    1
    15     5     1    2
    16     5    39   ar
    17     1    32    1
    18    31    32    1
    19    31    30    2
    20     8    39   ar
    21     8     2    2
    22    32    42    2
    23    39    43    1
    24     2    15    1
    25    30    33    1
    26    30    29    1
    27    42    29    1
    28    42    43    1
    29    29     4    2
    30    43    40    1
    31    43    41    1
    32    15    40    2
    33    15    16    1
    34    19    16    1
    35    40    18    1
    36    16    17    2
    37     4    25    1
    38    41    25   ar
    39    41    22   ar
    40    25    24   ar
    41    18    17    1
    42    18     3    2
    43    17    20    1
    44    22     3    1
    45    22    23   ar
    46    21    20    2
    47    24    27    1
    48    24    23   ar
    49    27    28    2
    50    23    26    1
