@<TRIPOS>MOLECULE
3s68_TCW_A_1.pdb
 31 32 0 0 0
SMALL
GASTEIGER

@<TRIPOS>ATOM
      1  O13      -13.3170   35.2330   60.2030 O.2   227  TCW227     -0.2867
      2  C12      -13.5590   36.0750   61.0640 C.2   227  TCW227      0.1933
      3  C4       -12.3980   36.6530   61.8190 C.ar  227  TCW227      0.0281
      4  C3       -11.2040   35.8810   61.9370 C.ar  227  TCW227     -0.0056
      5  C2       -10.0940   36.4350   62.6250 C.ar  227  TCW227      0.1612
      6  O7        -8.9270   35.7180   62.7920 O.3   227  TCW227     -0.5032
      7  C5       -12.4720   37.9530   62.3310 C.ar  227  TCW227     -0.0168
      8  C6       -11.3610   38.4980   62.9780 C.ar  227  TCW227      0.1717
      9  N9       -11.4610   39.8150   63.4940 N.pl3 227  TCW227      0.0602
     10  O11      -12.4810   40.4540   63.2540 O.2   227  TCW227     -0.1260
     11  O10      -10.5760   40.3390   64.1970 O.2   227  TCW227     -0.1260
     12  C1       -10.1770   37.7240   63.1130 C.ar  227  TCW227      0.1891
     13  O8        -9.0720   38.2390   63.7360 O.3   227  TCW227     -0.5018
     14  C14      -14.9510   36.5700   61.2700 C.ar  227  TCW227      0.0223
     15  C19      -15.7120   36.8580   60.1250 C.ar  227  TCW227     -0.0507
     16  C18      -17.0150   37.3330   60.2810 C.ar  227  TCW227     -0.0582
     17  C17      -17.5400   37.5300   61.5650 C.ar  227  TCW227     -0.0504
     18  C20      -18.9460   38.0550   61.7210 C.3   227  TCW227     -0.0397
     19  C16      -16.7690   37.2590   62.7070 C.ar  227  TCW227     -0.0582
     20  C15      -15.4610   36.7790   62.5580 C.ar  227  TCW227     -0.0507
     21  H3       -11.1640   34.9740   61.5820 H     227  TCW227      0.0662
     22  HO7       -9.0440   35.1020   63.4220 H     227  TCW227      0.2923
     23  H5       -13.2800   38.4820   62.2130 H     227  TCW227      0.0649
     24  HO8       -8.4000   38.2880   63.1550 H     227  TCW227      0.2924
     25  H19      -15.3420   36.7130   59.2350 H     227  TCW227      0.0625
     26  H18      -17.5600   37.5290   59.4960 H     227  TCW227      0.0620
     27  H20      -19.0330   38.5010   62.5850 H     227  TCW227      0.0278
     28 H20A      -19.1380   38.6910   61.0060 H     227  TCW227      0.0278
     29 H20B      -19.5780   37.3130   61.6730 H     227  TCW227      0.0278
     30  H16      -17.1420   37.4000   63.5960 H     227  TCW227      0.0620
     31  H15      -14.9170   36.5810   63.3410 H     227  TCW227      0.0625
@<TRIPOS>BOND
     1    25    15    1
     2    26    16    1
     3    15    16   ar
     4    15    14   ar
     5     1     2    2
     6    16    17   ar
     7    28    18    1
     8     2    14    1
     9     2     3    1
    10    14    20   ar
    11    17    18    1
    12    17    19   ar
    13    21     4    1
    14    29    18    1
    15    18    27    1
    16     3     4   ar
    17     3     7   ar
    18     4     5   ar
    19    23     7    1
    20     7     8   ar
    21    20    19   ar
    22    20    31    1
    23     5     6    1
    24     5    12   ar
    25    19    30    1
    26     6    22    1
    27     8    12   ar
    28     8     9    1
    29    12    13    1
    30    24    13    1
    31    10     9    2
    32     9    11    2
