@<TRIPOS>MOLECULE
3s68_SAM_A_1.pdb
 50 52 0 0 0
SMALL
GASTEIGER

@<TRIPOS>ATOM
      1  N         -4.9340   37.9300   68.6720 N.4   228  SAM228      0.3872
      2  CA        -6.0510   37.1460   69.2780 C.3   228  SAM228      0.0248
      3  C         -5.8240   35.6480   69.1920 C.2   228  SAM228      0.3422
      4  O         -5.2930   35.1670   68.1740 O.co2 228  SAM228     -0.2483
      5  OXT       -6.1850   34.8590   70.0910 O.co2 228  SAM228     -0.2483
      6  CB        -7.4320   37.4340   68.6290 C.3   228  SAM228     -0.0106
      7  CG        -7.7700   38.9510   68.5630 C.3   228  SAM228      0.1086
      8  SD        -9.4850   39.1090   67.8890 S.3   228  SAM228     -0.0107
      9  CE        -9.2350   38.5040   66.2170 C.3   228  SAM228      0.0995
     10  C5'       -9.5470   40.8770   67.6350 C.3   228  SAM228      0.1381
     11  C4'       -9.5180   41.6390   68.9040 C.3   228  SAM228      0.1338
     12  O4'       -9.1570   42.9580   68.5250 O.3   228  SAM228     -0.3450
     13  C3'      -10.8760   41.6850   69.6510 C.3   228  SAM228      0.1156
     14  O3'      -10.5990   41.2440   71.0070 O.3   228  SAM228     -0.3863
     15  C2'      -11.2070   43.1920   69.5970 C.3   228  SAM228      0.1267
     16  O2'      -11.8430   43.6940   70.7890 O.3   228  SAM228     -0.3849
     17  C1'       -9.8020   43.8130   69.4850 C.3   228  SAM228      0.1619
     18  N9        -9.6740   45.1700   68.9270 N.pl3 228  SAM228     -0.2234
     19  C8       -10.2940   45.6690   67.7520 C.2   228  SAM228      0.1451
     20  N7        -9.8590   46.8860   67.4450 N.2   228  SAM228     -0.3871
     21  C5        -8.9460   47.2370   68.4080 C.2   228  SAM228      0.2211
     22  C6        -8.1720   48.3970   68.6280 C.2   228  SAM228      0.2227
     23  N6        -8.2030   49.5130   67.7830 N.pl3 228  SAM228     -0.3300
     24  N1        -7.3560   48.4400   69.6790 N.2   228  SAM228     -0.3296
     25  C2        -7.3030   47.4030   70.5540 C.1   228  SAM228      0.0930
     26  N3        -8.0020   46.3050   70.3990 N.2   228  SAM228     -0.3287
     27  C4        -8.8330   46.2450   69.3580 C.2   228  SAM228      0.2354
     28  H3        -3.9350   37.9320   68.9010 H     228  SAM228     -0.0889
     29  HN1       -5.1190   38.9320   68.7840 H     228  SAM228     -0.0889
     30  HN2       -4.8620   37.7050   67.6740 H     228  SAM228     -0.0889
     31  HA        -6.1060   37.3860   70.2230 H     228  SAM228      0.0200
     32  HB1       -8.1240   36.9790   69.1460 H     228  SAM228      0.0299
     33  HB2       -7.4310   37.0750   67.7210 H     228  SAM228      0.0299
     34  HG1       -7.7230   39.3430   69.4540 H     228  SAM228      0.0839
     35  HG2       -7.1400   39.4030   67.9700 H     228  SAM228      0.0839
     36  HE1       -9.9280   38.8650   65.6330 H     228  SAM228      0.0803
     37  HE2       -8.3590   38.7880   65.8960 H     228  SAM228      0.0803
     38  HE3       -9.2820   37.5290   66.2130 H     228  SAM228      0.0803
     39 H5'1       -8.7760   41.1410   67.0960 H     228  SAM228      0.0867
     40 H5'2      -10.3640   41.1000   67.1500 H     228  SAM228      0.0867
     41  H4'       -8.8320   41.2730   69.4930 H     228  SAM228      0.0671
     42  H3'      -11.5590   41.1400   69.2140 H     228  SAM228      0.0648
     43 HO3'       -9.8120   41.5690   71.2700 H     228  SAM228      0.2100
     44  H2'      -11.7400   43.4030   68.8070 H     228  SAM228      0.0663
     45 HO2'      -11.2620   43.6830   71.4620 H     228  SAM228      0.2101
     46  H1'       -9.3650   43.8850   70.4710 H     228  SAM228      0.0841
     47  H8       -11.0190   45.1680   67.1270 H     228  SAM228      0.1149
     48 HN61       -7.6960   50.2230   67.9640 H     228  SAM228      0.1448
     49 HN62       -8.7310   49.5130   67.0650 H     228  SAM228      0.1448
     50  H2        -6.6450   47.4390   71.4110 H     228  SAM228      0.1751
@<TRIPOS>UNITY_ATOM_ATTR
8 1
charge 1
@<TRIPOS>BOND
     1    36     9    1
     2    37     9    1
     3    38     9    1
     4     9     8    1
     5    49    23    1
     6    39    10    1
     7    47    19    1
     8    40    10    1
     9    20    19    2
    10    20    21    2
    11    10     8    1
    12    10    11    1
    13    30     1    1
    14    33     6    1
    15    19    18    1
    16    23    48    1
    17    23    22    1
    18     8     7    1
    19    35     7    1
    20     4     3   ar
    21    21    22    1
    22    21    27    1
    23    12    11    1
    24    12    17    1
    25     7     6    1
    26     7    34    1
    27    22    24    2
    28     6    32    1
    29     6     2    1
    30     1    29    1
    31     1    28    1
    32     1     2    1
    33    44    15    1
    34    11    41    1
    35    11    13    1
    36    18    27    1
    37    18    17    1
    38     3     2    1
    39     3     5   ar
    40    42    13    1
    41     2    31    1
    42    27    26    2
    43    17    15    1
    44    17    46    1
    45    15    13    1
    46    15    16    1
    47    13    14    1
    48    24    25    2
    49    26    25    2
    50    25    50    1
    51    16    45    1
    52    14    43    1
