@<TRIPOS>MOLECULE
3s6a_ANP_A_1.pdb
 27 29 0 0 0
SMALL
GASTEIGER

@<TRIPOS>ATOM
      1  PB       -21.3030   71.9540   -3.8330 P.3   300  ANP300      0.4738
      2  O1B      -21.3750   73.1880   -2.9560 O.3   300  ANP300     -0.1247
      3  O2B      -20.5630   70.7030   -3.3250 O.2   300  ANP300     -0.2343
      4  N3B      -20.5300   72.5540   -5.2850 N.3   300  ANP300     -0.0178
      5  PA       -23.7700   70.6430   -3.2280 P.3   300  ANP300      0.2220
      6  O1A      -23.5880   71.0650   -1.7940 O.3   300  ANP300     -0.4370
      7  O2A      -25.1920   70.6210   -3.7790 O.2   300  ANP300     -0.5170
      8  O3A      -22.8300   71.5070   -4.2160 O.3   300  ANP300     -0.2354
      9  O5'      -23.2940   69.1140   -3.4220 O.3   300  ANP300     -0.3111
     10  C5'      -23.3590   68.5140   -4.7190 C.3   300  ANP300      0.1813
     11  C4'      -23.5580   67.0120   -4.6140 C.3   300  ANP300      0.1821
     12  O4'      -24.9580   66.7410   -4.4690 O.3   300  ANP300     -0.3135
     13  C3'      -23.1360   66.2290   -5.8550 C.3   300  ANP300      0.2184
     14  O3'      -21.7460   65.9190   -5.9090 O.3   300  ANP300     -0.2174
     15  C2'      -24.0190   65.0060   -5.7380 C.3   300  ANP300      0.2570
     16  O2'      -23.5070   64.1060   -4.7520 O.3   300  ANP300     -0.2130
     17  C1'      -25.3080   65.5300   -5.1480 C.3   300  ANP300      0.3186
     18  N9       -26.3600   65.9010   -6.1120 N.pl3 300  ANP300     -0.1439
     19  C8       -26.2790   66.7580   -7.1570 C.3   300  ANP300      0.3377
     20  N7       -27.4890   66.8600   -7.7720 N.2   300  ANP300     -0.2095
     21  C5       -28.3610   66.0580   -7.1100 C.2   300  ANP300      0.2526
     22  C6       -29.7930   65.7030   -7.2150 C.2   300  ANP300      0.4393
     23  N6       -30.6070   66.2180   -8.1950 N.pl3 300  ANP300      0.2180
     24  N1       -30.2760   64.8470   -6.2920 N.2   300  ANP300      0.0021
     25  C2       -29.5310   64.3140   -5.3150 C.3   300  ANP300      0.5254
     26  N3       -28.2360   64.5950   -5.1550 N.2   300  ANP300     -0.0055
     27  C4       -27.6160   65.4450   -6.0090 C.2   300  ANP300      0.3518
@<TRIPOS>BOND
     1    23    22    1
     2    20    19    1
     3    20    21    2
     4    22    21    1
     5    22    24    2
     6    19    18    1
     7    21    27    1
     8    24    25    1
     9    18    27    1
    10    18    17    1
    11    27    26    2
    12    14    13    1
    13    13    15    1
    14    13    11    1
    15    15    17    1
    16    15    16    1
    17    25    26    1
    18     4     1    1
    19    17    12    1
    20    10    11    1
    21    10     9    1
    22    11    12    1
    23     8     1    1
    24     8     5    1
    25     1     3    2
    26     1     2    1
    27     7     5    2
    28     9     5    1
    29     5     6    1
