@<TRIPOS>MOLECULE
3s6f_COA_A_1.pdb
 48 50 0 0 0
SMALL
GASTEIGER

@<TRIPOS>ATOM
      1  N1A       26.3680   17.5900   26.7310 N.2   200  COA200      0.0021
      2  C2A       27.1670   17.0000   25.7750 C.3   200  COA200      0.5254
      3  N3A       27.8350   17.7380   24.8250 N.2   200  COA200     -0.0055
      4  C4A       27.6730   19.0850   24.8320 C.2   200  COA200      0.3518
      5  C5A       26.8480   19.7020   25.7670 C.2   200  COA200      0.2526
      6  C6A       26.2070   18.9480   26.7480 C.2   200  COA200      0.4393
      7  N6A       25.4390   19.5070   27.6910 N.pl3 200  COA200      0.2180
      8  N7A       26.8840   21.0380   25.5160 N.2   200  COA200     -0.2095
      9  C8A       27.6910   21.2440   24.4530 C.3   200  COA200      0.3377
     10  N9A       28.1850   20.0480   24.0150 N.pl3 200  COA200     -0.1439
     11  C1B       29.1300   19.8300   22.9220 C.3   200  COA200      0.3185
     12  C2B       28.5380   18.9790   21.8060 C.3   200  COA200      0.2543
     13  O2B       29.6050   18.2450   21.2900 O.3   200  COA200     -0.2131
     14  C3B       28.0760   19.9700   20.7490 C.3   200  COA200      0.1928
     15  O3B       28.0080   19.4340   19.4390 O.3   200  COA200     -0.2673
     16  P3B       26.5910   18.9200   18.8350 P.3   200  COA200      0.5327
     17  O7A       26.1060   17.8350   19.7630 O.3   200  COA200     -0.1145
     18  O8A       25.6390   20.0890   18.8230 O.3   200  COA200     -0.1145
     19  O9A       26.9210   18.4180   17.4500 O.2   200  COA200     -0.2224
     20  C4B       29.1570   21.0260   20.9150 C.3   200  COA200      0.1795
     21  O4B       29.4590   21.0500   22.3040 O.3   200  COA200     -0.3136
     22  C5B       28.7260   22.4040   20.4480 C.3   200  COA200      0.1812
     23  O5B       29.8750   23.2210   20.3140 O.3   200  COA200     -0.3112
     24  P1A       29.6690   24.6950   19.6870 P.3   200  COA200      0.2189
     25  O1A       31.0400   25.2580   19.5590 O.3   200  COA200     -0.4371
     26  O2A       28.7890   24.6860   18.4710 O.2   200  COA200     -0.5170
     27  O3A       28.9720   25.4300   20.9200 O.3   200  COA200     -0.2703
     28  P2A       27.4350   25.8560   21.1040 P.3   200  COA200      0.2188
     29  O4A       26.5520   24.7010   20.8200 O.3   200  COA200     -0.4371
     30  O5A       27.2170   27.1160   20.3420 O.2   200  COA200     -0.5170
     31  O6A       27.4760   26.2220   22.6500 O.3   200  COA200     -0.3138
     32  CBP       27.3720   25.6250   24.9620 C.3   200  COA200      0.0645
     33  CCP       27.9750   25.2890   23.6080 C.3   200  COA200      0.1519
     34  CDP       27.7440   27.0720   25.3380 C.3   200  COA200      0.0056
     35  CEP       27.9610   24.6660   26.0210 C.3   200  COA200      0.0056
     36  CAP       25.8510   25.4370   24.8190 C.3   200  COA200      0.2312
     37  OAP       25.5180   24.0640   24.7250 O.3   200  COA200     -0.2131
     38  C9P       25.1230   26.0270   26.0040 C.2   200  COA200      0.2719
     39  O9P       24.7980   27.3140   26.0230 O.2   200  COA200     -0.2706
     40  N8P       24.7500   25.2490   27.0110 N.am  200  COA200     -0.2028
     41  C7P       24.0460   25.7720   28.1760 C.3   200  COA200      0.1248
     42  C6P       24.9420   26.5480   29.1520 C.3   200  COA200      0.1102
     43  C5P       26.2090   25.7880   29.4220 C.2   200  COA200      0.2432
     44  O5P       26.1530   24.5870   29.7010 O.2   200  COA200     -0.2733
     45  N4P       27.3420   26.5020   29.3510 N.am  200  COA200     -0.2044
     46  C3P       28.6160   26.0080   29.8150 C.3   200  COA200      0.1276
     47  C2P       28.9390   26.7090   31.1340 C.3   200  COA200      0.0920
     48  S1P       27.8720   26.1730   32.5140 S.3   200  COA200     -0.0802
@<TRIPOS>BOND
     1    19    16    2
     2    26    24    2
     3    18    16    1
     4    16    15    1
     5    16    17    1
     6    15    14    1
     7    25    24    1
     8    24    23    1
     9    24    27    1
    10    23    22    1
    11    30    28    2
    12    22    20    1
    13    14    20    1
    14    14    12    1
    15    29    28    1
    16    20    21    1
    17    27    28    1
    18    28    31    1
    19    13    12    1
    20    12    11    1
    21    21    11    1
    22    31    33    1
    23    11    10    1
    24    33    32    1
    25    10     9    1
    26    10     4    1
    27     9     8    1
    28    37    36    1
    29    36    32    1
    30    36    38    1
    31     3     4    2
    32     3     2    1
    33     4     5    1
    34    32    34    1
    35    32    35    1
    36     8     5    2
    37     5     6    1
    38     2     1    1
    39    38    39    2
    40    38    40   am
    41     1     6    2
    42     6     7    1
    43    40    41    1
    44    41    42    1
    45    42    43    1
    46    45    43   am
    47    45    46    1
    48    43    44    2
    49    46    47    1
    50    47    48    1
