@<TRIPOS>MOLECULE
3s6g_COA_Y_1.pdb
 48 50 0 0 0
SMALL
GASTEIGER

@<TRIPOS>ATOM
      1  N1A       93.5160   34.0110   64.2700 N.2   441  COA441      0.0021
      2  C2A       92.6250   34.1610   65.3560 C.3   441  COA441      0.5254
      3  N3A       92.9510   35.0980   66.4360 N.2   441  COA441     -0.0055
      4  C4A       94.1380   35.8340   66.3830 C.2   441  COA441      0.3518
      5  C5A       95.0550   35.6850   65.2730 C.2   441  COA441      0.2526
      6  C6A       94.7420   34.7720   64.2180 C.2   441  COA441      0.4393
      7  N6A       95.6780   34.6220   63.1040 N.pl3 441  COA441      0.2180
      8  N7A       96.2160   36.5890   65.4920 N.2   441  COA441     -0.2095
      9  C8A       96.0090   37.2620   66.7030 C.3   441  COA441      0.3377
     10  N9A       94.6990   36.7910   67.2630 N.pl3 441  COA441     -0.1439
     11  C1B       94.1020   37.2230   68.5240 C.3   441  COA441      0.3185
     12  C2B       93.9560   36.1580   69.6850 C.3   441  COA441      0.2543
     13  O2B       92.8030   35.3950   69.7670 O.3   441  COA441     -0.2131
     14  C3B       94.5890   36.8510   70.9220 C.3   441  COA441      0.1928
     15  O3B       93.9410   36.9520   72.1510 O.3   441  COA441     -0.2673
     16  P3B       93.4300   35.7280   73.0030 P.3   441  COA441      0.5327
     17  O7A       92.3870   36.2580   74.0320 O.3   441  COA441     -0.1145
     18  O8A       92.7660   34.6100   72.1280 O.2   441  COA441     -0.2224
     19  O9A       94.5730   35.1470   73.7720 O.3   441  COA441     -0.1145
     20  C4B       95.1640   38.1740   70.3320 C.3   441  COA441      0.1795
     21  O4B       94.2660   38.5030   69.2130 O.3   441  COA441     -0.3136
     22  C5B       96.6870   38.3790   70.1890 C.3   441  COA441      0.1812
     23  O5B       97.1460   39.6800   70.0270 O.3   441  COA441     -0.3112
     24  P1A       97.2930   40.6750   71.2700 P.3   441  COA441      0.2189
     25  O1A       96.4210   40.1320   72.4700 O.3   441  COA441     -0.4371
     26  O2A       96.7870   42.0490   70.8530 O.2   441  COA441     -0.5170
     27  O3A       98.8020   40.7880   71.7310 O.3   441  COA441     -0.2703
     28  P2A       99.3280   41.9280   72.6910 P.3   441  COA441      0.2188
     29  O4A      100.8780   41.9620   72.6510 O.3   441  COA441     -0.4371
     30  O5A       98.8190   43.2450   72.2140 O.2   441  COA441     -0.5170
     31  O6A       98.8430   41.6770   74.2090 O.3   441  COA441     -0.3138
     32  CBP       97.8330   43.5340   75.6280 C.3   441  COA441      0.0645
     33  CCP       99.0250   42.6500   75.2130 C.3   441  COA441      0.1519
     34  CDP       96.9480   42.7360   76.5620 C.3   441  COA441      0.0056
     35  CEP       96.9910   43.9040   74.4060 C.3   441  COA441      0.0056
     36  CAP       98.2480   44.8720   76.3410 C.3   441  COA441      0.2312
     37  OAP       97.1180   45.4980   76.8860 O.3   441  COA441     -0.2131
     38  C9P       99.4740   44.9430   77.2460 C.2   441  COA441      0.2719
     39  O9P       99.3690   45.1440   78.4660 O.2   441  COA441     -0.2706
     40  N8P      100.7850   45.1910   76.5800 N.am  441  COA441     -0.2028
     41  C7P      101.6300   46.3050   76.9120 C.3   441  COA441      0.1248
     42  C6P      102.5620   46.7940   75.8330 C.3   441  COA441      0.1102
     43  C5P      104.0040   46.7010   76.2800 C.2   441  COA441      0.2432
     44  O5P      104.8890   46.7830   75.4580 O.2   441  COA441     -0.2733
     45  N4P      104.3100   46.3360   77.6710 N.am  441  COA441     -0.2044
     46  C3P      105.6780   46.2850   78.2070 C.3   441  COA441      0.1276
     47  C2P      105.9700   47.0780   79.4480 C.3   441  COA441      0.0920
     48  S1P      105.6320   48.7930   79.4270 S.3   441  COA441     -0.0802
@<TRIPOS>BOND
     1     7     6    1
     2     6     1    2
     3     6     5    1
     4     1     2    1
     5     5     8    2
     6     5     4    1
     7     2     3    1
     8     8     9    1
     9     4     3    2
    10     4    10    1
    11     9    10    1
    12    10    11    1
    13    11    21    1
    14    11    12    1
    15    21    20    1
    16    12    13    1
    17    12    14    1
    18    23    22    1
    19    23    24    1
    20    22    20    1
    21    20    14    1
    22    26    24    2
    23    14    15    1
    24    24    27    1
    25    24    25    1
    26    27    28    1
    27    18    16    2
    28    15    16    1
    29    30    28    2
    30    29    28    1
    31    28    31    1
    32    16    19    1
    33    16    17    1
    34    31    33    1
    35    35    32    1
    36    33    32    1
    37    44    43    2
    38    32    36    1
    39    32    34    1
    40    42    43    1
    41    42    41    1
    42    43    45   am
    43    36    37    1
    44    36    38    1
    45    40    41    1
    46    40    38   am
    47    38    39    2
    48    45    46    1
    49    46    47    1
    50    48    47    1
