@<TRIPOS>MOLECULE
3s6h_COA_X_1.pdb
 48 50 0 0 0
SMALL
GASTEIGER

@<TRIPOS>ATOM
      1  N1A       22.2360  -31.6890   55.6030 N.2   501  COA501      0.0021
      2  C2A       22.3790  -32.4140   56.8020 C.3   501  COA501      0.5254
      3  N3A       21.2270  -33.0870   57.4040 N.2   501  COA501     -0.0055
      4  C4A       19.9800  -33.0090   56.7880 C.2   501  COA501      0.3518
      5  C5A       19.8180  -32.2640   55.5570 C.2   501  COA501      0.2526
      6  C6A       20.9470  -31.6080   54.9670 C.2   501  COA501      0.4393
      7  N6A       20.7920  -30.8590   53.7210 N.pl3 501  COA501      0.2180
      8  N7A       18.3950  -32.3540   55.1420 N.2   501  COA501     -0.2095
      9  C8A       17.7110  -33.1320   56.0970 C.3   501  COA501      0.3377
     10  N9A       18.7080  -33.5500   57.1380 N.pl3 501  COA501     -0.1439
     11  C1B       18.4100  -34.3480   58.3290 C.3   501  COA501      0.3185
     12  C2B       18.9010  -33.7990   59.7350 C.3   501  COA501      0.2543
     13  O2B       20.1170  -34.2110   60.2790 O.3   501  COA501     -0.2131
     14  C3B       17.6020  -33.7480   60.5770 C.3   501  COA501      0.1928
     15  O3B       17.6200  -33.5820   61.9550 O.3   501  COA501     -0.2673
     16  P3B       18.4130  -32.4300   62.6820 P.3   501  COA501      0.5327
     17  O7A       19.1090  -33.0110   63.9580 O.3   501  COA501     -0.1145
     18  O8A       19.5040  -31.8000   61.7520 O.2   501  COA501     -0.2224
     19  O9A       17.4700  -31.3490   63.1180 O.3   501  COA501     -0.1145
     20  C4B       16.7740  -34.9270   59.9830 C.3   501  COA501      0.1795
     21  O4B       17.2140  -35.1500   58.5960 O.3   501  COA501     -0.3136
     22  C5B       15.2710  -35.0710   60.3040 C.3   501  COA501      0.1812
     23  O5B       14.6100  -36.1530   59.7390 O.3   501  COA501     -0.3112
     24  P1A       13.7420  -37.1250   60.6520 P.3   501  COA501      0.2189
     25  O1A       13.3840  -36.3870   62.0000 O.3   501  COA501     -0.4371
     26  O2A       14.5500  -38.3700   60.9760 O.2   501  COA501     -0.5170
     27  O3A       12.4070  -37.5160   59.8940 O.3   501  COA501     -0.2703
     28  P2A       11.2410  -38.2510   60.6590 P.3   501  COA501      0.2188
     29  O4A        9.9570  -38.4210   59.8010 O.2   501  COA501     -0.5170
     30  O5A       11.7200  -39.5950   61.0830 O.3   501  COA501     -0.4371
     31  O6A       10.8620  -37.3830   61.9470 O.3   501  COA501     -0.3138
     32  CBP       11.4550  -38.3100   64.2310 C.3   501  COA501      0.0645
     33  CCP       10.4440  -38.0660   63.0990 C.3   501  COA501      0.1519
     34  CDP       11.6120  -36.9870   64.9510 C.3   501  COA501      0.0056
     35  CEP       12.8340  -38.7190   63.7070 C.3   501  COA501      0.0056
     36  CAP       10.9230  -39.4710   65.1550 C.3   501  COA501      0.2312
     37  OAP       11.6560  -39.6920   66.3330 O.3   501  COA501     -0.2131
     38  C9P        9.4180  -39.6050   65.3280 C.2   501  COA501      0.2719
     39  O9P        8.7710  -38.7910   65.9860 O.2   501  COA501     -0.2706
     40  N8P        8.7750  -40.8400   64.7810 N.am  501  COA501     -0.2028
     41  C7P        7.4260  -41.2620   65.0600 C.3   501  COA501      0.1248
     42  C6P        6.4520  -41.0650   63.9410 C.3   501  COA501      0.1102
     43  C5P        5.0920  -40.6880   64.4740 C.2   501  COA501      0.2432
     44  O5P        4.2340  -40.3150   63.7010 O.2   501  COA501     -0.2733
     45  N4P        4.8010  -40.8800   65.9020 N.am  501  COA501     -0.2044
     46  C3P        3.4320  -40.7670   66.4280 C.3   501  COA501      0.1276
     47  C2P        2.7630  -42.0070   66.9560 C.3   501  COA501      0.0920
     48  S1P        3.3980  -43.5930   66.5470 S.3   501  COA501     -0.0802
@<TRIPOS>BOND
     1     7     6    1
     2     6     5    1
     3     6     1    2
     4     8     5    2
     5     8     9    1
     6     5     4    1
     7     1     2    1
     8     9    10    1
     9     4    10    1
    10     4     3    2
    11     2     3    1
    12    10    11    1
    13    11    21    1
    14    11    12    1
    15    21    20    1
    16    12    13    1
    17    12    14    1
    18    23    22    1
    19    23    24    1
    20    29    28    2
    21    27    24    1
    22    27    28    1
    23    20    22    1
    24    20    14    1
    25    14    15    1
    26    24    26    2
    27    24    25    1
    28    28    30    1
    29    28    31    1
    30    18    16    2
    31    31    33    1
    32    15    16    1
    33    16    19    1
    34    16    17    1
    35    33    32    1
    36    44    43    2
    37    35    32    1
    38    42    43    1
    39    42    41    1
    40    32    34    1
    41    32    36    1
    42    43    45   am
    43    40    41    1
    44    40    38   am
    45    36    38    1
    46    36    37    1
    47    38    39    2
    48    45    46    1
    49    46    47    1
    50    48    47    1
