@<TRIPOS>MOLECULE
3s6h_GLU_A_1.pdb
 10 9 0 0 0
SMALL
GASTEIGER

@<TRIPOS>ATOM
      1  N         11.0690  -20.6370   71.2060 N.3   501  GLU501     -0.1208
      2  CA        10.0100  -20.0830   72.0530 C.3   501  GLU501      0.1949
      3  C          9.7790  -20.9140   73.3370 C.2   501  GLU501      0.3819
      4  O          9.5760  -22.1350   73.3120 O.co2 501  GLU501     -0.2441
      5  CB         8.6950  -19.9420   71.2690 C.3   501  GLU501      0.0424
      6  CG         8.7920  -19.8790   69.7310 C.3   501  GLU501      0.1161
      7  CD         7.4030  -20.1710   69.0740 C.2   501  GLU501      0.3649
      8  OE1        6.7640  -21.1870   69.4430 O.co2 501  GLU501     -0.2457
      9  OE2        6.9270  -19.3950   68.2060 O.co2 501  GLU501     -0.2457
     10  OXT        9.7800  -20.3860   74.4490 O.co2 501  GLU501     -0.2441
@<TRIPOS>BOND
     1     9     7   ar
     2     7     8   ar
     3     7     6    1
     4     6     5    1
     5     1     2    1
     6     5     2    1
     7     2     3    1
     8     4     3   ar
     9     3    10   ar
