@<TRIPOS>MOLECULE
3s6t_OAN_A_1.pdb
 25 26 0 0 0
SMALL
GASTEIGER

@<TRIPOS>ATOM
      1  CAH       40.5970   -5.3000    9.5820 C.3     1  OAN1        0.0964
      2  CAG       40.5330   -4.0850   10.5060 C.2     1  OAN1        0.2423
      3  OAN       40.4970   -4.2380   11.7260 O.2     1  OAN1       -0.2733
      4  NAI       40.5070   -2.8900    9.8720 N.am    1  OAN1       -0.1948
      5  CAB       40.4950   -1.5640   10.5380 C.3     1  OAN1        0.2065
      6  CAC       41.9560   -1.2370   10.9730 C.3     1  OAN1        0.2146
      7  OAJ       42.6720   -0.5540    9.9190 O.3     1  OAN1       -0.2179
      8  CAD       41.9850   -0.4150   12.2420 C.3     1  OAN1        0.2266
      9  OAK       43.3470   -0.1930   12.5980 O.3     1  OAN1       -0.2163
     10  CAE       41.2650   -1.2310   13.3150 C.3     1  OAN1        0.2328
     11  CAF       41.2730   -0.5150   14.6680 C.3     1  OAN1        0.2281
     12  OAM       40.6540   -1.3530   15.6530 O.3     1  OAN1       -0.2163
     13  OAL       39.8820   -1.4520   12.9270 O.2     1  OAN1       -0.4583
     14  CAA       39.5310   -1.4570   11.5940 C.2     1  OAN1        0.2599
     15  NAY       38.2480   -1.3500   11.2680 N.2     1  OAN1       -0.0369
     16  OAQ       37.2750   -1.2090   12.4880 O.3     1  OAN1       -0.2944
     17  CAP       35.9580   -1.0590   12.1510 C.2     1  OAN1        0.4504
     18  OAR       35.6490   -0.5530   11.0690 O.2     1  OAN1       -0.2218
     19  NAO       35.0210   -1.4590   13.0430 N.am    1  OAN1       -0.1406
     20  CAS       33.7020   -1.3900   12.7840 C.ar    1  OAN1        0.0768
     21  CAT       33.0510   -0.1780   12.5160 C.ar    1  OAN1        0.0167
     22  CAU       31.6760   -0.1620   12.2630 C.ar    1  OAN1        0.0013
     23  CAV       30.9430   -1.3520   12.2870 C.ar    1  OAN1        0.0001
     24  CAW       31.5820   -2.5640   12.5630 C.ar    1  OAN1        0.0013
     25  CAX       32.9580   -2.5770   12.8130 C.ar    1  OAN1        0.0167
@<TRIPOS>BOND
     1     1     2    1
     2     4     2   am
     3     4     5    1
     4     7     6    1
     5     2     3    2
     6     5     6    1
     7     5    14    1
     8     6     8    1
     9    18    17    2
    10    15    14    2
    11    15    16    1
    12    14    13    1
    13    17    16    1
    14    17    19   am
    15     8     9    1
    16     8    10    1
    17    22    23   ar
    18    22    21   ar
    19    23    24   ar
    20    21    20   ar
    21    24    25   ar
    22    20    25   ar
    23    20    19    1
    24    13    10    1
    25    10    11    1
    26    11    12    1
