@<TRIPOS>MOLECULE
3s6x_SIA_A_1.pdb
 20 20 0 0 0
SMALL
GASTEIGER

@<TRIPOS>ATOM
      1  C1        30.8770  -60.7140    4.4350 C.2     1  SIA1        0.3914
      2  C2        32.2570  -60.3200    3.9560 C.3     1  SIA1        0.2203
      3  C3        32.2700  -58.8950    3.4010 C.3     1  SIA1        0.0760
      4  C4        32.1250  -57.8470    4.5030 C.3     1  SIA1        0.1773
      5  C5        33.1790  -58.0640    5.5770 C.3     1  SIA1        0.1552
      6  C6        33.0680  -59.4900    6.1130 C.3     1  SIA1        0.1710
      7  C7        34.1180  -59.8130    7.1740 C.3     1  SIA1        0.2134
      8  C8        33.9770  -61.2760    7.5580 C.3     1  SIA1        0.2173
      9  C9        34.7590  -61.6100    8.8230 C.3     1  SIA1        0.2175
     10  C10       33.9990  -56.2340    6.9480 C.2     1  SIA1        0.2420
     11  C11       33.7490  -55.3080    8.1000 C.3     1  SIA1        0.0964
     12  N5        33.0360  -57.1100    6.6680 N.am    1  SIA1       -0.2020
     13  O1A       29.8790  -60.4090    3.7440 O.co2   1  SIA1       -0.2430
     14  O1B       30.7870  -61.3570    5.5090 O.co2   1  SIA1       -0.2430
     15  O4        32.2670  -56.5310    3.9620 O.3     1  SIA1       -0.2211
     16  O6        33.1470  -60.4680    5.0700 O.3     1  SIA1       -0.3429
     17  O7        35.4360  -59.5550    6.6780 O.3     1  SIA1       -0.2176
     18  O8        32.5810  -61.5310    7.7670 O.3     1  SIA1       -0.2175
     19  O9        34.5050  -62.9800    9.1880 O.3     1  SIA1       -0.2175
     20  O10       35.0310  -56.1830    6.3010 O.2     1  SIA1       -0.2733
@<TRIPOS>BOND
     1     3     2    1
     2     3     4    1
     3    13     1   ar
     4     2     1    1
     5     2    16    1
     6    15     4    1
     7     1    14   ar
     8     4     5    1
     9    16     6    1
    10     5     6    1
    11     5    12    1
    12     6     7    1
    13    20    10    2
    14    12    10   am
    15    17     7    1
    16    10    11    1
    17     7     8    1
    18     8    18    1
    19     8     9    1
    20     9    19    1
