@<TRIPOS>MOLECULE
3s6x_BGC_C_1.pdb
 12 12 0 0 0
SMALL
GASTEIGER

@<TRIPOS>ATOM
      1  C2        16.4380  -71.1050   22.6180 C.3     3  BGC3        0.2434
      2  C3        16.3070  -69.7080   23.2150 C.3     3  BGC3        0.2199
      3  C4        16.0770  -68.6240   22.1480 C.3     3  BGC3        0.2144
      4  C5        15.2580  -69.0810   20.9360 C.3     3  BGC3        0.1836
      5  C6        15.4410  -68.1150   19.7660 C.3     3  BGC3        0.2142
      6  C1        15.3970  -71.3320   21.5340 C.3     3  BGC3        0.3024
      7  O1        15.5190  -72.6370   21.0140 O.3     3  BGC3       -0.1869
      8  O2        16.2770  -72.0720   23.6320 O.3     3  BGC3       -0.2148
      9  O3        17.4800  -69.4410   23.9590 O.3     3  BGC3       -0.2174
     10  O4        15.4190  -67.5090   22.7250 O.3     3  BGC3       -0.2176
     11  O5        15.6120  -70.3820   20.5170 O.3     3  BGC3       -0.3236
     12  O6        16.8160  -67.9170   19.5040 O.3     3  BGC3       -0.2176
@<TRIPOS>BOND
     1    12     5    1
     2     5     4    1
     3    11     4    1
     4    11     6    1
     5     4     3    1
     6     7     6    1
     7     6     1    1
     8     3    10    1
     9     3     2    1
    10     1     2    1
    11     1     8    1
    12     2     9    1
