@<TRIPOS>MOLECULE
3s6y_SIA_A_1.pdb
 20 20 0 0 0
SMALL
GASTEIGER

@<TRIPOS>ATOM
      1  C1       -31.9970   61.6460    4.3870 C.2     1  SIA1        0.3914
      2  C2       -33.2240   60.9410    3.8380 C.3     1  SIA1        0.2203
      3  C3       -32.8760   59.5240    3.3700 C.3     1  SIA1        0.0760
      4  C4       -33.0000   58.4470    4.4390 C.3     1  SIA1        0.1773
      5  C5       -34.2420   58.6120    5.3020 C.3     1  SIA1        0.1552
      6  C6       -34.1890   60.0180    5.8960 C.3     1  SIA1        0.1710
      7  C7       -35.2120   60.3760    6.9890 C.3     1  SIA1        0.2134
      8  C8       -35.0590   61.8620    7.2800 C.3     1  SIA1        0.2173
      9  C9       -35.7120   62.2990    8.5830 C.3     1  SIA1        0.2175
     10  C10      -35.1330   56.7000    6.5370 C.2     1  SIA1        0.2420
     11  C11      -34.8630   55.7320    7.6480 C.3     1  SIA1        0.0964
     12  N5       -34.1740   57.5940    6.3290 N.am    1  SIA1       -0.2020
     13  O1A      -30.8720   61.4890    3.8460 O.co2   1  SIA1       -0.2430
     14  O1B      -32.1630   62.3840    5.3850 O.co2   1  SIA1       -0.2430
     15  O4       -33.0170   57.1680    3.8070 O.3     1  SIA1       -0.2211
     16  O6       -34.2400   61.0020    4.8540 O.3     1  SIA1       -0.3429
     17  O7       -36.5740   60.1290    6.5990 O.3     1  SIA1       -0.2176
     18  O8       -33.6650   62.1820    7.3120 O.3     1  SIA1       -0.2175
     19  O9       -35.7290   63.7400    8.6110 O.3     1  SIA1       -0.2175
     20  O10      -36.1620   56.6720    5.8780 O.2     1  SIA1       -0.2733
@<TRIPOS>BOND
     1     3     2    1
     2     3     4    1
     3    15     4    1
     4     2     1    1
     5     2    16    1
     6    13     1   ar
     7     1    14   ar
     8     4     5    1
     9    16     6    1
    10     5     6    1
    11     5    12    1
    12    20    10    2
    13     6     7    1
    14    12    10   am
    15    10    11    1
    16    17     7    1
    17     7     8    1
    18     8    18    1
    19     8     9    1
    20     9    19    1
