@<TRIPOS>MOLECULE
3s6y_GAL_C_1.pdb
 11 11 0 0 0
SMALL
GASTEIGER

@<TRIPOS>ATOM
      1  C1       -17.8740   67.0600   22.8650 C.3     2  GAL2        0.1777
      2  C2       -18.6360   68.3710   22.9050 C.3     2  GAL2        0.2141
      3  C3       -19.0400   68.6870   24.3300 C.3     2  GAL2        0.2173
      4  C4       -19.9030   67.5210   24.7770 C.3     2  GAL2        0.2142
      5  C5       -19.0880   66.2420   24.7210 C.3     2  GAL2        0.1810
      6  C6       -19.9090   65.0530   25.2020 C.3     2  GAL2        0.2141
      7  O2       -17.8610   69.3840   22.3070 O.3     2  GAL2       -0.2176
      8  O3       -19.8170   69.8570   24.3580 O.3     2  GAL2       -0.2175
      9  O4       -21.0000   67.3970   23.8920 O.3     2  GAL2       -0.2176
     10  O5       -18.6810   66.0230   23.3880 O.3     2  GAL2       -0.3481
     11  O6       -19.1810   63.8650   24.9720 O.3     2  GAL2       -0.2176
@<TRIPOS>BOND
     1     7     2    1
     2     1     2    1
     3     1    10    1
     4     2     3    1
     5    10     5    1
     6     9     4    1
     7     3     8    1
     8     3     4    1
     9     5     4    1
    10     5     6    1
    11    11     6    1
