@<TRIPOS>MOLECULE
3s6z_SIA_A_1.pdb
 20 20 0 0 0
SMALL
GASTEIGER

@<TRIPOS>ATOM
      1  C1        30.2040  227.6190   24.5750 C.2     1  SIA1        0.3914
      2  C2        31.5220  227.2000   25.1930 C.3     1  SIA1        0.2203
      3  C3        31.4260  225.7830   25.7780 C.3     1  SIA1        0.0760
      4  C4        31.4840  224.6800   24.7200 C.3     1  SIA1        0.1773
      5  C5        32.6460  224.9020   23.7620 C.3     1  SIA1        0.1552
      6  C6        32.5390  226.3000   23.1600 C.3     1  SIA1        0.1710
      7  C7        33.6210  226.6140   22.1260 C.3     1  SIA1        0.2134
      8  C8        33.4520  228.0480   21.6420 C.3     1  SIA1        0.2173
      9  C9        34.3440  228.3360   20.4340 C.3     1  SIA1        0.2175
     10  C10       33.6920  223.1780   22.3790 C.2     1  SIA1        0.2420
     11  C11       33.4850  222.1940   21.2660 C.3     1  SIA1        0.0964
     12  N5        32.6240  223.9010   22.7130 N.am    1  SIA1       -0.2020
     13  O1A       30.2250  228.1750   23.4520 O.co2   1  SIA1       -0.2430
     14  O1B       29.1410  227.4150   25.2090 O.co2   1  SIA1       -0.2430
     15  O4        31.6130  223.3930   25.3450 O.3     1  SIA1       -0.2211
     16  O6        32.5400  227.3090   24.1810 O.3     1  SIA1       -0.3429
     17  O7        34.9350  226.4770   22.6880 O.3     1  SIA1       -0.2176
     18  O8        32.0640  228.2950   21.3470 O.3     1  SIA1       -0.2175
     19  O9        34.3810  229.7540   20.2020 O.3     1  SIA1       -0.2175
     20  O10       34.7720  223.3060   22.9330 O.2     1  SIA1       -0.2733
@<TRIPOS>BOND
     1    19     9    1
     2     9     8    1
     3    11    10    1
     4    18     8    1
     5     8     7    1
     6     7    17    1
     7     7     6    1
     8    10    12   am
     9    10    20    2
    10    12     5    1
    11     6     5    1
    12     6    16    1
    13    13     1   ar
    14     5     4    1
    15    16     2    1
    16     1     2    1
    17     1    14   ar
    18     4    15    1
    19     4     3    1
    20     2     3    1
