@<TRIPOS>MOLECULE
3s70_III_B_1.pdb
 35 34 0 0 0
SMALL
GASTEIGER

@<TRIPOS>ATOM
      1  C          3.9710   53.6190   33.8940 C.2     0  ACE0        0.2423
      2  O          3.0980   53.1820   33.1830 O.2     0  ACE0       -0.2733
      3  CH3        5.2960   53.3770   33.2180 C.3     0  ACE0        0.0964
      4  N          3.9450   54.0420   35.1850 N.am    1  VAL1       -0.1978
      5  CA         2.6780   54.0660   35.9220 C.3     1  VAL1        0.1726
      6  C          2.2620   55.5110   36.1170 C.2     1  VAL1        0.2616
      7  O          3.0720   56.3460   36.5180 O.2     1  VAL1       -0.2715
      8  CB         2.8280   53.3920   37.2950 C.3     1  VAL1        0.0290
      9  CG1        1.4630   53.2900   37.9950 C.3     1  VAL1        0.0023
     10  CG2        3.4410   52.0260   37.1240 C.3     1  VAL1        0.0023
     11  N          0.9970   55.8000   35.8150 N.am    2  GLU2       -0.1963
     12  CA         0.4650   57.1480   35.9460 C.3     2  GLU2        0.1733
     13  C         -0.7100   57.1780   36.9100 C.2     2  GLU2        0.2616
     14  O         -1.3120   56.1500   37.2070 O.2     2  GLU2       -0.2715
     15  CB         0.0580   57.7050   34.5770 C.3     2  GLU2        0.0429
     16  CG         1.2590   57.9190   33.6580 C.3     2  GLU2        0.1163
     17  CD         0.9120   58.6420   32.3710 C.2     2  GLU2        0.3649
     18  OE1       -0.2720   58.6420   31.9730 O.co2   2  GLU2       -0.2457
     19  OE2        1.8420   59.2040   31.7480 O.co2   2  GLU2       -0.2457
     20  N         -1.0120   58.3680   37.4080 N.am    3  ILE3       -0.1963
     21  CA        -2.0780   58.5500   38.3900 C.3     3  ILE3        0.1727
     22  C         -3.3600   59.0240   37.7250 C.2     3  ILE3        0.2616
     23  O         -3.3460   59.9920   36.9440 O.2     3  ILE3       -0.2715
     24  CB        -1.6500   59.5870   39.4490 C.3     3  ILE3        0.0290
     25  CG1       -0.4160   59.0920   40.2050 C.3     3  ILE3        0.0022
     26  CG2       -2.7970   59.9080   40.3940 C.3     3  ILE3        0.0023
     27  CD1       -0.6270   57.7800   40.9290 C.3     3  ILE3        0.0001
     28  N         -4.4740   58.3650   38.0400 N.am    4  ASP4       -0.1971
     29  CA        -5.7640   58.7230   37.4260 C.3     4  ASP4        0.1709
     30  C         -6.5360   59.8550   38.1170 C.2     4  ASP4        0.2293
     31  O         -7.7680   59.9820   37.9820 O.2     4  ASP4       -0.2864
     32  CB        -6.6500   57.4930   37.2540 C.3     4  ASP4        0.1436
     33  CG        -6.6900   57.0170   35.8250 C.2     4  ASP4        0.3671
     34  OD1       -6.1930   57.7530   34.9500 O.co2   4  ASP4       -0.2456
     35  OD2       -7.2140   55.9160   35.5730 O.co2   4  ASP4       -0.2456
@<TRIPOS>BOND
     1    19    17   ar
     2    18    17   ar
     3    17    16    1
     4     2     1    2
     5     3     1    1
     6    16    15    1
     7     1     4   am
     8    15    12    1
     9    34    33   ar
    10     4     5    1
    11    35    33   ar
    12    11    12    1
    13    11     6   am
    14    33    32    1
    15     5     6    1
    16     5     8    1
    17    12    13    1
    18     6     7    2
    19    13    14    2
    20    13    20   am
    21    23    22    2
    22    10     8    1
    23    32    29    1
    24     8     9    1
    25    20    21    1
    26    29    28    1
    27    29    30    1
    28    22    28   am
    29    22    21    1
    30    31    30    2
    31    21    24    1
    32    24    25    1
    33    24    26    1
    34    25    27    1
