@<TRIPOS>MOLECULE
3s71_EVD_B_1.pdb
 13 14 0 0 0
SMALL
GASTEIGER

@<TRIPOS>ATOM
      1  N         15.6350   -0.3340   16.1840 N.3     1  EVD1        0.0423
      2  O         17.0920    2.5040   16.0140 O.2     1  EVD1       -0.4355
      3  S         15.0580    0.9750   16.8850 S.O2    1  EVD1        0.1260
      4  O1        15.5660    1.0990   18.2330 O.2     1  EVD1       -0.1473
      5  C2        15.7330    2.3040   16.0530 C.ar    1  EVD1        0.2701
      6  O2        13.6240    1.1200   16.6660 O.2     1  EVD1       -0.1473
      7  C3        15.0810    3.3480   15.3130 C.ar    1  EVD1        0.0616
      8  C4        16.2030    5.2890   13.9860 C.ar    1  EVD1        0.0032
      9  C5        17.4500    5.8330   13.7220 C.ar    1  EVD1        0.0002
     10  C6        18.6630    5.2470   14.1510 C.ar    1  EVD1        0.0031
     11  C7        18.6130    4.1050   14.9540 C.ar    1  EVD1        0.0375
     12  C8        17.3660    3.6270   15.2510 C.ar    1  EVD1        0.1471
     13  C9        16.1500    4.1620   14.8160 C.ar    1  EVD1        0.0391
@<TRIPOS>BOND
     1     9     8   ar
     2     9    10   ar
     3     8    13   ar
     4    10    11   ar
     5    13    12   ar
     6    13     7   ar
     7    11    12   ar
     8    12     2   ar
     9     7     5   ar
    10     2     5   ar
    11     5     3    1
    12     1     3    1
    13     6     3    2
    14     3     4    2
