@<TRIPOS>MOLECULE
3s72_EVE_B_1.pdb
 13 14 0 0 0
SMALL
GASTEIGER

@<TRIPOS>ATOM
      1  N         15.5820   -0.3750   16.2530 N.3     1  EVE1        0.0513
      2  S         15.0500    0.9700   16.8670 S.O2    1  EVE1        0.1707
      3  N1        15.0080    3.2680   15.3490 N.2     1  EVE1       -0.3221
      4  O1        15.5490    1.1130   18.1900 O.2     1  EVE1       -0.1385
      5  C2        15.7310    2.2650   15.9790 C.1     1  EVE1        0.2712
      6  N2        17.0990    2.4290   15.8280 N.2     1  EVE1       -0.3221
      7  O2        13.6300    1.1000   16.6920 O.2     1  EVE1       -0.1385
      8  C4        15.8260    5.2200   14.0690 C.ar    1  EVE1        0.0357
      9  C5        17.0480    5.7890   13.6630 C.ar    1  EVE1        0.0028
     10  C6        18.3300    5.3130   13.9600 C.ar    1  EVE1        0.0028
     11  C7        18.4910    4.1920   14.7530 C.ar    1  EVE1        0.0357
     12  C8        17.2520    3.5660   15.0970 C.ar    1  EVE1        0.1754
     13  C9        15.9790    4.0500   14.8240 C.ar    1  EVE1        0.1754
@<TRIPOS>BOND
     1     9    10   ar
     2     9     8   ar
     3    10    11   ar
     4     8    13   ar
     5    11    12   ar
     6    13    12   ar
     7    13     3    2
     8    12     6    2
     9     3     5    2
    10     6     5    2
    11     5     2    1
    12     1     2    1
    13     7     2    2
    14     2     4    2
