@<TRIPOS>MOLECULE
3s73_EVF_B_1.pdb
 13 14 0 0 0
SMALL
GASTEIGER

@<TRIPOS>ATOM
      1  N         16.0280   -0.4580   16.3100 N.3     1  EVF1        0.0423
      2  S         15.5760    0.8630   16.9590 S.O2    1  EVF1        0.1273
      3  O1        16.0890    0.8810   18.3500 O.2     1  EVF1       -0.1473
      4  S1        15.3400    3.3620   15.2620 S.3     1  EVF1       -0.0330
      5  C2        16.2220    2.1440   16.1020 C.2     1  EVF1        0.2855
      6  O2        14.0980    1.0710   16.7710 O.2     1  EVF1       -0.1473
      7  N3        17.5520    2.3610   15.9890 N.2     1  EVF1       -0.3756
      8  C4        19.2270    3.9770   15.0040 C.2     1  EVF1        0.0284
      9  C5        19.2970    5.1220   14.2150 C.2     1  EVF1       -0.0188
     10  C6        18.1630    5.8110   13.7210 C.3     1  EVF1        0.0527
     11  C7        16.8830    5.2480   13.9760 C.2     1  EVF1       -0.0123
     12  C8        16.7850    4.1120   14.7660 C.2     1  EVF1        0.0588
     13  C9        17.8960    3.4650   15.2820 C.2     1  EVF1        0.1392
@<TRIPOS>BOND
     1    10    11    1
     2    10     9    1
     3    11    12    2
     4     9     8    2
     5    12     4    1
     6    12    13    1
     7     8    13    1
     8     4     5    1
     9    13     7    2
    10     7     5    2
    11     5     2    1
    12     1     2    1
    13     6     2    2
    14     2     3    2
