@<TRIPOS>MOLECULE
3s74_03T_B_1.pdb
 13 14 0 0 0
SMALL
GASTEIGER

@<TRIPOS>ATOM
      1  N         32.5240   -0.2140   15.5730 N.3     1  03T1        0.0397
      2  S         31.6050   -0.4980   14.2630 S.O2    1  03T1        0.0992
      3  O1        30.9660    0.7390   14.0110 O.2     1  03T1       -0.1498
      4  S1        33.1720    0.3110   11.7830 S.2     1  03T1       -0.0672
      5  C2        32.6230   -0.8760   12.9220 C.ar    1  03T1        0.1545
      6  O2        30.7180   -1.5830   14.5260 O.2     1  03T1       -0.1498
      7  C3        33.2180   -2.1260   12.5330 C.ar    1  03T1        0.0272
      8  C4        34.8370   -2.8760   10.4940 C.ar    1  03T1        0.0006
      9  C5        35.5210   -2.4450    9.3540 C.ar    1  03T1        0.0000
     10  C6        35.4810   -1.1170    8.9400 C.ar    1  03T1        0.0005
     11  C7        34.7410   -0.2330    9.6900 C.ar    1  03T1        0.0065
     12  C8        34.0460   -0.6910   10.8010 C.ar    1  03T1        0.0308
     13  C9        34.0560   -1.9770   11.3010 C.ar    1  03T1        0.0079
@<TRIPOS>BOND
     1    10     9   ar
     2    10    11   ar
     3     9     8   ar
     4    11    12   ar
     5     8    13   ar
     6    12    13   ar
     7    12     4   ar
     8    13     7   ar
     9     4     5   ar
    10     7     5   ar
    11     5     2    1
    12     3     2    2
    13     2     6    2
    14     2     1    1
