@<TRIPOS>MOLECULE
3s79_ASD_A_1.pdb
 21 24 0 0 0
SMALL
GASTEIGER

@<TRIPOS>ATOM
      1  C1        87.3400   51.7300   45.6140 C.3   601  ASD601      0.0118
      2  C10       86.0090   52.3980   46.0010 C.3   601  ASD601      0.0157
      3  C11       86.5100   54.2920   44.3580 C.3   601  ASD601      0.0007
      4  C12       86.6400   55.7970   44.1470 C.3   601  ASD601      0.0069
      5  C13       85.3400   56.4530   44.5840 C.3   601  ASD601      0.0515
      6  C14       85.1530   56.1810   46.0770 C.3   601  ASD601      0.0070
      7  C15       84.1090   57.2020   46.5420 C.3   601  ASD601      0.0082
      8  C16       84.5440   58.4850   45.8190 C.3   601  ASD601      0.0645
      9  C17       85.2940   57.9560   44.6070 C.2   601  ASD601      0.1498
     10  C18       84.1710   55.9840   43.7140 C.3   601  ASD601      0.0073
     11  C19       84.8800   51.8490   45.1230 C.3   601  ASD601      0.0041
     12  C2        87.5210   50.3430   46.2160 C.3   601  ASD601      0.0694
     13  C3        87.3490   50.4770   47.7130 C.2   601  ASD601      0.1725
     14  C4        86.3520   51.2460   48.2250 C.2   601  ASD601      0.0289
     15  C5        85.6770   52.1510   47.4770 C.2   601  ASD601     -0.0420
     16  C6        84.5760   52.9500   48.1370 C.3   601  ASD601      0.0221
     17  C7        84.8190   54.4380   47.8840 C.3   601  ASD601      0.0044
     18  C8        84.9680   54.7040   46.3900 C.3   601  ASD601      0.0010
     19  C9        86.1620   53.9180   45.8110 C.3   601  ASD601      0.0035
     20  O1        88.1270   49.8800   48.4470 O.2   601  ASD601     -0.2914
     21  O2        85.7870   58.6710   43.7490 O.2   601  ASD601     -0.2961
@<TRIPOS>BOND
     1    10     5    1
     2    21     9    2
     3     4     3    1
     4     4     5    1
     5     3    19    1
     6     5     9    1
     7     5     6    1
     8     9     8    1
     9    11     2    1
    10     1     2    1
    11     1    12    1
    12    19     2    1
    13    19    18    1
    14     8     7    1
    15     2    15    1
    16     6    18    1
    17     6     7    1
    18    12    13    1
    19    18    17    1
    20    15    16    1
    21    15    14    2
    22    13    14    1
    23    13    20    2
    24    17    16    1
