@<TRIPOS>MOLECULE
3s79_HEM_A_1.pdb
 43 50 0 0 0
SMALL
GASTEIGER

@<TRIPOS>ATOM
      1  CHA       86.3480   52.4210   41.1420 C.2   600  HEM600      0.0000
      2  CHB       81.8320   51.0210   42.1610 C.2   600  HEM600      0.0000
      3  CHC       83.5090   46.6250   43.2070 C.2   600  HEM600      0.0000
      4  CHD       88.0050   47.9260   42.0730 C.2   600  HEM600      0.0000
      5  C1A       84.9800   52.4150   41.2820 C.ar  600  HEM600      0.0000
      6  C2A       84.0970   53.5200   40.9570 C.ar  600  HEM600      0.0000
      7  C3A       82.8470   53.1330   41.2300 C.ar  600  HEM600      0.0000
      8  C4A       82.9050   51.7730   41.7350 C.ar  600  HEM600      0.0000
      9  CMA       81.5610   53.9730   41.0480 C.3   600  HEM600      0.0000
     10  CAA       84.5280   54.8910   40.3740 C.3   600  HEM600      0.0000
     11  CBA       84.6140   54.7420   38.8580 C.3   600  HEM600      0.0000
     12  CGA       84.6890   56.0720   38.1470 C.2   600  HEM600      0.0000
     13  O1A       85.4580   56.9760   38.5940 O.co2 600  HEM600      0.0000
     14  O2A       83.9880   56.2400   37.1120 O.co2 600  HEM600      0.0000
     15  C1B       81.9050   49.7430   42.6440 C.2   600  HEM600      0.0000
     16  C2B       80.8470   48.9880   43.2960 C.2   600  HEM600      0.0000
     17  C3B       81.3300   47.7700   43.5770 C.2   600  HEM600      0.0000
     18  C4B       82.6930   47.7260   43.1080 C.2   600  HEM600      0.0000
     19  CMB       79.4260   49.5100   43.6040 C.3   600  HEM600      0.0000
     20  CAB       80.6430   46.5730   44.2850 C.2   600  HEM600      0.0000
     21  CBB       79.3230   46.3890   44.2450 C.2   600  HEM600      0.0000
     22  C1C       84.8500   46.5830   42.9570 C.ar  600  HEM600      0.0000
     23  C2C       85.6920   45.4100   43.0850 C.ar  600  HEM600      0.0000
     24  C3C       86.9500   45.7720   42.7690 C.ar  600  HEM600      0.0000
     25  C4C       86.9190   47.1830   42.4390 C.ar  600  HEM600      0.0000
     26  CMC       85.1870   44.0140   43.5080 C.3   600  HEM600      0.0000
     27  CAC       88.2250   44.8920   42.7350 C.2   600  HEM600      0.0000
     28  CBC       88.4180   43.8820   43.5970 C.2   600  HEM600      0.0000
     29  C1D       87.9950   49.2680   41.7740 C.2   600  HEM600      0.0000
     30  C2D       89.1790   50.0560   41.5000 C.2   600  HEM600      0.0000
     31  C3D       88.6730   51.4680   41.2100 C.2   600  HEM600      0.0000
     32  C4D       87.2260   51.3790   41.3340 C.2   600  HEM600      0.0000
     33  CMD       90.6380   49.5620   41.5130 C.3   600  HEM600      0.0000
     34  CAD       89.5350   52.6970   40.8440 C.3   600  HEM600      0.0000
     35  CBD       89.5750   52.7700   39.3190 C.3   600  HEM600      0.0000
     36  CGD       90.4670   53.8820   38.8020 C.2   600  HEM600      0.0000
     37  O1D       91.1740   53.6720   37.7760 O.co2 600  HEM600      0.0000
     38  O2D       90.4660   54.9910   39.4030 O.co2 600  HEM600      0.0000
     39  NA        84.2160   51.3650   41.7310 N.ar  600  HEM600      0.0000
     40  NB        83.0100   48.9420   42.5420 N.2   600  HEM600      0.0000
     41  NC        85.6180   47.6420   42.5380 N.ar  600  HEM600      0.0000
     42  ND        86.8720   50.0740   41.6620 N.2   600  HEM600      0.0000
     43 FE         84.9020   49.4830   42.0790 Fe    600  HEM600      0.0000
@<TRIPOS>BOND
     1    14    12   ar
     2    37    36   ar
     3    12    13   ar
     4    12    11    1
     5    36    35    1
     6    36    38   ar
     7    11    10    1
     8    35    34    1
     9    10     6    1
    10    34    31    1
    11     6     7   ar
    12     6     5   ar
    13     9     7    1
    14     1     5    2
    15     1    32    1
    16    31    32    1
    17    31    30    2
    18     7     8   ar
    19     5    39   ar
    20    32    42    2
    21    30    33    1
    22    30    29    1
    23    42    29    1
    24    42    43    1
    25    39     8   ar
    26    39    43    1
    27     8     2    2
    28    29     4    2
    29     4    25    1
    30    43    41    1
    31    43    40    1
    32     2    15    1
    33    25    41   ar
    34    25    24   ar
    35    41    22   ar
    36    40    15    2
    37    40    18    1
    38    15    16    1
    39    27    24    1
    40    27    28    2
    41    24    23   ar
    42    22    23   ar
    43    22     3    1
    44    23    26    1
    45    18     3    2
    46    18    17    1
    47    16    17    2
    48    16    19    1
    49    17    20    1
    50    21    20    2
