@<TRIPOS>MOLECULE
3s7a_684_A_1.pdb
 35 39 0 0 0
SMALL
GASTEIGER

@<TRIPOS>ATOM
      1  N1        19.2600   11.0930   10.4420 N.2   192  684192     -0.2684
      2  C2        18.8350   11.1060    9.1620 C.1   192  684192      0.2519
      3  N2        18.3190   12.2490    8.7120 N.pl3 192  684192     -0.0226
      4  N3        18.9410    9.9970    8.3760 N.2   192  684192     -0.3033
      5  C4        19.4340    8.8450    8.8560 C.2   192  684192      0.2728
      6  N4        19.5370    7.7490    8.0710 N.pl3 192  684192     -0.0887
      7  N5        20.4160    7.7370   10.7340 N.2   192  684192     -0.3917
      8  C6        20.8180    7.7240   12.0160 C.2   192  684192      0.1333
      9  C7        20.7170    8.8920   12.7880 C.3   192  684192      0.1930
     10  N8        20.1960    9.9830   12.2580 N.2   192  684192     -0.1998
     11  C9        21.4410    6.4140   12.5490 C.3   192  684192      0.1521
     12  N10       21.3050    6.1550   13.9820 N.pl3 192  684192     -0.2803
     13  C4A       19.8620    8.8280   10.2080 C.2   192  684192      0.2518
     14  C8A       19.7750    9.9700   10.9730 C.1   192  684192      0.1314
     15  OAC       13.8550    8.0600   19.6610 O.co2 192  684192     -0.2457
     16  OAD       15.2870    9.7210   20.0480 O.co2 192  684192     -0.2457
     17  CAE       24.6330    4.9020   16.1020 C.ar  192  684192      0.0001
     18  CAF       24.3750    4.4490   14.8080 C.ar  192  684192      0.0013
     19  CAG       17.8150    5.4980   13.9790 C.ar  192  684192      0.0382
     20  CAH       23.7750    5.8030   16.7270 C.ar  192  684192      0.0012
     21  CAI       23.2350    4.8900   14.1160 C.ar  192  684192      0.0148
     22  CAJ       19.1530    5.5610   13.6110 C.ar  192  684192      0.0179
     23  CAK       21.8740    7.1090   16.7810 C.2   192  684192      0.0013
     24  CAL       20.4960    7.2700   16.6420 C.2   192  684192      0.0014
     25  CAN       18.3340    6.5830   16.0690 C.ar  192  684192      0.0381
     26  CAO       15.3880    7.4320   17.4260 C.3   192  684192      0.0591
     27  CAP       15.8610    6.0410   17.0080 C.3   192  684192      0.2060
     28  CAQ       16.0200    7.8510   18.7600 C.3   192  684192      0.1179
     29  OAW       16.0760    5.9330   15.5610 O.3   192  684192     -0.4754
     30  CAX       14.9770    8.5960   19.5890 C.2   192  684192      0.3650
     31  CBA       17.4000    6.0190   15.2080 C.ar  192  684192      0.1386
     32  CBC       22.6570    6.2390   16.0240 C.ar  192  684192      0.0136
     33  CBD       19.6830    6.6390   15.6960 C.ar  192  684192      0.0167
     34  CBF       22.3840    5.7940   14.7330 C.ar  192  684192      0.0519
     35  CBG       20.0750    6.1490   14.4800 C.ar  192  684192      0.0521
@<TRIPOS>BOND
     1     6     5    1
     2     4     5    2
     3     4     2    2
     4     3     2    1
     5     5    13    1
     6     2     1    2
     7    13     7    2
     8    13    14    1
     9     1    14    2
    10     7     8    2
    11    14    10    2
    12     8    11    1
    13     8     9    1
    14    10     9    1
    15    11    12    1
    16    22    19   ar
    17    22    35   ar
    18    19    31   ar
    19    12    35    1
    20    12    34    1
    21    21    34   ar
    22    21    18   ar
    23    35    33   ar
    24    34    32   ar
    25    18    17   ar
    26    31    29    1
    27    31    25   ar
    28    29    27    1
    29    33    25   ar
    30    33    24    1
    31    32    20   ar
    32    32    23    1
    33    17    20   ar
    34    24    23    2
    35    27    26    1
    36    26    28    1
    37    28    30    1
    38    30    15   ar
    39    30    16   ar
