@<TRIPOS>MOLECULE
3s7b_SAM_A_1.pdb
 27 29 0 0 0
SMALL
GASTEIGER

@<TRIPOS>ATOM
      1  N        -17.1790  -60.2230   15.6790 N.3   1000  SAM1000    -0.1208
      2  CA       -16.0290  -59.9880   14.7430 C.3   1000  SAM1000     0.1952
      3  C        -14.6810  -60.3390   15.3560 C.2   1000  SAM1000     0.3819
      4  O        -13.6460  -60.1230   14.7280 O.co2 1000  SAM1000    -0.2441
      5  OXT      -14.6250  -60.8460   16.4830 O.co2 1000  SAM1000    -0.2441
      6  CB       -16.0160  -58.5310   14.2070 C.3   1000  SAM1000     0.0414
      7  CG       -16.9330  -58.3330   12.9620 C.3   1000  SAM1000     0.0503
      8  SD       -16.1940  -59.2080   11.5240 S.3   1000  SAM1000    -0.1761
      9  CE       -16.1060  -58.0260   10.2240 C.3   1000  SAM1000     0.0590
     10  C5'      -17.4890  -60.2090   10.8160 C.3   1000  SAM1000     0.0806
     11  C4'      -17.7180  -61.5020   11.6670 C.3   1000  SAM1000     0.1622
     12  O4'      -18.3200  -61.2200   12.9500 O.3   1000  SAM1000    -0.3153
     13  C3'      -18.7590  -62.3670   10.9650 C.3   1000  SAM1000     0.2168
     14  O3'      -18.2500  -63.1140    9.8770 O.3   1000  SAM1000    -0.2175
     15  C2'      -19.3550  -63.1980   12.1090 C.3   1000  SAM1000     0.2569
     16  O2'      -18.4740  -64.2510   12.5330 O.3   1000  SAM1000    -0.2130
     17  C1'      -19.4080  -62.1350   13.2230 C.3   1000  SAM1000     0.3185
     18  N9       -20.6720  -61.4070   13.3100 N.pl3 1000  SAM1000    -0.1439
     19  C8       -20.9320  -60.0900   12.8740 C.3   1000  SAM1000     0.3377
     20  N7       -22.1620  -59.8170   13.1540 N.2   1000  SAM1000    -0.2095
     21  C5       -22.7710  -60.8990   13.7510 C.2   1000  SAM1000     0.2526
     22  C6       -24.0690  -61.1840   14.2710 C.2   1000  SAM1000     0.4393
     23  N6       -25.0710  -60.2560   14.2310 N.pl3 1000  SAM1000     0.2180
     24  N1       -24.3090  -62.4610   14.7970 N.2   1000  SAM1000     0.0021
     25  C2       -23.3410  -63.4200   14.8350 C.3   1000  SAM1000     0.5254
     26  N3       -22.1130  -63.1660   14.3890 N.2   1000  SAM1000    -0.0055
     27  C4       -21.7920  -61.9360   13.8640 C.2   1000  SAM1000     0.3518
@<TRIPOS>BOND
     1    14    13    1
     2     9     8    1
     3    10     8    1
     4    10    11    1
     5    13    11    1
     6    13    15    1
     7     8     7    1
     8    11    12    1
     9    15    16    1
    10    15    17    1
    11    19    20    1
    12    19    18    1
    13    12    17    1
    14     7     6    1
    15    20    21    2
    16    17    18    1
    17    18    27    1
    18    21    27    1
    19    21    22    1
    20    27    26    2
    21     6     2    1
    22    23    22    1
    23    22    24    2
    24    26    25    1
    25     4     3   ar
    26     2     3    1
    27     2     1    1
    28    24    25    1
    29     3     5   ar
