@<TRIPOS>MOLECULE
3s7b_NH5_A_1.pdb
 39 42 0 0 0
SMALL
GASTEIGER

@<TRIPOS>ATOM
      1  C1       -16.9480  -64.9640    1.4010 C.ar  439  NH5439     -0.0033
      2  C2       -15.8390  -65.4740    2.0660 C.ar  439  NH5439      0.0119
      3  C3       -14.7820  -66.0000    1.3280 C.ar  439  NH5439      0.0682
      4  C4       -14.8290  -66.0070   -0.0710 C.ar  439  NH5439      0.0679
      5  C5       -15.9440  -65.4900   -0.7260 C.ar  439  NH5439      0.0080
      6  C6       -17.0060  -64.9690    0.0080 C.ar  439  NH5439     -0.0198
      7  C7       -18.2330  -64.4330   -0.6970 C.3   439  NH5439      0.0452
      8  C8       -18.1060  -62.9680   -1.1500 C.3   439  NH5439      0.0934
      9  N9       -17.0010  -62.2520   -0.4870 N.3   439  NH5439     -0.2172
     10  C10      -17.5060  -61.1460    0.3320 C.3   439  NH5439      0.0983
     11  C11      -16.5170  -59.9770    0.2140 C.3   439  NH5439      0.1040
     12  C12      -17.2360  -58.6450    0.0490 C.2   439  NH5439      0.2271
     13  O13      -18.4470  -58.5770    0.1660 O.2   439  NH5439     -0.2748
     14  N14      -16.5010  -57.5280   -0.1910 N.am  439  NH5439     -0.2797
     15  C15      -17.0900  -56.1970   -0.3950 C.3   439  NH5439      0.1121
     16  C16      -18.2020  -55.8410    0.6050 C.3   439  NH5439      0.1101
     17  N17      -17.6830  -55.2490    1.8400 N.3   439  NH5439     -0.2159
     18  C18      -18.7420  -54.4690    2.5150 C.3   439  NH5439      0.0932
     19  C19      -19.6400  -55.2590    3.4860 C.3   439  NH5439      0.0443
     20  C20      -19.6460  -54.5560    4.8280 C.2   439  NH5439     -0.0016
     21  C21      -20.4490  -53.4200    5.0580 C.3   439  NH5439      0.0546
     22  C22      -20.4630  -52.7610    6.2990 C.2   439  NH5439      0.0231
     23  C23      -19.6250  -53.2280    7.3250 C.2   439  NH5439      0.2250
     24  C24      -18.8490  -54.3710    7.1050 C.2   439  NH5439      0.2155
     25  C25      -18.8520  -54.9890    5.8710 C.2   439  NH5439      0.1661
     26  O26      -18.0140  -56.0280    5.6390 O.2   439  NH5439     -0.4554
     27  C27      -16.7210  -55.9740    6.2880 C.3   439  NH5439      0.3391
     28  C28      -16.8270  -55.5250    7.7340 C.1   439  NH5439      0.2263
     29  O29      -15.9950  -55.8120    8.5630 O.2   439  NH5439     -0.2103
     30  N30      -17.8990  -54.7810    8.0420 N.2   439  NH5439     -0.3271
     31  O31      -19.4920  -52.6630    8.5480 O.2   439  NH5439     -0.2840
     32  C32      -15.0170  -57.6240   -0.3710 C.3   439  NH5439      0.0754
     33  C33      -14.6450  -57.7460   -1.8680 C.3   439  NH5439      0.0198
     34  C34      -13.1290  -57.8760   -2.0710 C.3   439  NH5439      0.0017
     35  C35      -12.3690  -56.7120   -1.4060 C.3   439  NH5439      0.0001
     36  C36      -12.7170  -56.5580    0.0860 C.3   439  NH5439      0.0017
     37  C37      -14.2390  -56.4840    0.3140 C.3   439  NH5439      0.0198
     38 CL38      -13.5240  -66.6660   -1.0250 Cl    439  NH5439     -0.0814
     39 CL39      -13.3720  -66.6030    2.1410 Cl    439  NH5439     -0.0814
@<TRIPOS>BOND
     1    34    33    1
     2    34    35    1
     3    33    32    1
     4    35    36    1
     5     8     7    1
     6     8     9    1
     7    38     4    1
     8     5     4   ar
     9     5     6   ar
    10     7     6    1
    11     9    10    1
    12    15    14    1
    13    15    16    1
    14    32    14    1
    15    32    37    1
    16    14    12   am
    17     4     3   ar
    18     6     1   ar
    19    12    13    2
    20    12    11    1
    21    36    37    1
    22    11    10    1
    23    16    17    1
    24     3     2   ar
    25     3    39    1
    26     1     2   ar
    27    17    18    1
    28    18    19    1
    29    19    20    1
    30    20    21    1
    31    20    25    2
    32    21    22    1
    33    26    25    1
    34    26    27    1
    35    25    24    1
    36    27    28    1
    37    22    23    2
    38    24    23    1
    39    24    30    2
    40    23    31    1
    41    28    30    2
    42    28    29    2
