@<TRIPOS>MOLECULE
3s7d_SAH_A_1.pdb
 26 28 0 0 0
SMALL
GASTEIGER

@<TRIPOS>ATOM
      1  N        -15.4460  -57.5990  -10.6270 N.3   1000  SAH1000    -0.1208
      2  CA       -14.2890  -57.4660  -11.5610 C.3   1000  SAH1000     0.1952
      3  CB       -14.1540  -55.9880  -12.0820 C.3   1000  SAH1000     0.0422
      4  CG       -15.0320  -55.7270  -13.3170 C.3   1000  SAH1000     0.0597
      5  SD       -14.3360  -56.6200  -14.7230 S.3   1000  SAH1000    -0.1375
      6  C        -12.9830  -57.9860  -10.9750 C.2   1000  SAH1000     0.3819
      7  O        -11.9700  -57.8980  -11.5820 O.co2 1000  SAH1000    -0.2441
      8  OXT      -12.9730  -58.5160   -9.7930 O.co2 1000  SAH1000    -0.2441
      9  C5'      -15.7500  -57.5320  -15.4810 C.3   1000  SAH1000     0.0899
     10  C4'      -16.0590  -58.7940  -14.6840 C.3   1000  SAH1000     0.1630
     11  O4'      -16.6490  -58.4820  -13.4110 O.3   1000  SAH1000    -0.3153
     12  C3'      -17.1470  -59.5950  -15.3770 C.3   1000  SAH1000     0.2168
     13  O3'      -16.7230  -60.3370  -16.5370 O.3   1000  SAH1000    -0.2175
     14  C2'      -17.8270  -60.3570  -14.2260 C.3   1000  SAH1000     0.2569
     15  O2'      -17.1090  -61.5160  -13.7570 O.3   1000  SAH1000    -0.2130
     16  C1'      -17.7890  -59.2950  -13.1250 C.3   1000  SAH1000     0.3185
     17  N9       -18.9940  -58.4190  -13.0440 N.pl3 1000  SAH1000    -0.1439
     18  C8       -19.1620  -57.1330  -13.4460 C.3   1000  SAH1000     0.3377
     19  N7       -20.3680  -56.7170  -13.1730 N.2   1000  SAH1000    -0.2095
     20  C5       -21.0370  -57.7090  -12.6070 C.2   1000  SAH1000     0.2526
     21  C6       -22.3920  -57.8620  -12.0870 C.2   1000  SAH1000     0.4393
     22  N6       -23.2410  -56.8630  -12.1500 N.pl3 1000  SAH1000     0.2180
     23  N1       -22.7260  -59.0820  -11.5710 N.2   1000  SAH1000     0.0021
     24  C2       -21.8330  -60.1060  -11.5110 C.3   1000  SAH1000     0.5254
     25  N3       -20.5760  -59.9870  -11.9570 N.2   1000  SAH1000    -0.0055
     26  C4       -20.1600  -58.8340  -12.4990 C.2   1000  SAH1000     0.3518
@<TRIPOS>BOND
     1    13    12    1
     2     9     5    1
     3     9    10    1
     4    12    10    1
     5    12    14    1
     6     5     4    1
     7    10    11    1
     8    14    15    1
     9    14    16    1
    10    18    19    1
    11    18    17    1
    12    11    16    1
    13     4     3    1
    14    19    20    2
    15    16    17    1
    16    17    26    1
    17    20    26    1
    18    20    21    1
    19    26    25    2
    20    22    21    1
    21    21    23    2
    22     3     2    1
    23    25    24    1
    24     7     6   ar
    25    23    24    1
    26     2     6    1
    27     2     1    1
    28     6     8   ar
