@<TRIPOS>MOLECULE
3s7d_III_I_1.pdb
 42 41 0 0 0
SMALL
GASTEIGER

@<TRIPOS>ATOM
      1  N        -15.5390  -54.9560  -26.8390 N.3   369  LEU369     -0.1231
      2  CA       -15.0890  -54.1180  -25.7320 C.3   369  LEU369      0.1693
      3  C        -16.2330  -53.2410  -25.1200 C.2   369  LEU369      0.2592
      4  O        -17.2100  -52.9150  -25.8070 O.2   369  LEU369     -0.2718
      5  CB       -13.8060  -53.3080  -26.1060 C.3   369  LEU369      0.0284
      6  CG       -12.4920  -54.0880  -26.5870 C.3   369  LEU369      0.0019
      7  CD1      -11.2410  -53.2100  -26.4980 C.3   369  LEU369      0.0001
      8  CD2      -12.2320  -55.4320  -25.8190 C.3   369  LEU369      0.0001
      9  N        -16.1420  -52.9580  -23.8000 N.am  370  LYS370     -0.1966
     10  CA       -17.1260  -52.1970  -23.0210 C.3   370  LYS370      0.1728
     11  CB       -16.6360  -52.1200  -21.5460 C.3   370  LYS370      0.0311
     12  CG       -16.6110  -53.4370  -20.7010 C.3   370  LYS370      0.0038
     13  CD       -15.9820  -53.1320  -19.2970 C.3   370  LYS370      0.0189
     14  CE       -15.6460  -54.4410  -18.5950 C.3   370  LYS370      0.0888
     15  NZ       -14.6960  -54.4580  -17.4730 N.3   370  LYS370     -0.2165
     16  CM       -14.9630  -53.2580  -16.7290 C.3   370  LYS370      0.1075
     17  C        -17.3650  -50.8330  -23.6680 C.2   370  LYS370      0.2617
     18  O        -16.4420  -50.0170  -23.7640 O.2   370  LYS370     -0.2715
     19  N        -18.5870  -50.6380  -24.2010 N.am  371  SER371     -0.1936
     20  CA       -19.0020  -49.4340  -24.9550 C.3   371  SER371      0.2055
     21  C        -20.4920  -49.0620  -24.8170 C.2   371  SER371      0.2643
     22  O        -21.2370  -49.7130  -24.0850 O.2   371  SER371     -0.2714
     23  CB       -18.6670  -49.6090  -26.4410 C.3   371  SER371      0.2130
     24  OG       -19.2920  -50.7460  -27.0210 O.3   371  SER371     -0.2179
     25  N        -20.9240  -48.0130  -25.5610 N.am  372  LYS372     -0.1963
     26  CA       -22.3200  -47.5540  -25.5830 C.3   372  LYS372      0.1728
     27  C        -23.1030  -48.1390  -26.7520 C.2   372  LYS372      0.2616
     28  O        -24.1330  -48.7570  -26.5250 O.2   372  LYS372     -0.2715
     29  CB       -22.4010  -46.0200  -25.5650 C.3   372  LYS372      0.0311
     30  CG       -22.7760  -45.4830  -24.2120 C.3   372  LYS372      0.0038
     31  CD       -21.5740  -45.5280  -23.2930 C.3   372  LYS372      0.0206
     32  CE       -21.9370  -45.4060  -21.8480 C.3   372  LYS372      0.1093
     33  NZ       -20.8250  -44.7720  -21.1250 N.3   372  LYS372     -0.1314
     34  N        -22.6000  -47.9390  -27.9960 N.am  373  LYS373     -0.1977
     35  CA       -23.1680  -48.4090  -29.2620 C.3   373  LYS373      0.1596
     36  C        -22.8460  -49.9010  -29.4720 C.2   373  LYS373      0.2287
     37  O        -21.6930  -50.3200  -29.3510 O.2   373  LYS373     -0.2864
     38  CB       -22.5990  -47.5490  -30.4100 C.3   373  LYS373      0.0298
     39  CG       -23.1980  -47.7860  -31.7890 C.3   373  LYS373      0.0038
     40  CD       -22.5770  -46.8150  -32.7800 C.3   373  LYS373      0.0206
     41  CE       -22.7020  -47.2700  -34.2100 C.3   373  LYS373      0.1093
     42  NZ       -22.2220  -46.2200  -35.1470 N.3   373  LYS373     -0.1314
@<TRIPOS>BOND
     1    42    41    1
     2    41    40    1
     3    40    39    1
     4    39    38    1
     5    38    35    1
     6    36    37    2
     7    36    35    1
     8    35    34    1
     9    34    27   am
    10    24    23    1
    11     1     2    1
    12    27    28    2
    13    27    26    1
    14     6     7    1
    15     6     5    1
    16     6     8    1
    17    23    20    1
    18     5     2    1
    19     4     3    2
    20     2     3    1
    21    26    29    1
    22    26    25    1
    23    29    30    1
    24    25    21   am
    25     3     9   am
    26    20    21    1
    27    20    19    1
    28    21    22    2
    29    30    31    1
    30    19    17   am
    31     9    10    1
    32    18    17    2
    33    17    10    1
    34    31    32    1
    35    10    11    1
    36    32    33    1
    37    11    12    1
    38    12    13    1
    39    13    14    1
    40    14    15    1
    41    15    16    1
