@<TRIPOS>MOLECULE
3s7f_SAM_A_1.pdb
 27 29 0 0 0
SMALL
GASTEIGER

@<TRIPOS>ATOM
      1  N         17.0190   60.4200   16.6320 N.3   1000  SAM1000    -0.1208
      2  CA        15.9100   60.1400   15.7270 C.3   1000  SAM1000     0.1952
      3  C         14.5660   60.5220   16.3340 C.2   1000  SAM1000     0.3819
      4  O         13.5140   60.3170   15.6390 O.co2 1000  SAM1000    -0.2441
      5  OXT       14.4930   61.0290   17.4810 O.co2 1000  SAM1000    -0.2441
      6  CB        15.8870   58.7110   15.1590 C.3   1000  SAM1000     0.0414
      7  CG        16.7920   58.5360   13.9460 C.3   1000  SAM1000     0.0503
      8  SD        16.0580   59.5300   12.5820 S.3   1000  SAM1000    -0.1761
      9  CE        15.8950   58.3640   11.1440 C.3   1000  SAM1000     0.0590
     10  C5'       17.3670   60.4100   11.8100 C.3   1000  SAM1000     0.0806
     11  C4'       17.5670   61.6640   12.6160 C.3   1000  SAM1000     0.1622
     12  O4'       18.2230   61.3510   13.8520 O.3   1000  SAM1000    -0.3153
     13  C3'       18.5990   62.5490   11.9200 C.3   1000  SAM1000     0.2168
     14  O3'       18.0970   63.2510   10.7820 O.3   1000  SAM1000    -0.2175
     15  C2'       19.2000   63.3480   13.0580 C.3   1000  SAM1000     0.2569
     16  O2'       18.3230   64.3290   13.5300 O.3   1000  SAM1000    -0.2130
     17  C1'       19.2610   62.2750   14.1400 C.3   1000  SAM1000     0.3185
     18  N9        20.5160   61.5050   14.2110 N.pl3 1000  SAM1000    -0.1439
     19  C8        20.7880   60.2050   13.8100 C.3   1000  SAM1000     0.3377
     20  N7        22.0030   59.8980   14.0920 N.2   1000  SAM1000    -0.2095
     21  C5        22.6220   60.9730   14.6770 C.2   1000  SAM1000     0.2526
     22  C6        23.9180   61.2400   15.1990 C.2   1000  SAM1000     0.4393
     23  N6        24.9190   60.3080   15.1720 N.pl3 1000  SAM1000     0.2180
     24  N1        24.1700   62.4600   15.7060 N.2   1000  SAM1000     0.0021
     25  C2        23.1990   63.4410   15.7500 C.3   1000  SAM1000     0.5254
     26  N3        21.9590   63.2830   15.2870 N.2   1000  SAM1000    -0.0055
     27  C4        21.6570   62.0440   14.7630 C.2   1000  SAM1000     0.3518
@<TRIPOS>BOND
     1    14    13    1
     2     9     8    1
     3    10     8    1
     4    10    11    1
     5    13    11    1
     6    13    15    1
     7     8     7    1
     8    11    12    1
     9    15    16    1
    10    15    17    1
    11    19    20    1
    12    19    18    1
    13    12    17    1
    14     7     6    1
    15    20    21    2
    16    17    18    1
    17    18    27    1
    18    21    27    1
    19    21    22    1
    20    27    26    2
    21     6     2    1
    22    23    22    1
    23    22    24    2
    24    26    25    1
    25     4     3   ar
    26    24    25    1
    27     2     3    1
    28     2     1    1
    29     3     5   ar
