@<TRIPOS>MOLECULE
3s7f_III_I_1.pdb
 45 44 0 0 0
SMALL
GASTEIGER

@<TRIPOS>ATOM
      1  N         17.5200   57.8730    0.4980 N.3   369  LEU369     -0.1231
      2  CA        17.1410   56.8970    1.5200 C.3   369  LEU369      0.1693
      3  C         18.3230   56.0990    2.0830 C.2   369  LEU369      0.2592
      4  O         19.3360   55.9330    1.4040 O.2   369  LEU369     -0.2718
      5  CB        15.9640   55.9800    1.0740 C.3   369  LEU369      0.0284
      6  CG        14.5710   56.6690    0.7330 C.3   369  LEU369      0.0019
      7  CD1       13.3870   55.6550    0.7460 C.3   369  LEU369      0.0001
      8  CD2       14.2480   57.9330    1.6210 C.3   369  LEU369      0.0001
      9  N         18.1840   55.6590    3.3570 N.am  370  LYS370     -0.1966
     10  CA        19.1490   54.9330    4.1830 C.3   370  LYS370      0.1728
     11  C         19.5480   53.6330    3.5360 C.2   370  LYS370      0.2617
     12  O         18.7780   52.6780    3.5110 O.2   370  LYS370     -0.2715
     13  CB        18.5950   54.7040    5.6060 C.3   370  LYS370      0.0311
     14  CG        18.2250   55.9920    6.3780 C.3   370  LYS370      0.0038
     15  CD        17.9810   55.7440    7.8650 C.3   370  LYS370      0.0206
     16  CE        17.2510   56.8420    8.6250 C.3   370  LYS370      0.1093
     17  NZ        16.7370   56.2610    9.9020 N.3   370  LYS370     -0.1314
     18  N         20.7650   53.6220    2.9610 N.am  371  SER371     -0.1936
     19  CA        21.3950   52.4770    2.2750 C.3   371  SER371      0.2055
     20  C         22.9440   52.5040    2.3110 C.2   371  SER371      0.2643
     21  O         23.5540   53.5310    2.6380 O.2   371  SER371     -0.2714
     22  CB        20.8910   52.3440    0.8360 C.3   371  SER371      0.2130
     23  OG        21.3430   53.4030    0.0060 O.3   371  SER371     -0.2179
     24  N         23.5520   51.3440    1.9530 N.am  372  LYS372     -0.1963
     25  CA        24.9830   51.0400    1.8740 C.3   372  LYS372      0.1728
     26  C         25.6430   51.6900    0.6530 C.2   372  LYS372      0.2616
     27  O         26.8020   52.0620    0.7480 O.2   372  LYS372     -0.2715
     28  CB        25.2220   49.5180    1.8150 C.3   372  LYS372      0.0311
     29  CG        24.3710   48.6320    2.7330 C.3   372  LYS372      0.0038
     30  CD        24.9840   48.4920    4.1260 C.3   372  LYS372      0.0206
     31  CE        23.9580   48.8520    5.1590 C.3   372  LYS372      0.1093
     32  NZ        22.8670   47.8450    5.2430 N.3   372  LYS372     -0.1314
     33  N         24.9430   51.7760   -0.5070 N.am  373  LYS373     -0.1963
     34  CA        25.4640   52.4330   -1.7190 C.3   373  LYS373      0.1728
     35  C         24.4710   53.4770   -2.3060 C.2   373  LYS373      0.2616
     36  O         23.2570   53.2250   -2.3260 O.2   373  LYS373     -0.2715
     37  CB        25.9460   51.4130   -2.7710 C.3   373  LYS373      0.0311
     38  CG        24.8460   50.6160   -3.4830 C.3   373  LYS373      0.0038
     39  CD        25.4360   49.8170   -4.6440 C.3   373  LYS373      0.0206
     40  CE        24.7510   50.0730   -5.9720 C.3   373  LYS373      0.1093
     41  NZ        25.2790   49.1900   -7.0610 N.3   373  LYS373     -0.1314
     42  N         25.0060   54.6170   -2.7690 N.am  374  GLY374     -0.1955
     43  CA        24.2420   55.7160   -3.3610 C.3   374  GLY374      0.1869
     44  C         24.5940   56.0040   -4.8070 C.2   374  GLY374      0.2309
     45  O         23.9700   55.4700   -5.7260 O.2   374  GLY374     -0.2863
@<TRIPOS>BOND
     1    41    40    1
     2    40    39    1
     3    45    44    2
     4    44    43    1
     5    39    38    1
     6    38    37    1
     7    43    42    1
     8    37    34    1
     9    42    35   am
    10    36    35    2
    11    35    34    1
    12    34    33    1
    13    33    26   am
    14    23    22    1
    15     1     2    1
    16    26    27    2
    17    26    25    1
    18     6     7    1
    19     6     5    1
    20     6     8    1
    21    22    19    1
    22     5     2    1
    23     4     3    2
    24     2     3    1
    25    28    25    1
    26    28    29    1
    27    25    24    1
    28    24    20   am
    29     3     9   am
    30    19    20    1
    31    19    18    1
    32    20    21    2
    33    29    30    1
    34    18    11   am
    35     9    10    1
    36    12    11    2
    37    11    10    1
    38    30    31    1
    39    10    13    1
    40    31    32    1
    41    13    14    1
    42    14    15    1
    43    15    16    1
    44    16    17    1
