@<TRIPOS>MOLECULE
3s7j_SAM_A_1.pdb
 27 29 0 0 0
SMALL
GASTEIGER

@<TRIPOS>ATOM
      1  N         59.6710   16.8330   37.7540 N.3   1000  SAM1000    -0.1208
      2  CA        59.0560   15.7690   38.5340 C.3   1000  SAM1000     0.1952
      3  C         59.4150   14.4120   38.0370 C.2   1000  SAM1000     0.3819
      4  O         59.6140   13.4510   38.8190 O.co2 1000  SAM1000    -0.2441
      5  OXT       59.5160   14.2460   36.8640 O.co2 1000  SAM1000    -0.2441
      6  CB        57.5740   15.8820   39.0350 C.3   1000  SAM1000     0.0414
      7  CG        57.3320   16.7120   40.3580 C.3   1000  SAM1000     0.0503
      8  SD        58.1440   15.8830   41.7940 S.3   1000  SAM1000    -0.1761
      9  CE        57.0150   15.9440   43.1720 C.3   1000  SAM1000     0.0590
     10  C5'       59.2960   17.1130   42.5100 C.3   1000  SAM1000     0.0806
     11  C4'       60.5990   17.4110   41.7090 C.3   1000  SAM1000     0.1622
     12  O4'       60.3570   17.9870   40.4040 O.3   1000  SAM1000    -0.3153
     13  C3'       61.3380   18.5530   42.3990 C.3   1000  SAM1000     0.2168
     14  O3'       62.0940   18.0310   43.4790 O.3   1000  SAM1000    -0.2175
     15  C2'       62.2320   19.1040   41.2880 C.3   1000  SAM1000     0.2569
     16  O2'       63.1880   18.1410   40.9210 O.3   1000  SAM1000    -0.2130
     17  C1'       61.2120   19.1400   40.1630 C.3   1000  SAM1000     0.3185
     18  N9        60.4510   20.3780   40.1280 N.pl3 1000  SAM1000    -0.1439
     19  C8        59.1670   20.6510   40.5620 C.3   1000  SAM1000     0.3377
     20  N7        58.8590   21.9020   40.3190 N.2   1000  SAM1000    -0.2095
     21  C5        59.9280   22.5220   39.7280 C.2   1000  SAM1000     0.2526
     22  C6        60.2460   23.8540   39.2280 C.2   1000  SAM1000     0.4393
     23  N6        59.3370   24.8610   39.2830 N.pl3 1000  SAM1000     0.2180
     24  N1        61.4380   24.1500   38.7040 N.2   1000  SAM1000     0.0021
     25  C2        62.3640   23.1550   38.6370 C.3   1000  SAM1000     0.5254
     26  N3        62.1780   21.8670   39.0530 N.2   1000  SAM1000    -0.0055
     27  C4        60.9740   21.5280   39.6060 C.2   1000  SAM1000     0.3518
@<TRIPOS>BOND
     1     5     3   ar
     2     1     2    1
     3     3     2    1
     4     3     4   ar
     5     2     6    1
     6    25    24    1
     7    25    26    1
     8    24    22    2
     9     6     7    1
    10    26    27    2
    11    22    23    1
    12    22    21    1
    13    27    21    1
    14    27    18    1
    15    21    20    2
    16    18    17    1
    17    18    19    1
    18    17    12    1
    19    17    15    1
    20    20    19    1
    21     7     8    1
    22    12    11    1
    23    16    15    1
    24    15    13    1
    25    11    13    1
    26    11    10    1
    27     8    10    1
    28     8     9    1
    29    13    14    1
