@<TRIPOS>MOLECULE
3s7l_591_A_1.pdb
 27 30 0 0 0
SMALL
GASTEIGER

@<TRIPOS>ATOM
      1  C1        17.5530  -11.1500   18.7230 C.3     1  5911        0.0284
      2  N1        15.4940  -10.1650   17.9930 N.ar    1  5911       -0.2496
      3  O1        14.1940   -6.0490   18.9220 O.2     1  5911       -0.2520
      4  C2        16.0590  -11.0770   18.9610 C.3     1  5911        0.1276
      5  N2        15.3080  -10.5770   16.7340 N.ar    1  5911       -0.1679
      6  C3        15.1170   -8.8810   18.2090 C.ar    1  5911        0.0964
      7  N3        15.1850   -5.0630   17.0950 N.am    1  5911       -0.1363
      8  C4        14.6440   -8.4220   17.0050 C.ar    1  5911        0.0669
      9  N4        14.8540   -6.5860   15.4850 N.2     1  5911       -0.0834
     10  C5        14.7910   -9.5180   16.1320 C.ar    1  5911        0.1215
     11  N5        16.2330   -4.8690   15.0200 N.pl3   1  5911        0.1440
     12  C6        14.1210   -7.0650   16.6860 C.3     1  5911        0.2700
     13  N6         9.6540   -2.9330   13.8610 N.ar    1  5911       -0.2224
     14  C7        14.4900   -6.0280   17.7410 C.2     1  5911        0.3316
     15  N7         8.2430   -2.9410   15.7830 N.ar    1  5911       -0.2224
     16  C8        15.2950   -5.4200   15.7960 C.2     1  5911        0.4499
     17  C9        15.7030   -3.8990   17.7710 C.3     1  5911        0.2162
     18  C10       12.5900   -7.1210   16.5840 C.ar    1  5911        0.0274
     19  C11       11.8280   -8.2480   16.9570 C.ar    1  5911       -0.0002
     20  C12       10.4420   -8.2380   16.8440 C.ar    1  5911       -0.0002
     21  C13        9.7850   -7.1070   16.3670 C.ar    1  5911        0.0001
     22  C14       10.5050   -5.9600   15.9850 C.ar    1  5911        0.0028
     23  C15       11.8980   -5.9940   16.1090 C.ar    1  5911       -0.0001
     24  C16        9.8730   -4.7240   15.4980 C.ar    1  5911        0.0384
     25  C17       10.2300   -4.0780   14.3190 C.ar    1  5911        0.1022
     26  C18        8.6780   -2.4150   14.6260 C.ar    1  5911        0.1989
     27  C19        8.8560   -4.0840   16.1890 C.ar    1  5911        0.1022
@<TRIPOS>BOND
     1    13    25   ar
     2    13    26   ar
     3    25    24   ar
     4    26    15   ar
     5    11    16    1
     6     9    16    2
     7     9    12    1
     8    24    22    1
     9    24    27   ar
    10    15    27   ar
    11    16     7    1
    12    22    23   ar
    13    22    21   ar
    14    23    18   ar
    15    10     5   ar
    16    10     8   ar
    17    21    20   ar
    18    18    12    1
    19    18    19   ar
    20    12     8    1
    21    12    14    1
    22     5     2   ar
    23    20    19   ar
    24     8     6   ar
    25     7    14   am
    26     7    17    1
    27    14     3    2
    28     2     6   ar
    29     2     4    1
    30     1     4    1
