@<TRIPOS>MOLECULE
3s7m_532_A_1.pdb
 25 28 0 0 0
SMALL
GASTEIGER

@<TRIPOS>ATOM
      1  C1        15.5560   -4.1120   17.5410 C.3     1  5321        0.2162
      2  N1        15.0710   -5.3190   16.9310 N.am    1  5321       -0.1363
      3  O1        13.9150   -6.1080   18.7490 O.2     1  5321       -0.2520
      4  S1        15.2890  -10.6870   18.3600 S.2     1  5321       -0.0861
      5  C2        14.3030   -6.2060   17.5860 C.2     1  5321        0.3315
      6  N2        14.6860   -6.8160   15.3110 N.2     1  5321       -0.0835
      7  C3        13.9990   -7.2910   16.5540 C.3     1  5321        0.2676
      8  N3        16.1010   -5.0640   14.8780 N.pl3   1  5321        0.1440
      9  C4        15.2620   -5.7300   15.6720 C.2     1  5321        0.4499
     10  N4         9.9950   -2.9650   13.7620 N.ar    1  5321       -0.2423
     11  C5        12.4820   -7.3790   16.4460 C.ar    1  5321        0.0274
     12  C6        11.7020   -8.4890   16.7850 C.ar    1  5321       -0.0002
     13  C7        10.3130   -8.4160   16.6350 C.ar    1  5321       -0.0002
     14  C8         9.6840   -7.2650   16.1690 C.ar    1  5321        0.0000
     15  C9        10.4520   -6.1410   15.8180 C.ar    1  5321        0.0013
     16  C10       11.8330   -6.2500   15.9830 C.ar    1  5321       -0.0001
     17  C11        9.8930   -4.8580   15.3290 C.ar    1  5321        0.0192
     18  C12        8.7570   -4.2710   15.9140 C.ar    1  5321        0.0031
     19  C13        8.2640   -3.0640   15.4250 C.ar    1  5321        0.0207
     20  C14        8.9110   -2.4470   14.3530 C.ar    1  5321        0.0989
     21  C15       10.4520   -4.1450   14.2640 C.ar    1  5321        0.0988
     22  C16       14.5210   -8.6400   16.9570 C.ar    1  5321        0.0343
     23  C17       14.9500   -9.6310   16.0280 C.ar    1  5321        0.0073
     24  C18       15.3830  -10.7720   16.6590 C.ar    1  5321        0.0353
     25  C19       14.6620   -9.0950   18.2500 C.ar    1  5321        0.0353
@<TRIPOS>BOND
     1    10    21   ar
     2    10    20   ar
     3    21    17   ar
     4    20    19   ar
     5     8     9    1
     6     6     9    2
     7     6     7    1
     8    17    15    1
     9    17    18   ar
    10    19    18   ar
    11     9     2    1
    12    15    16   ar
    13    15    14   ar
    14    16    11   ar
    15    23    24   ar
    16    23    22   ar
    17    14    13   ar
    18    11     7    1
    19    11    12   ar
    20     7    22    1
    21     7     5    1
    22    13    12   ar
    23    24     4   ar
    24     2     1    1
    25     2     5   am
    26    22    25   ar
    27     5     3    2
    28    25     4   ar
