@<TRIPOS>MOLECULE
3s7s_HEM_A_1.pdb
 43 50 0 0 0
SMALL
GASTEIGER

@<TRIPOS>ATOM
      1  CHA       86.6830   52.6610   41.2030 C.2   600  HEM600      0.0000
      2  CHB       82.1950   51.2230   42.2710 C.2   600  HEM600      0.0000
      3  CHC       83.8400   46.8110   43.3300 C.2   600  HEM600      0.0000
      4  CHD       88.2940   48.2120   42.1980 C.2   600  HEM600      0.0000
      5  C1A       85.3200   52.6360   41.3770 C.ar  600  HEM600      0.0000
      6  C2A       84.4270   53.7370   41.0890 C.ar  600  HEM600      0.0000
      7  C3A       83.1830   53.3520   41.3780 C.ar  600  HEM600      0.0000
      8  C4A       83.2520   51.9840   41.8570 C.ar  600  HEM600      0.0000
      9  CMA       81.9020   54.2110   41.2350 C.3   600  HEM600      0.0000
     10  CAA       84.8470   55.1100   40.5360 C.3   600  HEM600      0.0000
     11  CBA       85.0250   54.9550   39.0300 C.3   600  HEM600      0.0000
     12  CGA       84.9100   56.3030   38.3640 C.2   600  HEM600      0.0000
     13  O1A       85.6990   57.2230   38.7290 O.co2 600  HEM600      0.0000
     14  O2A       84.0230   56.4560   37.4750 O.co2 600  HEM600      0.0000
     15  C1B       82.2810   49.9480   42.7630 C.2   600  HEM600      0.0000
     16  C2B       81.2490   49.2370   43.4880 C.2   600  HEM600      0.0000
     17  C3B       81.7100   48.0150   43.7820 C.2   600  HEM600      0.0000
     18  C4B       83.0470   47.9200   43.2470 C.2   600  HEM600      0.0000
     19  CMB       79.8710   49.8180   43.8470 C.3   600  HEM600      0.0000
     20  CAB       81.0020   46.8730   44.5540 C.2   600  HEM600      0.0000
     21  CBB       79.7820   46.4480   44.2100 C.2   600  HEM600      0.0000
     22  C1C       85.1850   46.8060   43.0920 C.ar  600  HEM600      0.0000
     23  C2C       86.0650   45.6620   43.2430 C.ar  600  HEM600      0.0000
     24  C3C       87.3080   46.0660   42.9300 C.ar  600  HEM600      0.0000
     25  C4C       87.2260   47.4650   42.5730 C.ar  600  HEM600      0.0000
     26  CMC       85.6050   44.2570   43.6890 C.3   600  HEM600      0.0000
     27  CAC       88.6240   45.2480   42.9180 C.2   600  HEM600      0.0000
     28  CBC       88.6700   44.0040   43.4100 C.2   600  HEM600      0.0000
     29  C1D       88.3020   49.5360   41.8880 C.2   600  HEM600      0.0000
     30  C2D       89.4970   50.3030   41.6500 C.2   600  HEM600      0.0000
     31  C3D       88.9980   51.7020   41.3360 C.2   600  HEM600      0.0000
     32  C4D       87.5590   51.6280   41.4160 C.2   600  HEM600      0.0000
     33  CMD       90.9530   49.8070   41.7100 C.3   600  HEM600      0.0000
     34  CAD       89.8610   52.9170   40.9900 C.3   600  HEM600      0.0000
     35  CBD       89.8950   52.9470   39.4650 C.3   600  HEM600      0.0000
     36  CGD       90.8660   54.0000   38.9960 C.2   600  HEM600      0.0000
     37  O1D       91.7850   53.6420   38.2100 O.co2 600  HEM600      0.0000
     38  O2D       90.7220   55.1860   39.4190 O.co2 600  HEM600      0.0000
     39  NA        84.5630   51.5750   41.8200 N.ar  600  HEM600      0.0000
     40  NB        83.3640   49.1140   42.6290 N.2   600  HEM600      0.0000
     41  NC        85.9220   47.8850   42.6570 N.ar  600  HEM600      0.0000
     42  ND        87.1880   50.3360   41.7420 N.2   600  HEM600      0.0000
     43 FE         85.2190   49.7320   42.2020 Fe    600  HEM600      0.0000
@<TRIPOS>BOND
     1    14    12   ar
     2    37    36   ar
     3    12    13   ar
     4    12    11    1
     5    36    38   ar
     6    36    35    1
     7    11    10    1
     8    35    34    1
     9    10     6    1
    10    34    31    1
    11     6     5   ar
    12     6     7   ar
    13     1     5    2
    14     1    32    1
    15     9     7    1
    16    31    32    1
    17    31    30    2
    18     5    39   ar
    19     7     8   ar
    20    32    42    2
    21    30    33    1
    22    30    29    1
    23    42    29    1
    24    42    43    1
    25    39     8   ar
    26    39    43    1
    27     8     2    2
    28    29     4    2
    29     4    25    1
    30    43    40    1
    31    43    41    1
    32     2    15    1
    33    25    41   ar
    34    25    24   ar
    35    40    15    2
    36    40    18    1
    37    41    22   ar
    38    15    16    1
    39    27    24    1
    40    27    28    2
    41    24    23   ar
    42    22    23   ar
    43    22     3    1
    44    23    26    1
    45    18     3    2
    46    18    17    1
    47    16    17    2
    48    16    19    1
    49    17    20    1
    50    21    20    2
