@<TRIPOS>MOLECULE
3s7s_EXM_A_1.pdb
 22 25 0 0 0
SMALL
GASTEIGER

@<TRIPOS>ATOM
      1  C         84.2060   52.5630   48.9090 C.2   601  EXM601     -0.0049
      2  C1        87.4480   51.8130   45.4250 C.2   601  EXM601     -0.0194
      3  O1        88.6760   49.8980   48.1490 O.2   601  EXM601     -0.2866
      4  C2        88.1970   50.9020   46.1640 C.2   601  EXM601      0.0377
      5  O2        86.0160   58.9170   43.8660 O.2   601  EXM601     -0.2961
      6  C3        87.9640   50.7130   47.5200 C.2   601  EXM601      0.1951
      7  C4        86.9630   51.4260   48.1740 C.2   601  EXM601      0.0377
      8  C5        86.1780   52.3270   47.4640 C.2   601  EXM601     -0.0198
      9  C6        85.1220   53.1230   48.1490 C.2   601  EXM601     -0.0258
     10  C7        85.1630   54.6150   47.9250 C.3   601  EXM601      0.0261
     11  C8        85.3750   54.8930   46.4370 C.3   601  EXM601      0.0054
     12  C9        86.5740   54.1180   45.8500 C.3   601  EXM601      0.0078
     13  C10       86.3560   52.6020   45.9950 C.3   601  EXM601      0.0373
     14  C11       86.9210   54.5320   44.4050 C.3   601  EXM601      0.0011
     15  C12       86.9420   56.0460   44.1610 C.3   601  EXM601      0.0069
     16  C13       85.6480   56.6670   44.6620 C.3   601  EXM601      0.0515
     17  C14       85.5610   56.3720   46.1480 C.3   601  EXM601      0.0073
     18  C15       84.5560   57.3740   46.7160 C.3   601  EXM601      0.0082
     19  C16       84.8750   58.6660   45.9580 C.3   601  EXM601      0.0645
     20  C17       85.5740   58.1650   44.7170 C.2   601  EXM601      0.1498
     21  C18       84.4460   56.1900   43.8540 C.3   601  EXM601      0.0073
     22  C19       85.0840   52.1760   45.2580 C.3   601  EXM601      0.0087
@<TRIPOS>BOND
     1    21    16    1
     2     5    20    2
     3    15    14    1
     4    15    16    1
     5    14    12    1
     6    16    20    1
     7    16    17    1
     8    20    19    1
     9    22    13    1
    10     2    13    1
    11     2     4    2
    12    12    13    1
    13    12    11    1
    14    19    18    1
    15    13     8    1
    16    17    11    1
    17    17    18    1
    18     4     6    1
    19    11    10    1
    20     8     9    1
    21     8     7    2
    22     6     3    2
    23     6     7    1
    24    10     9    1
    25     9     1    2
