@<TRIPOS>MOLECULE
3s7w_HEC_A_1.pdb
 43 50 0 0 0
SMALL
GASTEIGER

@<TRIPOS>ATOM
      1 FE        -11.1290  -47.5050  -28.9090 Fe    1004  HEC1004     0.0000
      2  CHA      -11.9480  -44.4310  -27.7290 C.2   1004  HEC1004     0.0000
      3  CHB      -13.5680  -48.9370  -26.9220 C.2   1004  HEC1004     0.0000
      4  CHC      -10.4980  -50.5660  -30.2650 C.2   1004  HEC1004     0.0000
      5  CHD       -8.3200  -46.1940  -30.5200 C.2   1004  HEC1004     0.0000
      6  NA       -12.4880  -46.8320  -27.5580 N.2   1004  HEC1004     0.0000
      7  C1A      -12.6380  -45.4850  -27.1910 C.2   1004  HEC1004     0.0000
      8  C2A      -13.6160  -45.3900  -26.1300 C.2   1004  HEC1004     0.0000
      9  C3A      -14.0590  -46.6340  -25.8990 C.2   1004  HEC1004     0.0000
     10  C4A      -13.3750  -47.5620  -26.8010 C.2   1004  HEC1004     0.0000
     11  CMA      -15.1350  -47.0360  -24.8700 C.3   1004  HEC1004     0.0000
     12  CAA      -14.0730  -44.0640  -25.4510 C.3   1004  HEC1004     0.0000
     13  CBA      -15.1240  -43.3500  -26.3430 C.3   1004  HEC1004     0.0000
     14  CGA      -16.3190  -44.2380  -26.7180 C.2   1004  HEC1004     0.0000
     15  O1A      -17.1930  -44.5500  -25.8580 O.co2 1004  HEC1004     0.0000
     16  O2A      -16.4070  -44.6320  -27.9110 O.co2 1004  HEC1004     0.0000
     17  NB       -11.8950  -49.4310  -28.6400 N.ar  1004  HEC1004     0.0000
     18  C1B      -12.9890  -49.7650  -27.8640 C.ar  1004  HEC1004     0.0000
     19  C2B      -13.4060  -51.1150  -28.2450 C.ar  1004  HEC1004     0.0000
     20  C3B      -12.5210  -51.6050  -29.1450 C.ar  1004  HEC1004     0.0000
     21  C4B      -11.5910  -50.5100  -29.4400 C.ar  1004  HEC1004     0.0000
     22  CMB      -14.5680  -51.8340  -27.5170 C.3   1004  HEC1004     0.0000
     23  CAB      -12.4580  -53.0140  -29.8100 C.3   1004  HEC1004     0.0000
     24  CBB      -13.8140  -53.3840  -30.4730 C.3   1004  HEC1004     0.0000
     25  NC        -9.6950  -48.2080  -30.1310 N.2   1004  HEC1004     0.0000
     26  C1C       -9.5970  -49.5420  -30.5330 C.2   1004  HEC1004     0.0000
     27  C2C       -8.5180  -49.6640  -31.4970 C.2   1004  HEC1004     0.0000
     28  C3C       -7.8200  -48.5040  -31.4800 C.2   1004  HEC1004     0.0000
     29  C4C       -8.6120  -47.5430  -30.7040 C.2   1004  HEC1004     0.0000
     30  CMC       -7.9930  -51.0710  -31.9440 C.3   1004  HEC1004     0.0000
     31  CAC       -6.4520  -48.2120  -32.1440 C.3   1004  HEC1004     0.0000
     32  CBC       -6.3460  -48.3870  -33.6840 C.3   1004  HEC1004     0.0000
     33  ND       -10.2680  -45.6610  -29.0730 N.ar  1004  HEC1004     0.0000
     34  C1D       -9.1300  -45.3310  -29.8380 C.ar  1004  HEC1004     0.0000
     35  C2D       -8.9450  -43.8940  -29.8320 C.ar  1004  HEC1004     0.0000
     36  C3D      -10.0920  -43.3500  -29.0050 C.ar  1004  HEC1004     0.0000
     37  C4D      -10.8390  -44.5040  -28.5510 C.ar  1004  HEC1004     0.0000
     38  CMD       -7.8380  -43.1020  -30.5510 C.3   1004  HEC1004     0.0000
     39  CAD      -10.3290  -41.8510  -28.6990 C.3   1004  HEC1004     0.0000
     40  CBD      -10.8950  -41.1560  -29.9400 C.3   1004  HEC1004     0.0000
     41  CGD      -12.3840  -41.4200  -30.0920 C.2   1004  HEC1004     0.0000
     42  O1D      -13.0720  -41.8870  -29.1450 O.co2 1004  HEC1004     0.0000
     43  O2D      -12.9190  -41.1500  -31.1920 O.co2 1004  HEC1004     0.0000
@<TRIPOS>BOND
     1    32    31    1
     2    31    28    1
     3    30    27    1
     4    27    28    2
     5    27    26    1
     6    28    29    1
     7    43    41   ar
     8    29     5    1
     9    29    25    2
    10    38    35    1
    11    26     4    2
    12    26    25    1
    13     5    34    2
    14    24    23    1
    15     4    21    1
    16    25     1    1
    17    41    40    1
    18    41    42   ar
    19    40    39    1
    20    34    35   ar
    21    34    33   ar
    22    35    36   ar
    23    23    20    1
    24    21    20   ar
    25    21    17   ar
    26    20    19   ar
    27    33     1    1
    28    33    37   ar
    29    36    39    1
    30    36    37   ar
    31     1    17    1
    32     1     6    1
    33    17    18   ar
    34    37     2    2
    35    19    18   ar
    36    19    22    1
    37    16    14   ar
    38    18     3    1
    39     2     7    1
    40     6     7    2
    41     6    10    1
    42     7     8    1
    43     3    10    2
    44    10     9    1
    45    14    13    1
    46    14    15   ar
    47    13    12    1
    48     8     9    2
    49     8    12    1
    50     9    11    1
