@<TRIPOS>MOLECULE
3s86_IMP_A_1.pdb
 23 25 0 0 0
SMALL
GASTEIGER

@<TRIPOS>ATOM
      1  P         -5.3730    8.5200  -10.5650 P.3   197  IMP197      0.5327
      2  O1P       -6.1740    7.9890  -11.7330 O.2   197  IMP197     -0.2224
      3  O2P       -3.8990    8.6740  -10.8520 O.3   197  IMP197     -0.1145
      4  O3P       -5.9110    9.8520  -10.0340 O.3   197  IMP197     -0.1145
      5  O5'       -5.5170    7.3110   -9.5070 O.3   197  IMP197     -0.2675
      6  C5'       -4.5780    7.0990   -8.4830 C.3   197  IMP197      0.1860
      7  C4'       -5.2840    6.9200   -7.1330 C.3   197  IMP197      0.1823
      8  O4'       -6.3530    5.9980   -7.1480 O.3   197  IMP197     -0.3135
      9  C3'       -4.2990    6.3520   -6.1580 C.3   197  IMP197      0.2184
     10  O3'       -4.7760    6.6730   -4.8870 O.3   197  IMP197     -0.2174
     11  C2'       -4.5460    4.8810   -6.2870 C.3   197  IMP197      0.2570
     12  O2'       -4.0200    4.2410   -5.1390 O.3   197  IMP197     -0.2130
     13  C1'       -6.0660    4.7900   -6.4740 C.3   197  IMP197      0.3186
     14  N9        -6.2670    3.5990   -7.3120 N.pl3 197  IMP197     -0.1435
     15  C8        -6.6250    3.5410   -8.6220 C.3   197  IMP197      0.3382
     16  N7        -6.6360    2.2430   -9.0150 N.2   197  IMP197     -0.2054
     17  C5        -6.2670    1.4760   -7.9680 C.2   197  IMP197      0.2446
     18  C6        -6.1110    0.1090   -7.8160 C.1   197  IMP197      0.1792
     19  O6        -6.2010   -0.6130   -8.7940 O.2   197  IMP197     -0.2203
     20  N1        -5.7210   -0.4070   -6.6040 N.2   197  IMP197     -0.1458
     21  C2        -5.4910    0.4290   -5.5380 C.3   197  IMP197      0.4017
     22  N3        -5.6620    1.7890   -5.7050 N.2   197  IMP197     -0.0334
     23  C4        -6.0330    2.3040   -6.8920 C.2   197  IMP197      0.3528
@<TRIPOS>BOND
     1     2     1    2
     2     3     1    1
     3     1     4    1
     4     1     5    1
     5     5     6    1
     6    16    15    1
     7    16    17    2
     8    19    18    2
     9    15    14    1
    10     6     7    1
    11    17    18    1
    12    17    23    1
    13    18    20    2
    14    14    23    1
    15    14    13    1
    16     8     7    1
    17     8    13    1
    18     7     9    1
    19    23    22    2
    20    20    21    1
    21    13    11    1
    22    11     9    1
    23    11    12    1
    24     9    10    1
    25    22    21    1
