@<TRIPOS>MOLECULE
3s87_ADP_A_1.pdb
 27 29 0 0 0
SMALL
GASTEIGER

@<TRIPOS>ATOM
      1  PB        26.4060   52.5770   16.7470 P.3   1002  ADP1002     0.5373
      2  O1B       26.8140   52.7260   18.1810 O.3   1002  ADP1002    -0.1143
      3  O2B       25.7510   53.8200   16.2070 O.3   1002  ADP1002    -0.1143
      4  O3B       27.4090   51.9610   15.8060 O.2   1002  ADP1002    -0.2221
      5  PA        25.0980   50.0140   16.2380 P.3   1002  ADP1002     0.2231
      6  O1A       24.7970   50.0820   14.7640 O.2   1002  ADP1002    -0.5169
      7  O2A       26.1330   49.0600   16.7540 O.3   1002  ADP1002    -0.4370
      8  O3A       25.2040   51.4960   16.8840 O.3   1002  ADP1002    -0.2261
      9  O5'       23.7370   49.6420   16.9750 O.3   1002  ADP1002    -0.3111
     10  C5'       23.6580   49.0900   18.2680 C.3   1002  ADP1002     0.1813
     11  C4'       22.3750   49.6210   18.8930 C.3   1002  ADP1002     0.1821
     12  O4'       22.2480   51.0330   18.6860 O.3   1002  ADP1002    -0.3135
     13  C3'       21.1110   48.9940   18.3160 C.3   1002  ADP1002     0.2184
     14  O3'       20.8350   47.7750   19.0020 O.3   1002  ADP1002    -0.2174
     15  C2'       20.0450   50.0720   18.5230 C.3   1002  ADP1002     0.2570
     16  O2'       19.3110   49.9260   19.7670 O.3   1002  ADP1002    -0.2130
     17  C1'       20.8740   51.3630   18.5070 C.3   1002  ADP1002     0.3186
     18  N9        20.6340   51.9520   17.1760 N.pl3 1002  ADP1002    -0.1439
     19  C8        21.0700   51.5060   15.9550 C.3   1002  ADP1002     0.3377
     20  N7        20.5950   52.2960   14.9560 N.2   1002  ADP1002    -0.2095
     21  C5        19.8340   53.2420   15.5390 C.2   1002  ADP1002     0.2526
     22  C6        19.0170   54.3890   15.0910 C.2   1002  ADP1002     0.4393
     23  N6        18.9070   54.6980   13.7740 N.pl3 1002  ADP1002     0.2180
     24  N1        18.3870   55.1200   16.0440 N.2   1002  ADP1002     0.0021
     25  C2        18.4690   54.8430   17.3610 C.3   1002  ADP1002     0.5254
     26  N3        19.1850   53.8150   17.8350 N.2   1002  ADP1002    -0.0055
     27  C4        19.8650   53.0070   16.9930 C.2   1002  ADP1002     0.3518
@<TRIPOS>BOND
     1    23    22    1
     2     6     5    2
     3    20    21    2
     4    20    19    1
     5    22    21    1
     6    22    24    2
     7    21    27    1
     8     4     1    2
     9    19    18    1
    10    24    25    1
    11     3     1    1
    12     5     7    1
    13     5     8    1
    14     5     9    1
    15     1     8    1
    16     1     2    1
    17     9    10    1
    18    27    18    1
    19    27    26    2
    20    18    17    1
    21    25    26    1
    22    10    11    1
    23    13    15    1
    24    13    11    1
    25    13    14    1
    26    17    15    1
    27    17    12    1
    28    15    16    1
    29    12    11    1
