@<TRIPOS>MOLECULE
3s87_DGT_A_1.pdb
 31 33 0 0 0
SMALL
GASTEIGER

@<TRIPOS>ATOM
      1  PG       -12.7810   44.8730   27.5740 P.3   1001  DGT1001     0.5373
      2  O1G      -11.2860   45.0930   27.5800 O.3   1001  DGT1001    -0.1143
      3  O2G      -13.3320   44.6200   28.9450 O.3   1001  DGT1001    -0.1143
      4  O3G      -13.2840   43.9820   26.4550 O.2   1001  DGT1001    -0.2221
      5  O3B      -13.3010   46.3400   27.1690 O.3   1001  DGT1001    -0.2258
      6  PB       -12.6410   47.7240   27.6580 P.3   1001  DGT1001     0.2277
      7  O1B      -11.8950   47.5310   28.9340 O.3   1001  DGT1001    -0.4368
      8  O2B      -13.6820   48.8030   27.6450 O.2   1001  DGT1001    -0.5168
      9  O3A      -11.6850   48.0770   26.3730 O.3   1001  DGT1001    -0.2700
     10  PA       -10.0900   48.3900   26.4680 P.3   1001  DGT1001     0.2189
     11  O1A       -9.4940   47.4560   27.5060 O.3   1001  DGT1001    -0.4371
     12  O2A       -9.8020   49.8560   26.6150 O.2   1001  DGT1001    -0.5170
     13  O5'       -9.6130   47.9080   25.0240 O.3   1001  DGT1001    -0.3112
     14  C5'       -9.5410   46.5380   24.6940 C.3   1001  DGT1001     0.1812
     15  C4'       -8.8750   46.3560   23.3310 C.3   1001  DGT1001     0.1772
     16  O4'       -9.7060   46.9200   22.2960 O.3   1001  DGT1001    -0.3347
     17  C3'       -7.5040   47.0140   23.1880 C.3   1001  DGT1001     0.1857
     18  O3'       -6.6360   46.1820   22.3690 O.3   1001  DGT1001    -0.2203
     19  C2'       -7.7810   48.2900   22.3960 C.3   1001  DGT1001     0.0865
     20  C1'       -9.0260   47.9990   21.5900 C.3   1001  DGT1001     0.1981
     21  N9        -9.9540   49.1550   21.5260 N.pl3 1001  DGT1001    -0.2374
     22  C8       -10.6100   49.6780   22.6050 C.3   1001  DGT1001     0.2245
     23  N7       -11.4180   50.7010   22.2390 N.2   1001  DGT1001    -0.2322
     24  C5       -11.3030   50.7990   20.9070 C.2   1001  DGT1001     0.2182
     25  C6       -11.8980   51.6850   19.9000 C.1   1001  DGT1001     0.2372
     26  O6       -12.6940   52.5630   20.2870 O.2   1001  DGT1001    -0.2069
     27  N1       -11.5550   51.5430   18.6220 N.2   1001  DGT1001    -0.2485
     28  C2       -10.6740   50.6020   18.2230 C.1   1001  DGT1001     0.2531
     29  N2       -10.4110   50.5360   16.8940 N.pl3 1001  DGT1001    -0.0226
     30  N3       -10.0570   49.7360   19.0910 N.2   1001  DGT1001    -0.3074
     31  C4       -10.3390   49.7980   20.4340 C.2   1001  DGT1001     0.2299
@<TRIPOS>BOND
     1    29    28    1
     2    28    27    2
     3    28    30    2
     4    27    25    2
     5    30    31    2
     6    25    26    2
     7    25    24    1
     8    31    24    1
     9    31    21    1
    10    24    23    2
    11    21    20    1
    12    21    22    1
    13    20    16    1
    14    20    19    1
    15    23    22    1
    16    16    15    1
    17    18    17    1
    18    19    17    1
    19    17    15    1
    20    15    14    1
    21    14    13    1
    22    13    10    1
    23     9    10    1
    24     9     6    1
    25     4     1    2
    26    10    12    2
    27    10    11    1
    28     5     1    1
    29     5     6    1
    30     1     2    1
    31     1     3    1
    32     8     6    2
    33     6     7    1
