@<TRIPOS>MOLECULE
3s89_COD_A_1.pdb
 44 46 0 0 0
SMALL
GASTEIGER

@<TRIPOS>ATOM
      1  N1         4.3180   55.1320   20.2660 N.2   437  COD437      0.0021
      2  C2         5.6280   55.3980   20.1320 C.3   437  COD437      0.5254
      3  N3         6.3500   55.9440   21.1050 N.2   437  COD437     -0.0055
      4  C4         5.7810   56.1560   22.3240 C.2   437  COD437      0.3518
      5  C5         4.3430   55.9190   22.5410 C.2   437  COD437      0.2526
      6  C6         3.5990   55.4010   21.3790 C.2   437  COD437      0.4393
      7  N7         2.2680   55.1250   21.4630 N.pl3 437  COD437      0.2180
      8  N8         4.0510   56.2780   23.8090 N.2   437  COD437     -0.2095
      9  C9         5.2270   56.7280   24.3490 C.3   437  COD437      0.3377
     10  N10        6.2510   56.6400   23.4680 N.pl3 437  COD437     -0.1439
     11  C11        7.6630   57.0650   23.6490 C.3   437  COD437      0.3186
     12  C12        7.8120   58.5370   23.2450 C.3   437  COD437      0.2570
     13  O13        9.1640   58.7320   22.8140 O.3   437  COD437     -0.2130
     14  C14        7.6650   59.3030   24.5430 C.3   437  COD437      0.2184
     15  O15        8.3580   60.5610   24.4920 O.3   437  COD437     -0.2174
     16  C16        8.2930   58.3100   25.5190 C.3   437  COD437      0.1821
     17  O17        7.9620   57.0070   25.0340 O.3   437  COD437     -0.3135
     18  C18        7.7040   58.3700   26.9130 C.3   437  COD437      0.1813
     19  O19        8.7060   57.9950   27.8530 O.3   437  COD437     -0.3112
     20  P20        8.4690   58.2130   29.4280 P.3   437  COD437      0.2189
     21  O21        9.5830   57.4690   30.1540 O.3   437  COD437     -0.4371
     22  O22        8.2400   59.6780   29.6930 O.2   437  COD437     -0.5170
     23  O23        7.0330   57.4950   29.6140 O.3   437  COD437     -0.2703
     24  P24        6.9760   55.8810   29.9040 P.3   437  COD437      0.2188
     25  O25        7.6810   55.0940   28.8210 O.2   437  COD437     -0.5170
     26  O26        7.3690   55.5840   31.3350 O.3   437  COD437     -0.4371
     27  O27        5.4100   55.5820   29.7200 O.3   437  COD437     -0.3138
     28  C28        4.7630   55.7890   28.4700 C.3   437  COD437      0.1519
     29  C29        3.2580   55.8570   28.7070 C.3   437  COD437      0.0645
     30  C30        2.9530   57.1480   29.4590 C.3   437  COD437      0.0056
     31  C31        2.5900   55.8630   27.3240 C.3   437  COD437      0.0056
     32  C32        2.7600   54.6990   29.5930 C.3   437  COD437      0.2312
     33  O33        1.3500   54.7940   29.8200 O.3   437  COD437     -0.2131
     34  C34        3.1740   53.2930   29.2140 C.2   437  COD437      0.2719
     35  O35        2.7380   52.7650   28.2050 O.2   437  COD437     -0.2706
     36  N36        4.0260   52.6920   30.0630 N.am  437  COD437     -0.2028
     37  C37        4.8230   51.5130   29.7480 C.3   437  COD437      0.1248
     38  C38        6.2930   51.6410   30.1350 C.3   437  COD437      0.1102
     39  C39        6.5370   51.0600   31.5090 C.2   437  COD437      0.2432
     40  O40        5.6900   51.1320   32.3860 O.2   437  COD437     -0.2733
     41  N41        7.7140   50.4750   31.6900 N.am  437  COD437     -0.2044
     42  C42        8.1280   49.9180   32.9650 C.3   437  COD437      0.1276
     43  C43        8.1050   48.3950   32.9760 C.3   437  COD437      0.0920
     44  S44        9.6490   47.8320   33.7330 S.3   437  COD437     -0.0802
@<TRIPOS>BOND
     1     2     1    1
     2     2     3    1
     3     1     6    2
     4     3     4    2
     5     6     7    1
     6     6     5    1
     7     4     5    1
     8     4    10    1
     9     5     8    2
    10    13    12    1
    11    12    11    1
    12    12    14    1
    13    10    11    1
    14    10     9    1
    15    11    17    1
    16     8     9    1
    17    15    14    1
    18    14    16    1
    19    17    16    1
    20    16    18    1
    21    18    19    1
    22    31    29    1
    23    19    20    1
    24    35    34    2
    25    28    29    1
    26    28    27    1
    27    29    30    1
    28    29    32    1
    29    25    24    2
    30    34    32    1
    31    34    36   am
    32    20    23    1
    33    20    22    2
    34    20    21    1
    35    32    33    1
    36    23    24    1
    37    27    24    1
    38    37    36    1
    39    37    38    1
    40    24    26    1
    41    38    39    1
    42    39    41   am
    43    39    40    2
    44    41    42    1
    45    42    43    1
    46    43    44    1
