@<TRIPOS>MOLECULE
3s8a_DGT_A_1.pdb
 31 33 0 0 0
SMALL
GASTEIGER

@<TRIPOS>ATOM
      1  PG       -12.4770   44.9500   26.6540 P.3   1001  DGT1001     0.5373
      2  O1G      -10.9430   45.1280   26.8910 O.3   1001  DGT1001    -0.1143
      3  O2G      -13.2150   44.6980   28.0100 O.3   1001  DGT1001    -0.1143
      4  O3G      -12.9420   44.1860   25.3610 O.2   1001  DGT1001    -0.2221
      5  O3B      -13.0180   46.4340   26.2220 O.3   1001  DGT1001    -0.2258
      6  PB       -12.3610   47.8420   26.7140 P.3   1001  DGT1001     0.2277
      7  O1B      -11.6240   47.8220   28.0660 O.3   1001  DGT1001    -0.4368
      8  O2B      -13.5210   48.8140   26.4910 O.2   1001  DGT1001    -0.5168
      9  O3A      -11.3160   47.9050   25.4660 O.3   1001  DGT1001    -0.2700
     10  PA        -9.7820   48.3370   25.7410 P.3   1001  DGT1001     0.2189
     11  O1A       -9.1810   47.4710   26.8660 O.3   1001  DGT1001    -0.4371
     12  O2A       -9.6920   49.8580   25.9740 O.2   1001  DGT1001    -0.5170
     13  O5'       -9.2670   48.0830   24.2020 O.3   1001  DGT1001    -0.3112
     14  C5'       -9.0870   46.6970   24.0130 C.3   1001  DGT1001     0.1812
     15  C4'       -8.6000   46.5080   22.6110 C.3   1001  DGT1001     0.1772
     16  O4'       -9.5450   47.1260   21.7430 O.3   1001  DGT1001    -0.3347
     17  C3'       -7.2750   47.2110   22.4030 C.3   1001  DGT1001     0.1857
     18  O3'       -6.2460   46.2300   22.1160 O.3   1001  DGT1001    -0.2203
     19  C2'       -7.5340   48.1520   21.2210 C.3   1001  DGT1001     0.0865
     20  C1'       -8.9240   47.8620   20.7040 C.3   1001  DGT1001     0.1981
     21  N9        -9.7940   49.0630   20.5570 N.pl3 1001  DGT1001    -0.2374
     22  C8       -10.5730   49.6180   21.5540 C.3   1001  DGT1001     0.2245
     23  N7       -11.2970   50.6870   21.0170 N.2   1001  DGT1001    -0.2322
     24  C5       -10.9840   50.8000   19.6860 C.2   1001  DGT1001     0.2182
     25  C6       -11.3680   51.7040   18.5620 C.1   1001  DGT1001     0.2372
     26  O6       -12.1830   52.6630   18.7370 O.2   1001  DGT1001    -0.2069
     27  N1       -10.8260   51.4680   17.3420 N.2   1001  DGT1001    -0.2485
     28  C2        -9.9350   50.4550   17.1110 C.1   1001  DGT1001     0.2531
     29  N2        -9.4320   50.2940   15.8190 N.pl3 1001  DGT1001    -0.0226
     30  N3        -9.5320   49.5960   18.1280 N.2   1001  DGT1001    -0.3074
     31  C4       -10.0070   49.7220   19.3900 C.2   1001  DGT1001     0.2299
@<TRIPOS>BOND
     1    29    28    1
     2    28    27    2
     3    28    30    2
     4    27    25    2
     5    30    31    2
     6    25    26    2
     7    25    24    1
     8    31    24    1
     9    31    21    1
    10    24    23    2
    11    21    20    1
    12    21    22    1
    13    20    19    1
    14    20    16    1
    15    23    22    1
    16    19    17    1
    17    16    15    1
    18    18    17    1
    19    17    15    1
    20    15    14    1
    21    14    13    1
    22    13    10    1
    23     4     1    2
    24     9    10    1
    25     9     6    1
    26    10    12    2
    27    10    11    1
    28     5     1    1
    29     5     6    1
    30     8     6    2
    31     1     2    1
    32     1     3    1
    33     6     7    1
