@<TRIPOS>MOLECULE
3s8b_CDP_A_1.pdb
 25 26 0 0 0
SMALL
GASTEIGER

@<TRIPOS>ATOM
      1  O3B       28.2350   53.3770   16.1110 O.3   889  CDP889     -0.1143
      2  PB        26.8400   52.9950   16.4690 P.3   889  CDP889      0.5373
      3  O1B       25.7740   53.4060   15.3010 O.2   889  CDP889     -0.2221
      4  O2B       26.3220   53.7210   17.8480 O.3   889  CDP889     -0.1143
      5  O3A       26.7110   51.3980   16.7940 O.3   889  CDP889     -0.2261
      6  PA        25.7360   50.3380   16.0380 P.3   889  CDP889      0.2231
      7  O1A       26.5010   49.0830   15.8990 O.3   889  CDP889     -0.4370
      8  O2A       25.0720   50.9360   14.8500 O.2   889  CDP889     -0.5169
      9  O5'       24.5930   50.0210   17.1420 O.3   889  CDP889     -0.3111
     10  C5'       24.2390   50.9920   18.1260 C.3   889  CDP889      0.1813
     11  C4'       22.7520   50.9410   18.4910 C.3   889  CDP889      0.1799
     12  O4'       22.1640   52.2330   18.1350 O.3   889  CDP889     -0.3320
     13  C3'       21.9610   49.8850   17.7190 C.3   889  CDP889      0.2158
     14  O3'       21.9980   48.6350   18.4070 O.3   889  CDP889     -0.2175
     15  C2'       20.5590   50.4920   17.7270 C.3   889  CDP889      0.2319
     16  O2'       19.8980   50.2880   18.9960 O.3   889  CDP889     -0.2157
     17  C1'       20.8610   51.9940   17.5230 C.3   889  CDP889      0.2400
     18  N1        20.9420   52.4260   16.0940 N.am  889  CDP889     -0.1778
     19  C2        20.1560   53.5060   15.6400 C.1   889  CDP889      0.2756
     20  O2        19.3980   54.0950   16.4150 O.2   889  CDP889     -0.1925
     21  N3        20.2440   53.9040   14.2860 N.2   889  CDP889     -0.3024
     22  C4        21.1100   53.2290   13.3990 C.2   889  CDP889      0.2346
     23  N4        21.1960   53.6000   12.1280 N.pl3 889  CDP889     -0.0921
     24  C5        21.8840   52.1640   13.8470 C.2   889  CDP889      0.0687
     25  C6        21.8060   51.7700   15.1800 C.2   889  CDP889      0.0836
@<TRIPOS>BOND
     1    23    22    1
     2    22    24    1
     3    22    21    2
     4    24    25    2
     5    21    19    2
     6     8     6    2
     7    25    18    1
     8     3     2    2
     9    19    18   am
    10    19    20    2
    11     7     6    1
    12     6     5    1
    13     6     9    1
    14    18    17    1
    15     1     2    1
    16     2     5    1
    17     2     4    1
    18     9    10    1
    19    17    15    1
    20    17    12    1
    21    13    15    1
    22    13    14    1
    23    13    11    1
    24    15    16    1
    25    10    11    1
    26    12    11    1
