@<TRIPOS>MOLECULE
3s8b_ANP_A_1.pdb
 31 33 0 0 0
SMALL
GASTEIGER

@<TRIPOS>ATOM
      1  PG       -12.2420   44.6310   26.0080 P.3   890  ANP890      0.4884
      2  O1G      -10.7460   44.8450   26.0140 O.3   890  ANP890     -0.1240
      3  O2G      -12.7080   43.6140   24.9920 O.2   890  ANP890     -0.2331
      4  O3G      -12.8260   44.5000   27.3970 O.3   890  ANP890     -0.1240
      5  PB       -12.4330   47.6060   26.1390 P.3   890  ANP890      0.4669
      6  O1B      -12.9040   47.6430   27.5700 O.3   890  ANP890     -0.1253
      7  O2B      -12.8530   48.6800   25.1720 O.2   890  ANP890     -0.2351
      8  N3B      -12.9100   46.1090   25.4020 N.3   890  ANP890     -0.0163
      9  PA        -9.8030   48.1670   25.1750 P.3   890  ANP890      0.2220
     10  O1A      -10.0920   49.5710   24.7130 O.2   890  ANP890     -0.5170
     11  O2A       -8.5020   47.8660   25.8480 O.3   890  ANP890     -0.4370
     12  O3A      -10.8410   47.6870   26.3080 O.3   890  ANP890     -0.2360
     13  O5'       -9.9730   47.0920   23.9890 O.3   890  ANP890     -0.3111
     14  C5'       -8.8150   46.5050   23.3930 C.3   890  ANP890      0.1813
     15  C4'       -8.6740   47.2430   22.0800 C.3   890  ANP890      0.1821
     16  O4'       -9.4540   46.5930   21.0850 O.3   890  ANP890     -0.3135
     17  C3'       -7.3240   47.4500   21.4130 C.3   890  ANP890      0.2184
     18  O3'       -6.5480   46.2460   21.3630 O.3   890  ANP890     -0.2174
     19  C2'       -7.7870   47.8090   20.0100 C.3   890  ANP890      0.2570
     20  O2'       -7.0710   47.0500   19.0320 O.3   890  ANP890     -0.2130
     21  C1'       -9.2510   47.3950   19.9320 C.3   890  ANP890      0.3186
     22  N9       -10.1610   48.5730   20.0370 N.pl3 890  ANP890     -0.1439
     23  C8       -10.9490   48.8790   21.0940 C.3   890  ANP890      0.3377
     24  N7       -11.6620   50.0090   20.8830 N.2   890  ANP890     -0.2095
     25  C5       -11.3390   50.4460   19.6550 C.2   890  ANP890      0.2526
     26  C6       -11.7240   51.5950   18.8000 C.2   890  ANP890      0.4393
     27  N6       -12.6280   52.5080   19.2360 N.pl3 890  ANP890      0.2180
     28  N1       -11.1440   51.6910   17.5770 N.2   890  ANP890      0.0021
     29  C2       -10.2450   50.7860   17.1370 C.3   890  ANP890      0.5254
     30  N3        -9.8460   49.7180   17.8530 N.2   890  ANP890     -0.0055
     31  C4       -10.3480   49.5010   19.0970 C.2   890  ANP890      0.3518
@<TRIPOS>BOND
     1    29    28    1
     2    29    30    1
     3    28    26    2
     4    30    31    2
     5    26    27    1
     6    26    25    1
     7    20    19    1
     8    31    25    1
     9    31    22    1
    10    25    24    2
    11    21    19    1
    12    21    22    1
    13    21    16    1
    14    19    17    1
    15    22    23    1
    16    24    23    1
    17    16    15    1
    18    18    17    1
    19    17    15    1
    20    15    14    1
    21    14    13    1
    22    13     9    1
    23    10     9    2
    24     3     1    2
    25     7     5    2
    26     9    11    1
    27     9    12    1
    28     8     1    1
    29     8     5    1
    30     1     2    1
    31     1     4    1
    32     5    12    1
    33     5     6    1
