@<TRIPOS>MOLECULE
3s8c_ANP_A_1.pdb
 31 33 0 0 0
SMALL
GASTEIGER

@<TRIPOS>ATOM
      1  PG       -12.2400   44.3590   25.6000 P.3   889  ANP889      0.4884
      2  O1G      -12.8490   43.4380   24.5700 O.2   889  ANP889     -0.2331
      3  O2G      -12.8040   44.2250   27.0060 O.3   889  ANP889     -0.1240
      4  O3G      -10.7190   44.4470   25.6530 O.3   889  ANP889     -0.1240
      5  PB       -12.2970   47.3700   25.8670 P.3   889  ANP889      0.4669
      6  O1B      -13.5570   48.1740   26.0120 O.2   889  ANP889     -0.2351
      7  O2B      -11.4860   47.0800   27.1240 O.3   889  ANP889     -0.1253
      8  N3B      -12.7780   45.9080   25.0270 N.3   889  ANP889     -0.0163
      9  PA        -9.7390   48.1100   24.8870 P.3   889  ANP889      0.2220
     10  O1A       -9.2990   47.0650   25.8950 O.3   889  ANP889     -0.4370
     11  O2A       -9.2940   49.5570   25.0300 O.2   889  ANP889     -0.5170
     12  O3A      -11.3450   48.1150   24.7690 O.3   889  ANP889     -0.2360
     13  O5'       -9.3510   47.5660   23.4390 O.3   889  ANP889     -0.3111
     14  C5'       -9.3080   46.1750   23.2710 C.3   889  ANP889      0.1813
     15  C4'       -8.5390   45.9420   21.9990 C.3   889  ANP889      0.1821
     16  O4'       -9.3980   46.1920   20.8970 O.3   889  ANP889     -0.3135
     17  C3'       -7.3120   46.8050   21.8380 C.3   889  ANP889      0.2184
     18  O3'       -6.2700   45.9730   21.2910 O.3   889  ANP889     -0.2174
     19  C2'       -7.7260   47.8050   20.8130 C.3   889  ANP889      0.2570
     20  O2'       -6.6850   47.9510   19.8730 O.3   889  ANP889     -0.2130
     21  C1'       -8.9120   47.2280   20.0740 C.3   889  ANP889      0.3186
     22  N9        -9.9290   48.3000   20.1250 N.pl3 889  ANP889     -0.1439
     23  C8       -10.7500   48.5990   21.1680 C.3   889  ANP889      0.3377
     24  N7       -11.5340   49.6580   20.8990 N.2   889  ANP889     -0.2095
     25  C5       -11.2100   50.0580   19.6650 C.2   889  ANP889      0.2526
     26  C6       -11.6630   51.1180   18.7420 C.2   889  ANP889      0.4393
     27  N6       -12.6420   51.9600   19.1390 N.pl3 889  ANP889      0.2180
     28  N1       -11.0890   51.2170   17.5250 N.2   889  ANP889      0.0021
     29  C2       -10.1330   50.3650   17.1440 C.3   889  ANP889      0.5254
     30  N3        -9.6730   49.3640   17.9030 N.2   889  ANP889     -0.0055
     31  C4       -10.1600   49.1720   19.1500 C.2   889  ANP889      0.3518
@<TRIPOS>BOND
     1    29    28    1
     2    29    30    1
     3    28    26    2
     4    30    31    2
     5    26    27    1
     6    26    25    1
     7    31    25    1
     8    31    22    1
     9    25    24    2
    10    20    19    1
    11    21    22    1
    12    21    19    1
    13    21    16    1
    14    22    23    1
    15    19    17    1
    16    16    15    1
    17    24    23    1
    18    18    17    1
    19    17    15    1
    20    15    14    1
    21    14    13    1
    22    13     9    1
    23     2     1    2
    24    12     9    1
    25    12     5    1
    26     9    11    2
    27     9    10    1
    28     8     1    1
    29     8     5    1
    30     1     4    1
    31     1     3    1
    32     5     6    2
    33     5     7    1
