@<TRIPOS>MOLECULE
3s8c_CDP_A_1.pdb
 25 26 0 0 0
SMALL
GASTEIGER

@<TRIPOS>ATOM
      1  O3B       27.4530   52.4390   17.5490 O.3   891  CDP891     -0.1143
      2  PB        27.3810   52.6370   16.0510 P.3   891  CDP891      0.5373
      3  O1B       28.8070   52.2130   15.3650 O.2   891  CDP891     -0.2221
      4  O2B       27.1230   54.1360   15.6010 O.3   891  CDP891     -0.1143
      5  O3A       26.1510   51.8660   15.2860 O.3   891  CDP891     -0.2261
      6  PA        25.8890   50.2370   15.4630 P.3   891  CDP891      0.2231
      7  O1A       26.7680   49.5780   16.4580 O.3   891  CDP891     -0.4370
      8  O2A       25.7920   49.6950   14.0890 O.2   891  CDP891     -0.5169
      9  O5'       24.4380   50.2260   16.0750 O.3   891  CDP891     -0.3111
     10  C5'       23.4000   51.0190   15.5120 C.3   891  CDP891      0.1813
     11  C4'       22.4090   51.2340   16.6500 C.3   891  CDP891      0.1799
     12  O4'       22.9460   52.1300   17.7100 O.3   891  CDP891     -0.3320
     13  C3'       21.1400   51.8770   16.1240 C.3   891  CDP891      0.2158
     14  O3'       20.1690   50.8500   15.9730 O.3   891  CDP891     -0.2175
     15  C2'       20.7310   52.6960   17.3160 C.3   891  CDP891      0.2319
     16  O2'       20.2290   51.7710   18.2890 O.3   891  CDP891     -0.2157
     17  C1'       22.0620   53.2800   17.7950 C.3   891  CDP891      0.2400
     18  N1        22.4450   54.5340   17.0260 N.am  891  CDP891     -0.1778
     19  C2        21.9640   55.7870   17.4800 C.1   891  CDP891      0.2756
     20  O2        21.2420   55.8500   18.4800 O.2   891  CDP891     -0.1925
     21  N3        22.3140   56.9610   16.7640 N.2   891  CDP891     -0.3024
     22  C4        23.1450   56.8900   15.6000 C.2   891  CDP891      0.2346
     23  N4        23.4680   58.0030   14.9400 N.pl3 891  CDP891     -0.0921
     24  C5        23.6330   55.6650   15.1540 C.2   891  CDP891      0.0687
     25  C6        23.2670   54.5130   15.8590 C.2   891  CDP891      0.0836
@<TRIPOS>BOND
     1     8     6    2
     2    23    22    1
     3    24    22    1
     4    24    25    2
     5     5     6    1
     6     5     2    1
     7     3     2    2
     8     6     9    1
     9     6     7    1
    10    10     9    1
    11    10    11    1
    12    22    21    2
    13     4     2    1
    14    25    18    1
    15    14    13    1
    16     2     1    1
    17    13    11    1
    18    13    15    1
    19    11    12    1
    20    21    19    2
    21    18    19   am
    22    18    17    1
    23    15    17    1
    24    15    16    1
    25    19    20    2
    26    12    17    1
