@<TRIPOS>MOLECULE
3s8f_HEM_A_1.pdb
 43 50 0 0 0
SMALL
GASTEIGER

@<TRIPOS>ATOM
      1  CHA       -1.1870   -3.8610   34.7050 C.2   800  HEM800      0.0000
      2  CHB        1.0730   -7.7580   36.8300 C.2   800  HEM800      0.0000
      3  CHC        5.4660   -5.7080   36.1880 C.2   800  HEM800      0.0000
      4  CHD        3.2700   -2.2920   33.4430 C.2   800  HEM800      0.0000
      5  C1A       -0.8450   -5.1970   35.3160 C.2   800  HEM800      0.0000
      6  C2A       -1.8010   -6.2940   35.3980 C.2   800  HEM800      0.0000
      7  C3A       -1.2010   -7.3010   36.0470 C.2   800  HEM800      0.0000
      8  C4A        0.1470   -6.9350   36.2410 C.2   800  HEM800      0.0000
      9  CMA       -1.7740   -8.6880   36.4110 C.3   800  HEM800      0.0000
     10  CAA       -3.2170   -6.2310   35.0040 C.3   800  HEM800      0.0000
     11  CBA       -4.0620   -5.5770   36.0540 C.3   800  HEM800      0.0000
     12  CGA       -5.3850   -5.0460   35.6580 C.2   800  HEM800      0.0000
     13  O1A       -6.3060   -4.7340   36.4620 O.co2 800  HEM800      0.0000
     14  O2A       -5.7620   -5.0000   34.2800 O.co2 800  HEM800      0.0000
     15  C1B        2.4860   -7.3740   36.8720 C.ar  800  HEM800      0.0000
     16  C2B        3.4200   -8.2000   37.4900 C.ar  800  HEM800      0.0000
     17  C3B        4.6550   -7.5910   37.4240 C.ar  800  HEM800      0.0000
     18  C4B        4.4050   -6.3990   36.5980 C.ar  800  HEM800      0.0000
     19  CMB        3.1340   -9.4510   38.3370 C.3   800  HEM800      0.0000
     20  CAB        5.9280   -7.8980   37.8100 C.3   800  HEM800      0.0000
     21  CBB        6.1960   -8.4500   39.1760 C.3   800  HEM800      0.0000
     22  C1C        5.2520   -4.6650   35.1230 C.2   800  HEM800      0.0000
     23  C2C        6.1400   -3.7540   34.8090 C.2   800  HEM800      0.0000
     24  C3C        5.5750   -2.9280   33.7950 C.2   800  HEM800      0.0000
     25  C4C        4.3060   -3.1120   34.0770 C.2   800  HEM800      0.0000
     26  CMC        7.6230   -3.9210   34.9700 C.3   800  HEM800      0.0000
     27  CAC        6.3250   -1.7880   33.1430 C.2   800  HEM800      0.0000
     28  CBC        7.6350   -1.5870   32.9290 C.2   800  HEM800      0.0000
     29  C1D        1.9600   -2.4710   33.6580 C.ar  800  HEM800      0.0000
     30  C2D        0.9420   -1.5050   33.2340 C.ar  800  HEM800      0.0000
     31  C3D       -0.2980   -1.9000   33.6120 C.ar  800  HEM800      0.0000
     32  C4D       -0.0930   -3.1810   34.2820 C.ar  800  HEM800      0.0000
     33  CMD        1.2530   -0.3830   32.2350 C.3   800  HEM800      0.0000
     34  CAD       -1.6580   -1.4520   33.1780 C.3   800  HEM800      0.0000
     35  CBD       -2.0490   -0.3000   34.1390 C.3   800  HEM800      0.0000
     36  CGD       -3.4230    0.1660   33.7830 C.2   800  HEM800      0.0000
     37  O1D       -3.9190    1.2320   34.1700 O.co2 800  HEM800      0.0000
     38  O2D       -4.2460   -0.5330   33.0330 O.co2 800  HEM800      0.0000
     39  NA         0.4910   -5.6790   35.6350 N.2   800  HEM800      0.0000
     40  NB         3.1100   -6.2990   36.3710 N.ar  800  HEM800      0.0000
     41  NC         3.9500   -4.2580   34.8740 N.2   800  HEM800      0.0000
     42  ND         1.2270   -3.3930   34.2810 N.ar  800  HEM800      0.0000
     43 FE          2.1890   -4.8630   35.2990 Fe    800  HEM800      0.0000
@<TRIPOS>BOND
     1    33    30    1
     2    28    27    2
     3    38    36   ar
     4    27    24    1
     5    34    31    1
     6    34    35    1
     7    30    31   ar
     8    30    29   ar
     9     4    29    2
    10     4    25    1
    11    31    32   ar
    12    29    42   ar
    13    36    35    1
    14    36    37   ar
    15    24    25    1
    16    24    23    2
    17    25    41    2
    18    14    12   ar
    19    42    32   ar
    20    42    43    1
    21    32     1    2
    22     1     5    1
    23    23    26    1
    24    23    22    1
    25    41    22    1
    26    41    43    1
    27    10     6    1
    28    10    11    1
    29    22     3    2
    30    43    39    1
    31    43    40    1
    32     5     6    1
    33     5    39    2
    34     6     7    2
    35    39     8    1
    36    12    11    1
    37    12    13   ar
    38     7     8    1
    39     7     9    1
    40     3    18    1
    41     8     2    2
    42    40    18   ar
    43    40    15   ar
    44    18    17   ar
    45     2    15    1
    46    15    16   ar
    47    17    16   ar
    48    17    20    1
    49    16    19    1
    50    20    21    1
