@<TRIPOS>MOLECULE
3s8g_HEM_A_1.pdb
 43 50 0 0 0
SMALL
GASTEIGER

@<TRIPOS>ATOM
      1  CHA       -0.6910   -3.9880   34.8470 C.2   800  HEM800      0.0000
      2  CHB        1.5070   -7.9050   36.8890 C.2   800  HEM800      0.0000
      3  CHC        5.8810   -5.7580   36.2120 C.2   800  HEM800      0.0000
      4  CHD        3.5710   -2.2430   33.5970 C.2   800  HEM800      0.0000
      5  C1A       -0.4220   -5.3720   35.3600 C.2   800  HEM800      0.0000
      6  C2A       -1.4400   -6.4460   35.5320 C.2   800  HEM800      0.0000
      7  C3A       -0.8220   -7.4820   36.1220 C.2   800  HEM800      0.0000
      8  C4A        0.5930   -7.1190   36.3260 C.2   800  HEM800      0.0000
      9  CMA       -1.4450   -8.8180   36.5280 C.3   800  HEM800      0.0000
     10  CAA       -2.8830   -6.3070   35.0950 C.3   800  HEM800      0.0000
     11  CBA       -3.7410   -5.6630   36.1900 C.3   800  HEM800      0.0000
     12  CGA       -5.0920   -5.1590   35.7430 C.2   800  HEM800      0.0000
     13  O1A       -5.9510   -4.8470   36.5680 O.co2 800  HEM800      0.0000
     14  O2A       -5.3920   -5.0990   34.4310 O.co2 800  HEM800      0.0000
     15  C1B        2.9370   -7.5600   36.9990 C.ar  800  HEM800      0.0000
     16  C2B        3.8410   -8.3720   37.6180 C.ar  800  HEM800      0.0000
     17  C3B        5.1420   -7.6730   37.5450 C.ar  800  HEM800      0.0000
     18  C4B        4.8790   -6.4820   36.7140 C.ar  800  HEM800      0.0000
     19  CMB        3.5940   -9.6540   38.4100 C.3   800  HEM800      0.0000
     20  CAB        6.3600   -8.0950   37.9110 C.3   800  HEM800      0.0000
     21  CBB        6.7230   -8.3630   39.3500 C.3   800  HEM800      0.0000
     22  C1C        5.6490   -4.6300   35.3050 C.2   800  HEM800      0.0000
     23  C2C        6.6060   -3.8090   34.8810 C.2   800  HEM800      0.0000
     24  C3C        5.9310   -2.9280   33.9270 C.2   800  HEM800      0.0000
     25  C4C        4.6200   -3.1330   34.1260 C.2   800  HEM800      0.0000
     26  CMC        8.1160   -4.0060   35.0220 C.3   800  HEM800      0.0000
     27  CAC        6.5800   -1.7630   33.2600 C.2   800  HEM800      0.0000
     28  CBC        7.8830   -1.6740   33.0530 C.2   800  HEM800      0.0000
     29  C1D        2.2740   -2.4180   33.8150 C.ar  800  HEM800      0.0000
     30  C2D        1.2430   -1.5240   33.2410 C.ar  800  HEM800      0.0000
     31  C3D        0.0580   -1.9640   33.6670 C.ar  800  HEM800      0.0000
     32  C4D        0.3130   -3.2190   34.4380 C.ar  800  HEM800      0.0000
     33  CMD        1.5060   -0.2640   32.4350 C.3   800  HEM800      0.0000
     34  CAD       -1.3230   -1.4510   33.3020 C.3   800  HEM800      0.0000
     35  CBD       -1.7840   -0.3830   34.3170 C.3   800  HEM800      0.0000
     36  CGD       -3.1530    0.1480   33.9330 C.2   800  HEM800      0.0000
     37  O1D       -3.5640    1.2270   34.3450 O.co2 800  HEM800      0.0000
     38  O2D       -3.9560   -0.5350   33.1220 O.co2 800  HEM800      0.0000
     39  NA         0.8510   -5.9570   35.7140 N.2   800  HEM800      0.0000
     40  NB         3.5630   -6.4930   36.4390 N.ar  800  HEM800      0.0000
     41  NC         4.4240   -4.2680   34.8580 N.2   800  HEM800      0.0000
     42  ND         1.6330   -3.4500   34.4070 N.ar  800  HEM800      0.0000
     43 FE          2.5830   -4.9580   35.3860 Fe    800  HEM800      0.0000
@<TRIPOS>BOND
     1    33    30    1
     2    28    27    2
     3    38    36   ar
     4    30    31   ar
     5    30    29   ar
     6    27    24    1
     7    34    31    1
     8    34    35    1
     9     4    29    2
    10     4    25    1
    11    31    32   ar
    12    29    42   ar
    13    24    25    1
    14    24    23    2
    15    36    35    1
    16    36    37   ar
    17    25    41    2
    18    42    32   ar
    19    42    43    1
    20    14    12   ar
    21    32     1    2
    22     1     5    1
    23    41    22    1
    24    41    43    1
    25    23    26    1
    26    23    22    1
    27    10     6    1
    28    10    11    1
    29    22     3    2
    30     5     6    1
    31     5    39    2
    32    43    39    1
    33    43    40    1
    34     6     7    2
    35    39     8    1
    36    12    11    1
    37    12    13   ar
    38     7     8    1
    39     7     9    1
    40     3    18    1
    41     8     2    2
    42    40    18   ar
    43    40    15   ar
    44    18    17   ar
    45     2    15    1
    46    15    16   ar
    47    17    16   ar
    48    17    20    1
    49    16    19    1
    50    20    21    1
