@<TRIPOS>MOLECULE
3s8l_III_B_1.pdb
 35 36 0 0 0
SMALL
GASTEIGER

@<TRIPOS>ATOM
      1  C         -7.6070    7.3370    2.5360 C.2     1  ACE1        0.2423
      2  O         -8.7420    6.8410    2.6570 O.2     1  ACE1       -0.2733
      3  CH3       -6.5650    7.1910    3.6600 C.3     1  ACE1        0.0964
      4  N         -7.1510    8.0100    1.4600 N.am    2  TYR2       -0.1974
      5  CA        -8.0370    8.2760    0.2830 C.3     2  TYR2        0.1770
      6  C         -7.3120    7.8820   -1.0000 C.2     2  TYR2        0.2619
      7  O         -6.1290    8.1460   -1.1450 O.2     2  TYR2       -0.2715
      8  CB        -8.4450    9.7580    0.2140 C.3     2  TYR2        0.0574
      9  CG        -9.1420   10.1790    1.5110 C.ar    2  TYR2       -0.0198
     10  CD1       -8.3550   10.6420    2.5650 C.ar    2  TYR2       -0.0011
     11  CD2      -10.5280   10.0390    1.6510 C.ar    2  TYR2       -0.0011
     12  CE1       -8.9970   10.9830    3.7390 C.ar    2  TYR2        0.0371
     13  CE2      -11.1700   10.3790    2.8710 C.ar    2  TYR2        0.0371
     14  CZ       -10.3600   10.8280    3.9110 C.ar    2  TYR2        0.1490
     15  OH       -10.8110   11.2050    5.1700 O.3     2  TYR2       -0.3998
     16  P        -12.3330   10.8370    5.6620 P.3     2  TYR2        0.5887
     17  O1P      -13.2890   11.9080    5.1990 O.2     2  TYR2       -0.2114
     18  O2P      -12.6420    9.4970    5.3780 O.3     2  TYR2       -0.1039
     19  O3P      -12.1400   10.9950    7.2600 O.3     2  TYR2       -0.1039
     20  N         -8.0460    7.2350   -1.8660 N.am    3  1923       -0.1985
     21  O         -5.7230    7.7910   -4.6080 O.2     3  1923       -0.2716
     22  CA        -7.4410    6.7530   -3.1180 C.3     3  1923        0.1483
     23  C         -6.7550    7.9220   -3.9050 C.2     3  1923        0.2595
     24  CB1       -6.6510    5.4500   -2.9350 C.3     3  1923        0.0290
     25  CG        -7.8830    4.6110   -3.3570 C.3     3  1923        0.0044
     26  CB2       -8.5110    5.9290   -3.8700 C.3     3  1923        0.0290
     27  N         -7.3880    9.0610   -3.8110 N.am    4  ASN4       -0.1958
     28  CA        -6.9860   10.2650   -4.5460 C.3     4  ASN4        0.1836
     29  C         -6.2890   11.2690   -3.6320 C.2     4  ASN4        0.2811
     30  O         -6.1690   12.4150   -3.9950 O.2     4  ASN4       -0.2698
     31  CB        -8.2030   10.8520   -5.3480 C.3     4  ASN4        0.1196
     32  CG        -9.3510   11.4230   -4.4330 C.2     4  ASN4        0.2630
     33  OD1       -9.3730   11.1260   -3.2220 O.2     4  ASN4       -0.2716
     34  ND2      -10.1680   12.3260   -4.9860 N.am    4  ASN4       -0.0877
     35  N         -5.7300   10.8580   -2.4750 N.am    5  NH25       -0.0863
@<TRIPOS>BOND
     1    31    28    1
     2    31    32    1
     3    34    32   am
     4    21    23    2
     5    28    27    1
     6    28    29    1
     7    32    33    2
     8    30    29    2
     9    23    27   am
    10    23    22    1
    11    26    25    1
    12    26    22    1
    13    29    35   am
    14    25    24    1
    15    22    24    1
    16    22    20    1
    17    20     6   am
    18     7     6    2
    19     6     5    1
    20     8     5    1
    21     8     9    1
    22     5     4    1
    23     4     1   am
    24     9    11   ar
    25     9    10   ar
    26    11    13   ar
    27     1     2    2
    28     1     3    1
    29    10    12   ar
    30    13    14   ar
    31    12    14   ar
    32    14    15    1
    33    15    16    1
    34    17    16    2
    35    18    16    1
    36    16    19    1
