@<TRIPOS>MOLECULE
3s8n_III_B_1.pdb
 36 37 0 0 0
SMALL
GASTEIGER

@<TRIPOS>ATOM
      1  C         13.5750  -13.4820   -2.4780 C.2     1  ACE1        0.2423
      2  O         14.1520  -12.4440   -2.5420 O.2     1  ACE1       -0.2733
      3  CH3       13.6740  -14.4380   -3.6430 C.3     1  ACE1        0.0964
      4  N         12.8460  -13.8740   -1.4730 N.am    2  TYR2       -0.1974
      5  CA        12.5980  -13.0660   -0.2860 C.3     2  TYR2        0.1770
      6  C         13.0050  -13.8270    0.9800 C.2     2  TYR2        0.2619
      7  O         12.7200  -14.9840    1.1130 O.2     2  TYR2       -0.2715
      8  CB        11.1220  -12.6330   -0.2360 C.3     2  TYR2        0.0574
      9  CG        10.7350  -11.9260   -1.5360 C.ar    2  TYR2       -0.0198
     10  CD1       10.2110  -12.6470   -2.5570 C.ar    2  TYR2       -0.0011
     11  CD2       10.9480  -10.5820   -1.7180 C.ar    2  TYR2       -0.0011
     12  CE1        9.9040  -12.0240   -3.7290 C.ar    2  TYR2        0.0371
     13  CE2       10.6380   -9.9570   -2.9070 C.ar    2  TYR2        0.0371
     14  CZ        10.1030  -10.6800   -3.9420 C.ar    2  TYR2        0.1490
     15  OH         9.7720  -10.2140   -5.1470 O.3     2  TYR2       -0.3998
     16  P         10.0380   -8.7800   -5.6800 P.3     2  TYR2        0.5887
     17  O1P        9.9320   -8.8510   -7.1590 O.2     2  TYR2       -0.2114
     18  O2P        9.1630   -7.8290   -5.1110 O.3     2  TYR2       -0.1039
     19  O3P       11.3010   -8.4300   -5.4670 O.3     2  TYR2       -0.1039
     20  N         13.6240  -13.1080    1.8650 N.am    3  AC53       -0.1985
     21  O         13.1110  -15.2570    4.5910 O.2     3  AC53       -0.2716
     22  CA        14.0740  -13.6300    3.1210 C.3     3  AC53        0.1483
     23  C         12.9220  -14.2810    3.9090 C.2     3  AC53        0.2595
     24  CB1       15.1980  -14.5840    2.8170 C.3     3  AC53        0.0289
     25  CB2       14.7130  -12.5460    3.9480 C.3     3  AC53        0.0289
     26  CG1       16.5040  -13.8670    3.0440 C.3     3  AC53        0.0023
     27  CG2       16.1270  -12.4510    3.4070 C.3     3  AC53        0.0023
     28  N         11.7760  -13.6670    3.8390 N.am    4  ASN4       -0.1958
     29  CA        10.5980  -14.0970    4.5610 C.3     4  ASN4        0.1836
     30  C          9.5770  -14.7550    3.6550 C.2     4  ASN4        0.2811
     31  O          8.4370  -14.8490    3.9870 O.2     4  ASN4       -0.2698
     32  CB         9.9970  -12.9130    5.3010 C.3     4  ASN4        0.1196
     33  CG         9.4270  -11.8020    4.4420 C.2     4  ASN4        0.2630
     34  OD1        9.8850  -11.6950    3.2360 O.2     4  ASN4       -0.2716
     35  ND2        8.5750  -10.9940    4.9850 N.am    4  ASN4       -0.0877
     36  N         10.0370  -15.2740    2.5670 N.am    5  NH25       -0.0863
@<TRIPOS>BOND
     1    17    16    2
     2    16    19    1
     3    16    15    1
     4    16    18    1
     5    15    14    1
     6    14    12   ar
     7    14    13   ar
     8    12    10   ar
     9     3     1    1
    10    13    11   ar
    11    10     9   ar
    12     2     1    2
    13     1     4   am
    14    11     9   ar
    15     9     8    1
    16     4     5    1
    17     5     8    1
    18     5     6    1
    19     6     7    2
    20     6    20   am
    21    20    22    1
    22    36    30   am
    23    24    26    1
    24    24    22    1
    25    26    27    1
    26    22    23    1
    27    22    25    1
    28    34    33    2
    29    27    25    1
    30    30    31    2
    31    30    29    1
    32    28    23   am
    33    28    29    1
    34    23    21    2
    35    33    35   am
    36    33    32    1
    37    29    32    1
