@<TRIPOS>MOLECULE
3s8o_III_B_1.pdb
 37 38 0 0 0
SMALL
GASTEIGER

@<TRIPOS>ATOM
      1  C          7.4160   -7.5660   -2.4020 C.2     1  ACE1        0.2423
      2  O          6.9010   -8.6890   -2.4580 O.2     1  ACE1       -0.2733
      3  CH3        7.2330   -6.5760   -3.5800 C.3     1  ACE1        0.0964
      4  N          8.1320   -7.1190   -1.3550 N.am    2  TYR2       -0.1974
      5  CA         8.3970   -8.0000   -0.1860 C.3     2  TYR2        0.1770
      6  C          8.0150   -7.2410    1.0770 C.2     2  TYR2        0.2619
      7  O          8.3060   -6.0610    1.2030 O.2     2  TYR2       -0.2715
      8  CB         9.9270   -8.3530   -0.1620 C.3     2  TYR2        0.0574
      9  CG        10.3270   -9.0670   -1.4490 C.ar    2  TYR2       -0.0198
     10  CD1       10.8070   -8.3000   -2.4940 C.ar    2  TYR2       -0.0011
     11  CD2       10.1600  -10.4760   -1.5620 C.ar    2  TYR2       -0.0011
     12  CE1       11.0870   -8.9320   -3.7060 C.ar    2  TYR2        0.0371
     13  CE2       10.4280  -11.1040   -2.8020 C.ar    2  TYR2        0.0371
     14  CZ        10.9170  -10.3270   -3.8420 C.ar    2  TYR2        0.1490
     15  OH        11.2410  -10.7770   -5.1030 O.3     2  TYR2       -0.3998
     16  P         10.9680  -12.3220   -5.6220 P.3     2  TYR2        0.5887
     17  O1P       11.1130  -12.1800   -7.1870 O.2     2  TYR2       -0.2114
     18  O2P       11.9680  -13.2660   -5.1080 O.3     2  TYR2       -0.1039
     19  O3P        9.5570  -12.6400   -5.3080 O.3     2  TYR2       -0.1039
     20  O          7.9630   -5.6880    4.7190 O.2     3  ALA3       -0.2716
     21  CD         3.9170   -8.1020    3.2880 C.3     3  ALA3        0.0001
     22  CG         5.0380   -9.1390    3.5640 C.3     3  ALA3        0.0022
     23  CE         4.4520   -7.0180    2.3330 C.3     3  ALA3        0.0022
     24  CB         6.3240   -8.4900    4.1740 C.3     3  ALA3        0.0289
     25  CH         5.7540   -6.3990    2.8750 C.3     3  ALA3        0.0289
     26  N          7.3640   -7.9490    1.9910 N.am    3  ALA3       -0.1985
     27  C          8.0740   -6.7300    4.0040 C.2     3  ALA3        0.2595
     28  CA         6.8760   -7.3850    3.2550 C.3     3  ALA3        0.1483
     29  N          9.2200   -7.4430    3.9360 N.am    4  ASN4       -0.1958
     30  CA        10.4330   -7.0030    4.6420 C.3     4  ASN4        0.1836
     31  C         11.4430   -6.3300    3.7180 C.2     4  ASN4        0.2811
     32  O         12.6020   -6.2120    4.0730 O.2     4  ASN4       -0.2698
     33  CB        11.0340   -8.2050    5.4240 C.3     4  ASN4        0.1196
     34  CG        11.5690   -9.3040    4.4620 C.2     4  ASN4        0.2630
     35  OD1       11.1160   -9.3850    3.2960 O.2     4  ASN4       -0.2716
     36  ND2       12.5000  -10.0960    4.9730 N.am    4  ASN4       -0.0877
     37  N         10.9980   -5.7770    2.6080 N.am    5  NH25       -0.0863
@<TRIPOS>BOND
     1    17    16    2
     2    16    19    1
     3    16    18    1
     4    16    15    1
     5    15    14    1
     6    14    12   ar
     7    14    13   ar
     8    12    10   ar
     9     3     1    1
    10    13    11   ar
    11    10     9   ar
    12     2     1    2
    13     1     4   am
    14    11     9   ar
    15     9     8    1
    16     4     5    1
    17     5     8    1
    18     5     6    1
    19     6     7    2
    20     6    26   am
    21    26    28    1
    22    23    25    1
    23    23    21    1
    24    37    31   am
    25    25    28    1
    26    28    27    1
    27    28    24    1
    28    21    22    1
    29    35    34    2
    30    22    24    1
    31    31    32    2
    32    31    30    1
    33    29    27   am
    34    29    30    1
    35    27    20    2
    36    34    36   am
    37    34    33    1
    38    30    33    1
