@<TRIPOS>MOLECULE
3s8p_SAM_A_1.pdb
 27 29 0 0 0
SMALL
GASTEIGER

@<TRIPOS>ATOM
      1  N         12.4070   49.5080    5.5110 N.3   500  SAM500     -0.1208
      2  CA        11.0520   49.3270    4.9640 C.3   500  SAM500      0.1952
      3  C         10.0540   50.2100    5.6370 C.2   500  SAM500      0.3819
      4  O         10.2970   50.6130    6.8020 O.co2 500  SAM500     -0.2441
      5  OXT        9.0020   50.4770    5.0040 O.co2 500  SAM500     -0.2441
      6  CB        10.5680   47.8780    5.1270 C.3   500  SAM500      0.0414
      7  CG        10.7470   47.0830    3.8220 C.3   500  SAM500      0.0503
      8  SD         9.7450   47.4900    2.5310 S.3   500  SAM500     -0.1761
      9  CE         8.9900   46.0890    2.0480 C.3   500  SAM500      0.0590
     10  C5'       10.7900   47.7980    1.2460 C.3   500  SAM500      0.0806
     11  C4'       11.4030   49.2060    1.2380 C.3   500  SAM500      0.1622
     12  O4'       12.5400   49.2890    2.1050 O.3   500  SAM500     -0.3153
     13  C3'       11.9610   49.6040   -0.1260 C.3   500  SAM500      0.2168
     14  O3'       10.9810   50.2310   -0.9500 O.3   500  SAM500     -0.2175
     15  C2'       13.1190   50.5230    0.2060 C.3   500  SAM500      0.2569
     16  O2'       12.6600   51.8160    0.5940 O.3   500  SAM500     -0.2130
     17  C1'       13.6560   49.8970    1.4770 C.3   500  SAM500      0.3185
     18  N9        14.6370   48.8230    1.1770 N.pl3 500  SAM500     -0.1439
     19  C8        14.6370   47.6020    1.7640 C.3   500  SAM500      0.3377
     20  N7        15.6550   46.8340    1.3080 N.2   500  SAM500     -0.2095
     21  C5        16.3240   47.5850    0.4150 C.2   500  SAM500      0.2526
     22  C6        17.4990   47.3690   -0.4510 C.2   500  SAM500      0.4393
     23  N6        18.1430   46.1840   -0.4010 N.pl3 500  SAM500      0.2180
     24  N1        17.8970   48.3780   -1.2560 N.2   500  SAM500      0.0021
     25  C2        17.2500   49.5730   -1.2810 C.3   500  SAM500      0.5254
     26  N3        16.1570   49.8380   -0.5350 N.2   500  SAM500     -0.0055
     27  C4        15.6530   48.8910    0.3210 C.2   500  SAM500      0.3518
@<TRIPOS>BOND
     1    25    24    1
     2    25    26    1
     3    24    22    2
     4    14    13    1
     5    26    27    2
     6    22    23    1
     7    22    21    1
     8    13    15    1
     9    13    11    1
    10    15    16    1
    11    15    17    1
    12    27    21    1
    13    27    18    1
    14    21    20    2
    15    18    17    1
    16    18    19    1
    17    11    10    1
    18    11    12    1
    19    10     8    1
    20    20    19    1
    21    17    12    1
    22     9     8    1
    23     8     7    1
    24     7     6    1
    25     2     6    1
    26     2     1    1
    27     2     3    1
    28     5     3   ar
    29     3     4   ar
