@<TRIPOS>MOLECULE
3s8x_E59_A_1.pdb
 22 23 0 0 0
SMALL
GASTEIGER

@<TRIPOS>ATOM
      1  N1        -1.9890    7.7790   12.5390 N.2   266  E59266     -0.2640
      2  C2        -2.0060    9.0790   12.2850 C.1   266  E59266      0.1980
      3  C3        -1.4590    9.9610   13.2080 C.3   266  E59266      0.1905
      4  C4        -0.9080    9.4310   14.3640 C.2   266  E59266      0.1178
      5  N5        -0.9190    8.1210   14.5580 N.2   266  E59266     -0.3420
      6  C6        -1.4520    7.3040   13.6570 C.1   266  E59266      0.1788
      7  O7        -2.5130    9.4880   11.2380 O.2   266  E59266     -0.2130
      8  C8        -0.2950   10.3210   15.4000 C.3   266  E59266      0.0637
      9  S9        -1.4550    5.5430   13.9410 S.3   266  E59266     -0.0091
     10  C10       -2.7780    5.1190   12.8240 C.3   266  E59266      0.1432
     11  C11       -4.1380    5.3830   13.3650 C.2   266  E59266      0.1850
     12  O12       -4.8120    6.3920   13.1130 O.2   266  E59266     -0.2904
     13  C13       -4.6130    4.3130   14.2310 C.ar  266  E59266      0.0357
     14  C14       -5.9040    4.2950   14.7230 C.ar  266  E59266      0.0042
     15  C15       -6.3010    3.2410   15.5320 C.ar  266  E59266      0.0201
     16  C16       -5.4070    2.2240   15.8380 C.ar  266  E59266      0.1250
     17  C17       -4.1150    2.2360   15.3410 C.ar  266  E59266      0.0201
     18  C18       -3.7180    3.2900   14.5340 C.ar  266  E59266      0.0042
     19  S19       -5.9240    0.8880   16.8540 S.O2  266  E59266      0.0935
     20  O20       -7.4380    0.8780   16.8250 O.2   266  E59266     -0.1503
     21  O21       -5.3880    1.0580   18.2580 O.2   266  E59266     -0.1503
     22  N22       -5.3310   -0.5770   16.1390 N.3   266  E59266      0.0392
@<TRIPOS>BOND
     1     7     2    2
     2     2     1    2
     3     2     3    1
     4     1     6    2
     5    10    11    1
     6    10     9    1
     7    12    11    2
     8     3     4    1
     9    11    13    1
    10     6     9    1
    11     6     5    2
    12    13    18   ar
    13    13    14   ar
    14     4     5    2
    15     4     8    1
    16    18    17   ar
    17    14    15   ar
    18    17    16   ar
    19    15    16   ar
    20    16    19    1
    21    22    19    1
    22    20    19    2
    23    19    21    2
