@<TRIPOS>MOLECULE
3s91_JQ1_A_1.pdb
 31 34 0 0 0
SMALL
GASTEIGER

@<TRIPOS>ATOM
      1  CAA       40.5050    6.6470   10.7280 C.3     1  JQ11        0.0742
      2  CAB       41.7600    9.4450   15.8480 C.3     1  JQ11        0.0379
      3  CAC       43.4890    7.0980   16.6580 C.3     1  JQ11        0.0313
      4  CAD       48.6580    4.1470   14.8570 C.3     1  JQ11        0.0437
      5  CAE       49.9250    6.1300   14.1100 C.3     1  JQ11        0.0437
      6  CAF       47.9590    6.5040   15.6250 C.3     1  JQ11        0.0437
      7  OAG       48.5830    4.5290   12.0380 O.2     1  JQ11       -0.2500
      8 CLAH       42.3730    1.0480   18.0630 Cl      1  JQ11       -0.0822
      9  CAI       42.0820    3.3050   16.6400 C.ar    1  JQ11        0.0114
     10  CAJ       44.2080    2.1860   16.3300 C.ar    1  JQ11        0.0114
     11  CAK       42.5120    4.2820   15.7300 C.ar    1  JQ11        0.0023
     12  CAL       44.6130    3.1550   15.4170 C.ar    1  JQ11        0.0023
     13  CAM       46.4420    5.2880   11.2460 C.3     1  JQ11        0.1415
     14  NAN       44.9600    4.9050   13.2170 N.2     1  JQ11       -0.2640
     15  NAO       42.6010    5.5790    9.6530 N.ar    1  JQ11       -0.1332
     16  NAP       43.8000    5.3600    9.9250 N.ar    1  JQ11       -0.1313
     17  OAQ       47.5390    5.8850   13.4450 O.3     1  JQ11       -0.4557
     18  SAR       41.9220    8.3560   13.1810 S.2     1  JQ11       -0.0740
     19  CAS       47.6040    5.1990   12.2770 C.2     1  JQ11        0.3192
     20  CAT       44.1070    5.2410   14.1790 C.2     1  JQ11        0.0780
     21  CAU       42.9440    2.2620   16.9480 C.ar    1  JQ11        0.0577
     22  CAV       41.9880    6.2020   10.6760 C.ar    1  JQ11        0.1477
     23  CAW       43.7680    4.2360   15.1180 C.ar    1  JQ11        0.0174
     24  CAX       42.2650    8.4020   14.8490 C.ar    1  JQ11        0.0051
     25  CAY       43.0440    7.2870   15.1930 C.ar    1  JQ11       -0.0165
     26  CAZ       43.9980    5.8440   11.1710 C.ar    1  JQ11        0.1702
     27  CBA       43.3360    6.4370   14.0840 C.ar    1  JQ11        0.0359
     28  CBB       42.7730    6.9100   12.8660 C.ar    1  JQ11        0.0970
     29  CBC       45.2710    5.8070   12.0280 C.3     1  JQ11        0.1727
     30  NBD       42.8870    6.3510   11.6470 N.ar    1  JQ11       -0.2736
     31  CBE       48.5350    5.6410   14.5030 C.3     1  JQ11        0.1363
@<TRIPOS>BOND
     1    15    16   ar
     2    15    22   ar
     3    16    26   ar
     4    22     1    1
     5    22    30   ar
     6    26    30   ar
     7    26    29    1
     8    13    29    1
     9    13    19    1
    10    30    28    1
    11    29    14    1
    12     7    19    2
    13    19    17    1
    14    28    18   ar
    15    28    27   ar
    16    18    24   ar
    17    14    20    2
    18    17    31    1
    19    27    20    1
    20    27    25   ar
    21     5    31    1
    22    20    23    1
    23    31     4    1
    24    31     6    1
    25    24    25   ar
    26    24     2    1
    27    23    12   ar
    28    23    11   ar
    29    25     3    1
    30    12    10   ar
    31    11     9   ar
    32    10    21   ar
    33     9    21   ar
    34    21     8    1
