@<TRIPOS>MOLECULE
3s92_JQ1_A_1.pdb
 31 34 0 0 0
SMALL
GASTEIGER

@<TRIPOS>ATOM
      1  CAA       26.8730   22.2720   15.1900 C.3     1  JQ11        0.0742
      2  CAB       29.4940   20.8890   20.4170 C.3     1  JQ11        0.0379
      3  CAC       32.0350   22.5470   19.5360 C.3     1  JQ11        0.0313
      4  CAD       33.1200   26.9430   19.5850 C.3     1  JQ11        0.0437
      5  CAE       33.7860   28.5030   17.8040 C.3     1  JQ11        0.0437
      6  CAF       32.2990   29.2910   19.6800 C.3     1  JQ11        0.0437
      7  OAG       31.1860   29.3950   16.7740 O.2     1  JQ11       -0.2500
      8 CLAH       36.7790   21.9320   15.9170 Cl      1  JQ11       -0.0822
      9  CAI       34.9970   23.9560   16.3020 C.ar    1  JQ11        0.0114
     10  CAJ       34.0890   21.7410   16.3170 C.ar    1  JQ11        0.0114
     11  CAK       33.7410   24.4700   16.4980 C.ar    1  JQ11        0.0023
     12  CAL       32.8400   22.2860   16.5330 C.ar    1  JQ11        0.0023
     13  CAM       29.7900   27.5120   16.3490 C.3     1  JQ11        0.1415
     14  NAN       31.0430   25.3890   16.3930 N.2     1  JQ11       -0.2640
     15  NAO       27.1720   24.6830   14.5810 N.ar    1  JQ11       -0.1332
     16  NAP       27.9000   25.6680   14.9820 N.ar    1  JQ11       -0.1313
     17  OAQ       31.4470   27.6520   18.0910 O.3     1  JQ11       -0.4557
     18  SAR       28.1970   22.1460   18.2470 S.2     1  JQ11       -0.0740
     19  CAS       30.9170   28.2310   17.0290 C.2     1  JQ11        0.3192
     20  CAT       31.3450   24.2020   16.9270 C.2     1  JQ11        0.0780
     21  CAU       35.1670   22.5840   16.1790 C.ar    1  JQ11        0.0577
     22  CAV       27.4750   23.6230   15.3250 C.ar    1  JQ11        0.1477
     23  CAW       32.6340   23.6650   16.6510 C.ar    1  JQ11        0.0174
     24  CAX       29.5650   21.8560   19.2220 C.ar    1  JQ11        0.0051
     25  CAY       30.6850   22.5870   18.7850 C.ar    1  JQ11       -0.0165
     26  CAZ       28.6710   25.2330   15.9790 C.ar    1  JQ11        0.1702
     27  CBA       30.3970   23.3770   17.6360 C.ar    1  JQ11        0.0359
     28  CBB       29.0400   23.2440   17.2010 C.ar    1  JQ11        0.0970
     29  CBC       29.7560   26.0420   16.7140 C.3     1  JQ11        0.1727
     30  NBD       28.4320   23.9420   16.1930 N.ar    1  JQ11       -0.2736
     31  CBE       32.6500   28.1510   18.7510 C.3     1  JQ11        0.1363
@<TRIPOS>BOND
     1    15    16   ar
     2    15    22   ar
     3    16    26   ar
     4     1    22    1
     5    22    30   ar
     6     8    21    1
     7    26    30   ar
     8    26    29    1
     9    21     9   ar
    10    21    10   ar
    11    30    28    1
    12     9    11   ar
    13    10    12   ar
    14    13    29    1
    15    13    19    1
    16    14    29    1
    17    14    20    2
    18    11    23   ar
    19    12    23   ar
    20    23    20    1
    21     7    19    2
    22    20    27    1
    23    19    17    1
    24    28    27   ar
    25    28    18   ar
    26    27    25   ar
    27     5    31    1
    28    17    31    1
    29    18    24   ar
    30    31     4    1
    31    31     6    1
    32    25    24   ar
    33    25     3    1
    34    24     2    1
