@<TRIPOS>MOLECULE
3s99_ADE_A_1.pdb
 10 11 0 0 0
SMALL
GASTEIGER

@<TRIPOS>ATOM
      1  N9        32.5450   20.2690   37.9110 N.2   400  ADE400     -0.1914
      2  C8        33.9210   20.2700   37.9800 C.3   400  ADE400      0.2618
      3  N7        34.4130   20.4610   39.1800 N.2   400  ADE400     -0.2267
      4  C5        33.2280   20.5820   39.9150 C.2   400  ADE400      0.2303
      5  C6        33.0670   20.7920   41.2570 C.2   400  ADE400      0.4393
      6  N6        34.1840   20.9330   41.9860 N.pl3 400  ADE400      0.2185
      7  N1        31.7880   20.8780   41.7480 N.2   400  ADE400     -0.0265
      8  C2        30.7550   20.7330   40.9000 C.3   400  ADE400      0.4008
      9  N3        30.7880   20.5230   39.5840 N.2   400  ADE400     -0.1640
     10  C4        32.0770   20.4620   39.1760 C.1   400  ADE400      0.0579
@<TRIPOS>BOND
     1     1     2    1
     2     1    10    2
     3     2     3    1
     4    10     9    2
     5    10     4    1
     6     3     4    2
     7     9     8    1
     8     4     5    1
     9     8     7    1
    10     5     7    2
    11     5     6    1
