@<TRIPOS>MOLECULE
3s9c_BGC_A_1.pdb
 12 12 0 0 0
SMALL
GASTEIGER

@<TRIPOS>ATOM
      1  C2         4.9690   33.1200  -20.2970 C.3   701  BGC701      0.2434
      2  C3         6.4480   33.0470  -19.9180 C.3   701  BGC701      0.2199
      3  C4         6.7270   33.8800  -18.6600 C.3   701  BGC701      0.2144
      4  C5         5.7730   33.4490  -17.5250 C.3   701  BGC701      0.1836
      5  C6         5.8970   34.3160  -16.2770 C.3   701  BGC701      0.2142
      6  C1         4.1150   32.6890  -19.0940 C.3   701  BGC701      0.3024
      7  O1         2.7670   32.8110  -19.3980 O.3   701  BGC701     -0.1869
      8  O2         4.7180   32.2630  -21.4020 O.3   701  BGC701     -0.2148
      9  O3         7.2450   33.5180  -20.9910 O.3   701  BGC701     -0.2174
     10  O4         8.0800   33.6900  -18.2620 O.3   701  BGC701     -0.2176
     11  O5         4.3930   33.5330  -17.9660 O.3   701  BGC701     -0.3236
     12  O6         5.5330   35.6700  -16.5360 O.3   701  BGC701     -0.2176
@<TRIPOS>BOND
     1     8     1    1
     2     9     2    1
     3     1     2    1
     4     1     6    1
     5     2     3    1
     6     7     6    1
     7     6    11    1
     8     3    10    1
     9     3     4    1
    10    11     4    1
    11     4     5    1
    12    12     5    1
