@<TRIPOS>MOLECULE
3s9c_GLC_A_1.pdb
 12 12 0 0 0
SMALL
GASTEIGER

@<TRIPOS>ATOM
      1  C1        21.9320   42.9470    1.8830 C.3   702  GLC702      0.3024
      2  C2        21.3520   42.6440    3.2740 C.3   702  GLC702      0.2434
      3  C3        21.8710   41.2810    3.7490 C.3   702  GLC702      0.2199
      4  C4        21.4740   40.2090    2.7170 C.3   702  GLC702      0.2144
      5  C5        22.0290   40.6030    1.3420 C.3   702  GLC702      0.1836
      6  C6        21.6060   39.6440    0.2440 C.3   702  GLC702      0.2142
      7  O1        23.3150   42.9670    1.9460 O.3   702  GLC702     -0.1869
      8  O2        21.7300   43.6640    4.1930 O.3   702  GLC702     -0.2148
      9  O3        21.3220   40.9720    5.0250 O.3   702  GLC702     -0.2174
     10  O4        21.9920   38.9380    3.0960 O.3   702  GLC702     -0.2176
     11  O5        21.5540   41.9170    0.9600 O.3   702  GLC702     -0.3236
     12  O6        22.1660   40.0250   -1.0060 O.3   702  GLC702     -0.2176
@<TRIPOS>BOND
     1    12     6    1
     2     6     5    1
     3    11     5    1
     4    11     1    1
     5     5     4    1
     6     1     7    1
     7     1     2    1
     8     4    10    1
     9     4     3    1
    10     2     3    1
    11     2     8    1
    12     3     9    1
