@<TRIPOS>MOLECULE
3s9e_GLU_A_1.pdb
 18 17 0 0 0
SMALL
GASTEIGER

@<TRIPOS>ATOM
      1  N          3.9400  -30.6510  -13.6450 N.4   259  GLU259      0.3871
      2  CA         2.6280  -30.0360  -13.8630 C.3   259  GLU259      0.0210
      3  C          1.4910  -31.0510  -13.6840 C.2   259  GLU259      0.3420
      4  O          0.4080  -30.6790  -13.9560 O.co2 259  GLU259     -0.2483
      5  CB         2.5640  -29.3970  -15.2520 C.3   259  GLU259     -0.0458
      6  CG         3.3010  -28.0850  -15.3550 C.3   259  GLU259      0.0482
      7  CD         2.5560  -26.9120  -14.7310 C.2   259  GLU259      0.3560
      8  OE1        1.4270  -27.0550  -14.4350 O.co2 259  GLU259     -0.2464
      9  OE2        3.2040  -25.9190  -14.5450 O.co2 259  GLU259     -0.2464
     10  OXT        1.7420  -32.1450  -13.2210 O.co2 259  GLU259     -0.2483
     11  H2         4.1460  -30.6220  -12.7560 H     259  GLU259     -0.0889
     12  H          4.8670  -30.4570  -14.0010 H     259  GLU259     -0.0889
     13  HA         2.5100  -29.3330  -13.1960 H     259  GLU259      0.0198
     14  HB2        1.6270  -29.2460  -15.4820 H     259  GLU259      0.0259
     15  HB3        2.9470  -30.0210  -15.8990 H     259  GLU259      0.0259
     16  HG2        4.1640  -28.1770  -14.9100 H     259  GLU259      0.0378
     17  HG3        3.4560  -27.8880  -16.2990 H     259  GLU259      0.0378
     18  HAB        3.9190  -31.5200  -13.9240 H     259  GLU259     -0.0889
@<TRIPOS>BOND
     1    17     6    1
     2    15     5    1
     3    14     5    1
     4     6     5    1
     5     6    16    1
     6     6     7    1
     7     5     2    1
     8     7     9   ar
     9     7     8   ar
    10    12     1    1
    11     4     3   ar
    12    18     1    1
    13     2     3    1
    14     2     1    1
    15     2    13    1
    16     3    10   ar
    17     1    11    1
