@<TRIPOS>MOLECULE
3s9h_DUP_A_1.pdb
 28 29 0 0 0
SMALL
GASTEIGER

@<TRIPOS>ATOM
      1  O4         0.6760   52.0270   23.2580 O.2   904  DUP904     -0.2085
      2  C4         0.5700   52.5830   22.0230 C.1   904  DUP904      0.2182
      3  C5         0.1490   51.8300   20.9270 C.2   904  DUP904      0.1242
      4  C6         0.0550   52.4310   19.6730 C.2   904  DUP904      0.0928
      5  N3         0.8800   53.8820   21.8740 N.2   904  DUP904     -0.2452
      6  C2         0.7820   54.4620   20.6650 C.1   904  DUP904      0.2844
      7  O2         1.0980   55.7680   20.5150 O.2   904  DUP904     -0.1918
      8  N1         0.3570   53.7290   19.5460 N.am  904  DUP904     -0.1790
      9  C1'        0.2980   54.4250   18.2570 C.3   904  DUP904      0.2090
     10  C2'        1.7190   54.4450   17.7090 C.3   904  DUP904      0.0874
     11  C3'        1.7470   53.2620   16.7650 C.3   904  DUP904      0.1857
     12  O3'        2.7600   53.4370   15.7660 O.3   904  DUP904     -0.2203
     13  O4'       -0.4870   53.6870   17.3240 O.3   904  DUP904     -0.3339
     14  C4'        0.3240   53.2590   16.2260 C.3   904  DUP904      0.1774
     15  C5'       -0.1700   51.8950   15.7830 C.3   904  DUP904      0.1848
     16  O5'        0.0280   50.9720   16.8460 O.3   904  DUP904     -0.2775
     17  PA         0.1260   49.4060   16.5090 P.3   904  DUP904      0.4623
     18  O1A       -0.5060   48.6370   17.6420 O.3   904  DUP904     -0.1255
     19  O2A       -0.4410   49.2290   15.1200 O.2   904  DUP904     -0.2354
     20  N3A        1.7440   49.0570   16.4660 N.3   904  DUP904     -0.0179
     21  PB         2.7760   49.8440   15.4160 P.3   904  DUP904      0.4700
     22  O1B        3.5530   50.8980   16.1850 O.3   904  DUP904     -0.1252
     23  O2B        2.0710   50.2710   14.1470 O.2   904  DUP904     -0.2350
     24  O3B        3.8540   48.7220   15.0290 O.3   904  DUP904     -0.1901
     25  PG         3.4140   47.3200   14.3910 P.3   904  DUP904      0.5397
     26  O2G        4.5430   47.1220   13.4070 O.2   904  DUP904     -0.2220
     27  O1G        2.0490   47.5720   13.7880 O.3   904  DUP904     -0.1143
     28  O3G        3.3720   46.3320   15.5310 O.3   904  DUP904     -0.1143
@<TRIPOS>BOND
     1    26    25    2
     2    27    25    1
     3    23    21    2
     4    25    24    1
     5    25    28    1
     6    24    21    1
     7    19    17    2
     8    21    22    1
     9    21    20    1
    10    12    11    1
    11    15    14    1
    12    15    16    1
    13    14    11    1
    14    14    13    1
    15    20    17    1
    16    17    16    1
    17    17    18    1
    18    11    10    1
    19    13     9    1
    20    10     9    1
    21     9     8    1
    22     8     4    1
    23     8     6   am
    24     4     3    2
    25     7     6    2
    26     6     5    2
    27     3     2    1
    28     5     2    2
    29     2     1    2
