@<TRIPOS>MOLECULE
3s9i_XI7_A_1.pdb
 14 14 0 0 0
SMALL
GASTEIGER

@<TRIPOS>ATOM
      1  O8        37.0450   81.5890   62.2570 O.3   742  XI7742     -0.2104
      2  C9        36.7450   81.1160   63.5100 C.3   742  XI7742      0.2616
      3  C10       37.8880   80.7300   64.4290 C.2   742  XI7742      0.3951
      4  O11       39.0230   80.7700   63.8900 O.co2 742  XI7742     -0.2428
      5  O10       37.7370   80.5010   65.6470 O.co2 742  XI7742     -0.2428
      6  C8        35.7410   79.8490   63.6930 C.3   742  XI7742      0.1138
      7  C7        35.1210   79.2050   62.5670 C.2   742  XI7742      0.1762
      8  C1        34.1810   78.0320   62.6080 C.ar  742  XI7742      0.0348
      9  C6        33.0560   78.0140   61.6160 C.ar  742  XI7742      0.0028
     10  C5        32.1300   76.8370   61.6410 C.ar  742  XI7742      0.0001
     11  C4        32.3260   75.7430   62.5840 C.ar  742  XI7742      0.0000
     12  C3        33.3810   75.7330   63.5500 C.ar  742  XI7742      0.0001
     13  C2        34.3660   76.9210   63.5720 C.ar  742  XI7742      0.0028
     14  O14       35.3860   79.6470   61.4580 O.2   742  XI7742     -0.2912
@<TRIPOS>BOND
     1    14     7    2
     2     9    10   ar
     3     9     8   ar
     4    10    11   ar
     5     1     2    1
     6     7     8    1
     7     7     6    1
     8    11    12   ar
     9     8    13   ar
    10     2     6    1
    11     2     3    1
    12    12    13   ar
    13     4     3   ar
    14     3     5   ar
