@<TRIPOS>MOLECULE
3s9s_M0T_A_1.pdb
 31 34 0 0 0
SMALL
GASTEIGER

@<TRIPOS>ATOM
      1  N1       -21.2880   19.6220  -13.0890 N.am    1  M0T1       -0.1992
      2  N3       -23.5070   16.4740   -9.6660 N.2     1  M0T1       -0.3899
      3  C4       -22.6570   19.7000  -13.2750 C.2     1  M0T1        0.2614
      4  C5       -23.4410   19.1440  -12.1670 C.2     1  M0T1        0.0398
      5  C6       -24.6290   19.7500  -11.8360 C.3     1  M0T1        0.0584
      6  C7       -25.4110   19.2800  -10.8040 C.2     1  M0T1       -0.0038
      7  C8       -24.9150   18.1740  -10.1550 C.2     1  M0T1        0.0794
      8  C17      -24.7530   15.4440   -7.7570 C.3     1  M0T1        0.0840
      9  C20      -20.2250   21.7700  -13.5740 C.ar    1  M0T1       -0.0026
     10  C21      -20.9810   22.3190  -12.5630 C.ar    1  M0T1       -0.0026
     11  C22      -20.8310   23.6390  -12.1970 C.ar    1  M0T1       -0.0003
     12  C24      -19.1510   23.8910  -13.8670 C.ar    1  M0T1       -0.0003
     13  C1       -19.2210   18.2970  -14.7270 C.3     1  M0T1        0.0022
     14  O1       -23.2330   20.1850  -14.2380 O.2     1  M0T1       -0.2687
     15  C2       -19.0590   19.6520  -14.0770 C.3     1  M0T1        0.0262
     16  N2       -25.3780   17.4400   -9.1060 N.pl3   1  M0T1       -0.2599
     17  C3       -20.3970   20.3420  -13.9750 C.3     1  M0T1        0.1178
     18  C9       -26.6100   17.6350   -8.3950 C.3     1  M0T1        0.1242
     19  C16      -24.5170   16.4270   -8.8370 C.2     1  M0T1        0.1645
     20  C18      -23.7360   17.5490  -10.4810 C.2     1  M0T1        0.1457
     21  C19      -22.9550   18.0300  -11.5170 C.2     1  M0T1        0.0340
     22  C23      -19.9150   24.4270  -12.8560 C.ar    1  M0T1       -0.0000
     23  C25      -19.3070   22.5690  -14.2220 C.ar    1  M0T1       -0.0026
     24  C10      -26.6300   18.8860   -7.5920 C.ar    1  M0T1       -0.0011
     25  C13      -26.7390   21.2140   -6.1300 C.ar    1  M0T1        0.0682
     26  C15      -25.7090   19.1030   -6.5960 C.ar    1  M0T1        0.0096
     27 CL1       -26.7770   22.6660   -5.1960 Cl      1  M0T1       -0.0814
     28 CL2       -24.6390   20.5790   -4.6300 Cl      1  M0T1       -0.0814
     29  C11      -27.6000   19.8280   -7.8460 C.ar    1  M0T1       -0.0017
     30  C12      -27.6630   20.9940   -7.1220 C.ar    1  M0T1        0.0120
     31  C14      -25.7750   20.2720   -5.8770 C.ar    1  M0T1        0.0679
@<TRIPOS>BOND
     1    13    15    1
     2    14     3    2
     3    23    12   ar
     4    23     9   ar
     5    15    17    1
     6    17     9    1
     7    17     1    1
     8    12    22   ar
     9     9    10   ar
    10     3     1   am
    11     3     4    1
    12    22    11   ar
    13    10    11   ar
    14     4     5    1
    15     4    21    2
    16     5     6    1
    17    21    20    1
    18     6     7    2
    19    20     7    1
    20    20     2    2
    21     7    16    1
    22     2    19    2
    23    16    19    1
    24    16    18    1
    25    19     8    1
    26    18    24    1
    27    29    24   ar
    28    29    30   ar
    29    24    26   ar
    30    30    25   ar
    31    26    31   ar
    32    25    31   ar
    33    25    27    1
    34    31    28    1
