@<TRIPOS>MOLECULE
3s9t_E49_A_1.pdb
 23 24 0 0 0
SMALL
GASTEIGER

@<TRIPOS>ATOM
      1  N1        -0.7740    4.7670   10.2150 N.2   266  E49266     -0.3434
      2  C2        -1.5170    4.1500   11.1130 C.1   266  E49266      0.1673
      3  N3        -1.8890    4.7280   12.2580 N.2   266  E49266     -0.3434
      4  C4        -1.6290    6.0190   12.5240 C.2   266  E49266      0.1067
      5  C5        -0.8950    6.7040   11.5700 C.3   266  E49266      0.1106
      6  C6        -0.4370    6.0630   10.4120 C.2   266  E49266      0.1067
      7  S7        -1.9310    2.5010   10.7070 S.3   266  E49266     -0.0099
      8  C8        -3.0800    1.9640   12.0540 C.3   266  E49266      0.1432
      9  C9        -4.2280    2.9630   12.2230 C.2   266  E49266      0.1847
     10  O10       -4.6780    3.6070   11.2120 O.2   266  E49266     -0.2904
     11  C11       -2.1700    6.7310   13.7960 C.3   266  E49266      0.0629
     12  C12        0.4060    6.7420    9.4440 C.3   266  E49266      0.0629
     13  C13       -4.8440    3.1210   13.5860 C.2   266  E49266      0.0325
     14  C14       -5.0590    2.0850   14.4560 C.2   266  E49266      0.0194
     15  C15       -5.6360    2.2760   15.6370 C.2   266  E49266      0.1179
     16  C16       -6.1970    3.4920   15.9250 C.3   266  E49266      0.1252
     17  C17       -5.9330    4.6360   15.1350 C.3   266  E49266      0.0482
     18  C18       -5.4280    4.3590   13.9570 C.2   266  E49266     -0.0216
     19  S19       -5.9540    0.8350   16.6890 S.O2  266  E49266      0.0909
     20  O20       -7.4580    0.7840   16.7220 O.2   266  E49266     -0.1506
     21  O22       -5.3560    1.0460   17.9540 O.2   266  E49266     -0.1506
     22  N23       -5.2970   -0.5060   16.0580 N.3   266  E49266      0.0389
     23 CL21       -6.8490    3.8180   17.4580 Cl    266  E49266     -0.1084
@<TRIPOS>BOND
     1    12     6    1
     2     1     6    2
     3     1     2    2
     4     6     5    1
     5     7     2    1
     6     7     8    1
     7     2     3    2
     8    10     9    2
     9     5     4    1
    10     8     9    1
    11     9    13    1
    12     3     4    2
    13     4    11    1
    14    13    18    2
    15    13    14    1
    16    18    17    1
    17    14    15    2
    18    17    16    1
    19    15    16    1
    20    15    19    1
    21    16    23    1
    22    22    19    1
    23    19    20    2
    24    19    21    2
