@<TRIPOS>MOLECULE
3s9u_NAP_A_1.pdb
 48 52 0 0 0
SMALL
GASTEIGER

@<TRIPOS>ATOM
      1  PA        -4.0170    4.7390   -3.3070 P.3   207  NAP207      0.2189
      2  O1A       -3.4110    5.4000   -4.4830 O.2   207  NAP207     -0.5170
      3  O2A       -4.7740    5.6500   -2.4260 O.3   207  NAP207     -0.4371
      4  O5B       -4.9640    3.5420   -3.7940 O.3   207  NAP207     -0.3112
      5  C5B       -4.4380    2.4810   -4.5580 C.3   207  NAP207      0.1813
      6  C4B       -5.6390    1.7910   -5.1680 C.3   207  NAP207      0.1820
      7  O4B       -6.1710    2.5990   -6.2020 O.3   207  NAP207     -0.3136
      8  C3B       -5.3190    0.4630   -5.8280 C.3   207  NAP207      0.2157
      9  O3B       -5.2260   -0.5860   -4.8940 O.3   207  NAP207     -0.2175
     10  C2B       -6.5170    0.3380   -6.7500 C.3   207  NAP207      0.2314
     11  O2B       -7.6770   -0.0390   -6.0380 O.3   207  NAP207     -0.2630
     12  C1B       -6.7270    1.7760   -7.2060 C.3   207  NAP207      0.3158
     13  N9A       -6.0260    1.9800   -8.4860 N.pl3 207  NAP207     -0.1439
     14  C8A       -4.6780    2.1650   -8.6710 C.3   207  NAP207      0.3377
     15  N7A       -4.4410    2.2970   -9.9940 N.2   207  NAP207     -0.2095
     16  C5A       -5.6170    2.1920  -10.6510 C.2   207  NAP207      0.2526
     17  C6A       -5.9420    2.2550  -12.0000 C.2   207  NAP207      0.4393
     18  N6A       -4.9860    2.4480  -12.9040 N.pl3 207  NAP207      0.2180
     19  N1A       -7.2600    2.1180  -12.3890 N.2   207  NAP207      0.0021
     20  C2A       -8.2500    1.9220  -11.4450 C.3   207  NAP207      0.5254
     21  N3A       -7.9210    1.8630  -10.1040 N.2   207  NAP207     -0.0055
     22  C4A       -6.6240    1.9960   -9.7160 C.2   207  NAP207      0.3518
     23  O3        -2.9010    3.9210   -2.4830 O.3   207  NAP207     -0.2703
     24  PN        -1.3680    4.1910   -2.1110 P.3   207  NAP207      0.2189
     25  O1N       -0.9360    3.0210   -1.3070 O.3   207  NAP207     -0.4371
     26  O2N       -0.5980    4.5830   -3.3130 O.2   207  NAP207     -0.5170
     27  O5D       -1.4640    5.4830   -1.1490 O.3   207  NAP207     -0.3112
     28  C5D       -2.0350    5.3600    0.1370 C.3   207  NAP207      0.1813
     29  C4D       -1.1080    5.9920    1.1710 C.3   207  NAP207      0.1799
     30  O4D       -0.9200    7.3720    0.8920 O.3   207  NAP207     -0.3327
     31  C3D       -1.6870    5.9070    2.5740 C.3   207  NAP207      0.2158
     32  O3D       -0.6130    5.6820    3.4590 O.3   207  NAP207     -0.2175
     33  C2D       -2.2680    7.2870    2.8120 C.3   207  NAP207      0.2309
     34  O2D       -2.2740    7.6350    4.1800 O.3   207  NAP207     -0.2158
     35  C1D       -1.3100    8.1560    2.0090 C.3   207  NAP207      0.2263
     36  N1N       -1.8680    9.4390    1.5530 N.pl3 207  NAP207     -0.2787
     37  C2N       -1.2110   10.5810    1.9240 C.3   207  NAP207      0.1244
     38  C3N       -1.6660   11.8270    1.5150 C.2   207  NAP207      0.0544
     39  C7N       -0.8780   13.0550    1.8720 C.2   207  NAP207      0.2818
     40  O7N       -1.1490   14.2440    1.1890 O.2   207  NAP207     -0.2670
     41  N7N        0.0610   12.9970    2.8220 N.am  207  NAP207     -0.0839
     42  C4N       -2.7970   11.9090    0.6990 C.2   207  NAP207      0.0033
     43  C5N       -3.4510   10.7360    0.3190 C.2   207  NAP207      0.0157
     44  C6N       -2.9780    9.4980    0.7460 C.2   207  NAP207      0.0633
     45  P2B       -8.1900   -1.5600   -5.9480 P.3   207  NAP207      0.5328
     46  O1X       -8.3470   -2.0910   -7.3580 O.2   207  NAP207     -0.2224
     47  O2X       -7.1450   -2.3600   -5.2030 O.3   207  NAP207     -0.1145
     48  O3X       -9.4840   -1.5970   -5.1880 O.3   207  NAP207     -0.1145
@<TRIPOS>BOND
     1    18    17    1
     2    19    17    2
     3    19    20    1
     4    17    16    1
     5    20    21    1
     6    16    15    2
     7    16    22    1
     8    21    22    2
     9    15    14    1
    10    22    13    1
    11    14    13    1
    12    13    12    1
    13    46    45    2
    14    12    10    1
    15    12     7    1
    16    10    11    1
    17    10     8    1
    18     7     6    1
    19    11    45    1
    20    45    47    1
    21    45    48    1
    22     8     6    1
    23     8     9    1
    24     6     5    1
    25     5     4    1
    26     2     1    2
    27     4     1    1
    28    26    24    2
    29     1    23    1
    30     1     3    1
    31    23    24    1
    32    24    25    1
    33    24    27    1
    34    27    28    1
    35    28    29    1
    36    43    42    1
    37    43    44    2
    38    42    38    2
    39    44    36    1
    40    30    29    1
    41    30    35    1
    42    29    31    1
    43    40    39    2
    44    38    39    1
    45    38    37    1
    46    36    37    1
    47    36    35    1
    48    39    41   am
    49    35    33    1
    50    31    33    1
    51    31    32    1
    52    33    34    1
