@<TRIPOS>MOLECULE
3s9u_5DR_A_1.pdb
 27 29 0 0 0
SMALL
GASTEIGER

@<TRIPOS>ATOM
      1  N1        -3.4110   16.8910    1.1450 N.2   163  5DR163     -0.3105
      2  C2        -2.9040   17.6480    2.1320 C.1   163  5DR163      0.2419
      3  N3        -2.9180   17.2200    3.4070 N.2   163  5DR163     -0.3332
      4  C4        -3.4330   16.0330    3.7440 C.2   163  5DR163      0.1203
      5  C5        -3.9660   15.2330    2.7290 C.3   163  5DR163      0.1831
      6  C6        -3.9470   15.6880    1.4140 C.2   163  5DR163      0.2282
      7  CAA       -4.6540   16.1460    5.9410 C.3   163  5DR163      0.0076
      8  CAB       -5.7810    9.0450    7.2640 C.3   163  5DR163      0.2525
      9  NAC       -2.3770   18.8360    1.8540 N.pl3 163  5DR163     -0.0232
     10  NAD       -4.4480   14.9490    0.4230 N.pl3 163  5DR163     -0.0955
     11  CAE       -4.9890   12.8870    3.3930 C.1   163  5DR163     -0.0853
     12  CAF       -4.5210   13.9640    3.0820 C.1   163  5DR163     -0.0760
     13  CAG      -11.2780   16.1610    5.7030 C.ar  163  5DR163      0.0000
     14  CAH      -10.2640   16.0730    4.7460 C.ar  163  5DR163     -0.0000
     15  CAI      -11.3470   15.2120    6.7220 C.ar  163  5DR163     -0.0000
     16  CAJ       -9.3280   15.0370    4.8150 C.ar  163  5DR163     -0.0000
     17  CAK      -10.4080   14.1800    6.7800 C.ar  163  5DR163     -0.0000
     18  CAL       -8.4590   12.1570    6.9900 C.ar  163  5DR163      0.0031
     19  CAM       -7.5450   11.1070    7.0660 C.ar  163  5DR163      0.0366
     20  CAN       -7.4960   12.8220    4.8880 C.ar  163  5DR163     -0.0003
     21  CAO       -3.3980   15.6410    5.2260 C.3   163  5DR163      0.0569
     22  CAP       -5.5530   11.5980    3.8050 C.3   163  5DR163      0.1053
     23  OAS       -5.6930    9.8890    6.1040 O.3   163  5DR163     -0.4717
     24  CAV       -9.3830   14.0790    5.8320 C.ar  163  5DR163     -0.0000
     25  CAW       -8.4470   13.0310    5.9000 C.ar  163  5DR163     -0.0001
     26  CAX       -6.5670   11.7710    4.9530 C.ar  163  5DR163      0.0248
     27  CAZ       -6.6020   10.9110    6.0520 C.ar  163  5DR163      0.1356
@<TRIPOS>BOND
     1    10     6    1
     2     1     6    2
     3     1     2    2
     4     6     5    1
     5     9     2    1
     6     2     3    2
     7     5    12    1
     8     5     4    1
     9    12    11    3
    10    11    22    1
    11     3     4    2
    12     4    21    1
    13    22    26    1
    14    14    16   ar
    15    14    13   ar
    16    16    24   ar
    17    20    26   ar
    18    20    25   ar
    19    26    27   ar
    20    21     7    1
    21    13    15   ar
    22    24    25    1
    23    24    17   ar
    24    25    18   ar
    25    27    23    1
    26    27    19   ar
    27    23     8    1
    28    15    17   ar
    29    18    19   ar
