@<TRIPOS>MOLECULE
3s9w_THP_A_1.pdb
 25 26 0 0 0
SMALL
GASTEIGER

@<TRIPOS>ATOM
      1  P2        17.9530   10.7490    4.6600 P.3   151  THP151      0.5327
      2  O4P       16.8070   11.5280    5.2310 O.3   151  THP151     -0.1145
      3  O5P       17.9940    9.2430    5.1090 O.2   151  THP151     -0.2224
      4  O6P       19.2280   11.3880    5.2250 O.3   151  THP151     -0.1145
      5  P1        21.1990   14.1620    0.7990 P.3   151  THP151      0.5326
      6  O1P       21.8470   13.1410    1.6800 O.3   151  THP151     -0.1145
      7  O2P       22.2760   14.7740   -0.1580 O.2   151  THP151     -0.2224
      8  O3P       20.5190   15.1780    1.7890 O.3   151  THP151     -0.1145
      9  O5'       17.9200   10.7820    3.0290 O.3   151  THP151     -0.2675
     10  C5'       17.9240   12.0690    2.4760 C.3   151  THP151      0.1857
     11  C4'       18.9170   11.9800    1.2970 C.3   151  THP151      0.1748
     12  O4'       18.5000   10.8670    0.5270 O.3   151  THP151     -0.3340
     13  C3'       18.8410   13.2070    0.3380 C.3   151  THP151      0.1600
     14  O3'       20.1490   13.4980   -0.2370 O.3   151  THP151     -0.2700
     15  C2'       17.9430   12.6610   -0.7940 C.3   151  THP151      0.0847
     16  C1'       18.2420   11.1330   -0.8530 C.3   151  THP151      0.2089
     17  N1        16.9460   10.5180   -1.2560 N.am  151  THP151     -0.1794
     18  C2        16.6600   10.3350   -2.5650 C.1   151  THP151      0.2844
     19  O2        17.5050   10.6510   -3.3960 O.2   151  THP151     -0.1918
     20  N3        15.5030    9.7950   -3.0060 N.2   151  THP151     -0.2455
     21  C4        14.5080    9.5460   -2.0820 C.1   151  THP151      0.2134
     22  O4        13.4270    9.1570   -2.4830 O.2   151  THP151     -0.2088
     23  C5        14.7580    9.7370   -0.7040 C.2   151  THP151      0.0891
     24  C5M       13.7390    9.3800    0.3590 C.3   151  THP151      0.0462
     25  C6        15.9920   10.2460   -0.3040 C.2   151  THP151      0.0877
@<TRIPOS>BOND
     1    19    18    2
     2    20    18    2
     3    20    21    2
     4    18    17   am
     5    22    21    2
     6    21    23    1
     7    17    16    1
     8    17    25    1
     9    16    15    1
    10    16    12    1
    11    15    13    1
    12    23    25    2
    13    23    24    1
    14    14    13    1
    15    14     5    1
    16     7     5    2
    17    13    11    1
    18    12    11    1
    19     5     6    1
    20     5     8    1
    21    11    10    1
    22    10     9    1
    23     9     1    1
    24     1     3    2
    25     1     4    1
    26     1     2    1
