@<TRIPOS>MOLECULE
3s9y_FNU_A_1.pdb
 23 24 0 0 0
SMALL
GASTEIGER

@<TRIPOS>ATOM
      1  P         13.8590    1.1330   31.1190 P.3   324  FNU324      0.5327
      2  N1        10.6990    6.9340   32.3520 N.am  324  FNU324     -0.0533
      3  C2        12.0190    7.0720   32.5640 C.1   324  FNU324      0.3761
      4  N2        12.5310    8.0970   33.2610 N.2   324  FNU324     -0.2243
      5  O2        12.9020    6.1900   32.0790 O.2   324  FNU324     -0.1670
      6  N3         8.5320    7.6040   32.7890 N.pl3 324  FNU324      0.2145
      7  C4        11.6880    9.0200   33.7830 C.1   324  FNU324      0.2535
      8  O4        12.2560   10.0070   34.4840 O.2   324  FNU324     -0.2059
      9  C5        10.3050    8.9180   33.6430 C.2   324  FNU324      0.3192
     10  C6         9.8460    7.8280   32.9250 C.2   324  FNU324      0.4213
     11  C1'       10.1280    5.7880   31.6250 C.3   324  FNU324      0.3331
     12  O1P       13.8490    0.2440   32.3610 O.3   324  FNU324     -0.1145
     13  C2'       10.7200    5.5510   30.1980 C.3   324  FNU324      0.2581
     14  O2'       10.0660    6.2680   29.1460 O.3   324  FNU324     -0.2130
     15  F24        9.4750    9.8620   34.1400 F     324  FNU324     -0.1825
     16  O2P       14.8910    2.2120   31.1510 O.3   324  FNU324     -0.1145
     17  C3'       10.5240    4.0570   30.0160 C.3   324  FNU324      0.2185
     18  O3'        9.1760    3.7860   29.6370 O.3   324  FNU324     -0.2174
     19  O3P       13.8120    0.3280   29.8140 O.2   324  FNU324     -0.2224
     20  C4'       10.7560    3.5230   31.4240 C.3   324  FNU324      0.1823
     21  O4'       10.3830    4.5760   32.3400 O.3   324  FNU324     -0.3127
     22  C5'       12.2380    3.1780   31.6130 C.3   324  FNU324      0.1860
     23  O5'       12.4200    1.8760   31.0430 O.3   324  FNU324     -0.2675
@<TRIPOS>BOND
     1    14    13    1
     2    18    17    1
     3    19     1    2
     4    17    13    1
     5    17    20    1
     6    13    11    1
     7    23     1    1
     8    23    22    1
     9     1    16    1
    10     1    12    1
    11    20    22    1
    12    20    21    1
    13    11    21    1
    14    11     2    1
    15     5     3    2
    16     2     3   am
    17     2    10    1
    18     3     4    2
    19     6    10    1
    20    10     9    2
    21     4     7    2
    22     9     7    1
    23     9    15    1
    24     7     8    2
