@<TRIPOS>MOLECULE
3s9z_I92_A_1.pdb
 15 15 0 0 0
SMALL
GASTEIGER

@<TRIPOS>ATOM
      1  O01       37.8690   80.5380   65.6980 O.co2 803  I92803     -0.2373
      2  C02       38.1730   80.8980   64.4060 C.2   803  I92803      0.4220
      3  O03       39.2930   80.8200   64.0190 O.co2 803  I92803     -0.2373
      4  C04       37.0300   80.8120   63.4140 C.2   803  I92803      0.2549
      5  O05       37.0230   81.5610   62.4960 O.2   803  I92803     -0.2842
      6  C06       35.9820   79.7170   63.6220 C.3   803  I92803      0.1137
      7  C07       35.2920   79.1610   62.6430 C.3   803  I92803      0.1826
      8  O08       35.1740   79.8370   61.4350 O.3   803  I92803     -0.2178
      9  C09       34.5270   77.8510   62.9020 C.ar  803  I92803      0.0144
     10  C10       35.0930   76.8820   63.7610 C.ar  803  I92803     -0.0013
     11  C11       34.3950   75.6830   64.0120 C.ar  803  I92803     -0.0002
     12  C12       33.1310   75.4240   63.4200 C.ar  803  I92803      0.0005
     13  C13       32.5600   76.3810   62.5530 C.ar  803  I92803      0.0065
     14  C14       33.2670   77.5870   62.3190 C.ar  803  I92803      0.0330
     15 BR15       32.4770   78.8830   61.1470 Br    803  I92803     -0.0492
@<TRIPOS>BOND
     1    15    14    1
     2     8     7    1
     3    14    13   ar
     4    14     9   ar
     5     5     4    2
     6    13    12   ar
     7     7     9    1
     8     7     6    1
     9     9    10   ar
    10     4     6    1
    11     4     2    1
    12    12    11   ar
    13    10    11   ar
    14     3     2   ar
    15     2     1   ar
