@<TRIPOS>MOLECULE
3sa0_NRA_A_1.pdb
 19 21 0 0 0
SMALL
GASTEIGER

@<TRIPOS>ATOM
      1  C10      -14.8870   11.6290   40.0970 C.ar  361  NRA361      0.0516
      2  C13      -17.1270   11.0260   40.8280 C.ar  361  NRA361      0.2373
      3  C15      -17.2380   12.3330   41.4310 C.ar  361  NRA361      0.0829
      4  O01      -14.7260   18.7340   43.0710 O.3   361  NRA361     -0.2864
      5  C02      -14.5420   17.5210   42.4500 C.ar  361  NRA361      0.2020
      6  C03      -13.3310   17.2240   41.7980 C.ar  361  NRA361      0.0843
      7  C04      -13.1440   15.9790   41.1850 C.ar  361  NRA361      0.2049
      8  O05      -11.9580   15.6770   40.5560 O.3   361  NRA361     -0.2862
      9  C06      -14.1550   15.0400   41.2220 C.ar  361  NRA361      0.1125
     10  C07      -13.9820   13.8480   40.6360 C.ar  361  NRA361      0.2047
     11  O08      -12.9250   13.6110   40.0480 O.2   361  NRA361     -0.2862
     12  C09      -15.0190   12.8920   40.6890 C.ar  361  NRA361      0.0770
     13  C11      -16.0180   10.6970   40.1990 C.ar  361  NRA361      0.2346
     14  O12      -15.9360    9.4510   39.6650 O.3   361  NRA361     -0.2831
     15  O14      -18.2080   10.1840   40.8810 O.3   361  NRA361     -0.2830
     16  C16      -16.1800   13.2140   41.3420 C.ar  361  NRA361      0.1517
     17  O17      -16.3400   14.4700   41.9420 O.2   361  NRA361     -0.4530
     18  C18      -15.3790   15.3500   41.8920 C.ar  361  NRA361      0.1546
     19  C19      -15.5620   16.5770   42.4930 C.ar  361  NRA361      0.0798
@<TRIPOS>BOND
     1    14    13    1
     2    11    10    2
     3     1    13   ar
     4     1    12   ar
     5    13     2   ar
     6     8     7    1
     7    10    12   ar
     8    10     9   ar
     9    12    16   ar
    10     2    15    1
    11     2     3   ar
    12     7     9   ar
    13     7     6   ar
    14     9    18   ar
    15    16     3   ar
    16    16    17   ar
    17     6     5   ar
    18    18    17   ar
    19    18    19   ar
    20     5    19   ar
    21     5     4    1
