@<TRIPOS>MOLECULE
3sa1_6DR_A_1.pdb
 27 29 0 0 0
SMALL
GASTEIGER

@<TRIPOS>ATOM
      1  N1        22.2680   42.4880   -1.1590 N.2   163  6DR163     -0.3105
      2  C2        21.5120   41.9520   -2.1330 C.1   163  6DR163      0.2419
      3  N3        21.9440   41.9430   -3.3960 N.2   163  6DR163     -0.3332
      4  C4        23.1310   42.4560   -3.7560 C.2   163  6DR163      0.1203
      5  C5        23.9350   43.0160   -2.7580 C.3   163  6DR163      0.1831
      6  C6        23.4760   43.0260   -1.4320 C.2   163  6DR163      0.2282
      7  CAA       23.0360   43.5990   -6.0330 C.3   163  6DR163      0.0076
      8  CAB       30.3290   45.2100   -7.1880 C.3   163  6DR163      0.2525
      9  NAC       20.3260   41.4190   -1.8710 N.pl3 163  6DR163     -0.0232
     10  NAD       24.2140   43.5560   -0.4480 N.pl3 163  6DR163     -0.0955
     11  CAE       26.2860   44.0440   -3.4680 C.1   163  6DR163     -0.0853
     12  CAF       25.2050   43.5740   -3.1180 C.1   163  6DR163     -0.0760
     13  CAG       23.9140   50.3840   -6.7960 C.ar  163  6DR163      0.0989
     14  CAH       22.9810   49.2650   -5.0000 C.ar  163  6DR163      0.0989
     15  CAI       24.9700   49.4680   -6.8580 C.ar  163  6DR163      0.0207
     16  CAJ       24.0070   48.3130   -5.0110 C.ar  163  6DR163      0.0207
     17  CAK       26.9370   47.4830   -7.1200 C.ar  163  6DR163      0.0031
     18  CAL       27.9900   46.5830   -7.2090 C.ar  163  6DR163      0.0366
     19  CAM       26.3330   46.5280   -4.9920 C.ar  163  6DR163     -0.0003
     20  CAN       23.4940   42.3640   -5.2520 C.3   163  6DR163      0.0569
     21  CAO       27.5750   44.6050   -3.8960 C.3   163  6DR163      0.1053
     22  NAP       22.9640   50.2660   -5.8760 N.ar  163  6DR163     -0.2423
     23  OAS       29.2740   44.7580   -6.3160 O.3   163  6DR163     -0.4717
     24  CAV       25.0360   48.4060   -5.9470 C.ar  163  6DR163      0.0031
     25  CAW       26.0940   47.4730   -6.0060 C.ar  163  6DR163      0.0000
     26  CAX       27.3900   45.6040   -5.0660 C.ar  163  6DR163      0.0248
     27  CAZ       28.2290   45.6490   -6.1910 C.ar  163  6DR163      0.1356
@<TRIPOS>BOND
     1    18    17   ar
     2    18    27   ar
     3     8    23    1
     4    17    25   ar
     5    15    13   ar
     6    15    24   ar
     7    13    22   ar
     8    23    27    1
     9    27    26   ar
    10     7    20    1
    11    25    24    1
    12    25    19   ar
    13    24    16   ar
    14    22    14   ar
    15    20     4    1
    16    26    19   ar
    17    26    21    1
    18    16    14   ar
    19    21    11    1
    20     4     3    2
    21     4     5    1
    22    11    12    3
    23     3     2    2
    24    12     5    1
    25     5     6    1
    26     2     9    1
    27     2     1    2
    28     6     1    2
    29     6    10    1
