@<TRIPOS>MOLECULE
3sa1_NAP_A_1.pdb
 48 52 0 0 0
SMALL
GASTEIGER

@<TRIPOS>ATOM
      1  PA        34.3950   43.1270    3.1480 P.3   207  NAP207      0.2189
      2  O1A       33.8070   42.4790    4.3500 O.3   207  NAP207     -0.4371
      3  O2A       33.4150   43.9040    2.3650 O.2   207  NAP207     -0.5170
      4  O5B       35.6120   44.0650    3.5830 O.3   207  NAP207     -0.3112
      5  C5B       36.7190   43.5070    4.2650 C.3   207  NAP207      0.1813
      6  C4B       37.3770   44.6780    4.9600 C.3   207  NAP207      0.1820
      7  O4B       36.5260   45.1320    5.9940 O.3   207  NAP207     -0.3136
      8  C3B       38.7230   44.4300    5.6180 C.3   207  NAP207      0.2157
      9  O3B       39.7740   44.4960    4.7010 O.3   207  NAP207     -0.2175
     10  C2B       38.7790   45.6060    6.5600 C.3   207  NAP207      0.2314
     11  O2B       39.1670   46.7610    5.8600 O.3   207  NAP207     -0.2630
     12  C1B       37.3110   45.7580    6.9800 C.3   207  NAP207      0.3158
     13  N9A       37.1080   45.0730    8.2660 N.pl3 207  NAP207     -0.1439
     14  C8A       36.9280   43.7310    8.4640 C.3   207  NAP207      0.3377
     15  N7A       36.7990   43.5050    9.7880 N.2   207  NAP207     -0.2095
     16  C5A       36.9090   44.6870   10.4320 C.2   207  NAP207      0.2526
     17  C6A       36.8560   45.0270   11.7670 C.2   207  NAP207      0.4393
     18  N6A       36.6630   44.0740   12.6650 N.pl3 207  NAP207      0.2180
     19  N1A       36.9980   46.3520   12.1500 N.2   207  NAP207      0.0021
     20  C2A       37.1930   47.3310   11.2070 C.3   207  NAP207      0.5254
     21  N3A       37.2430   46.9830    9.8740 N.2   207  NAP207     -0.0055
     22  C4A       37.1050   45.6840    9.4920 C.2   207  NAP207      0.3518
     23  O3        35.1860   42.0400    2.2690 O.3   207  NAP207     -0.2703
     24  PN        34.9000   40.4820    1.9980 P.3   207  NAP207      0.2189
     25  O1N       36.0130   39.9830    1.1530 O.2   207  NAP207     -0.5170
     26  O2N       34.6040   39.8510    3.3150 O.3   207  NAP207     -0.4371
     27  O5D       33.5730   40.5420    1.0770 O.3   207  NAP207     -0.3112
     28  C5D       33.6890   41.1410   -0.1950 C.3   207  NAP207      0.1813
     29  C4D       33.1180   40.2490   -1.2930 C.3   207  NAP207      0.1799
     30  O4D       31.7250   40.0090   -1.1110 O.3   207  NAP207     -0.3327
     31  C3D       33.2380   40.9260   -2.6430 C.3   207  NAP207      0.2158
     32  O3D       33.3880   39.9060   -3.6070 O.3   207  NAP207     -0.2175
     33  C2D       31.8790   41.5630   -2.8270 C.3   207  NAP207      0.2309
     34  O2D       31.6090   41.7960   -4.1880 O.3   207  NAP207     -0.2158
     35  C1D       30.9750   40.5160   -2.2030 C.3   207  NAP207      0.2263
     36  N1N       29.6920   41.0250   -1.7070 N.pl3 207  NAP207     -0.2787
     37  C2N       28.5530   40.3800   -2.0860 C.3   207  NAP207      0.1244
     38  C3N       27.3070   40.8030   -1.6380 C.2   207  NAP207      0.0544
     39  C7N       26.0930   40.0010   -1.9830 C.2   207  NAP207      0.2818
     40  O7N       24.9020   40.2100   -1.2500 O.2   207  NAP207     -0.2670
     41  N7N       26.1730   39.0990   -2.9670 N.am  207  NAP207     -0.0839
     42  C4N       27.2150   41.8930   -0.7720 C.2   207  NAP207      0.0033
     43  C5N       28.3800   42.5440   -0.3790 C.2   207  NAP207      0.0157
     44  C6N       29.6170   42.0930   -0.8560 C.2   207  NAP207      0.0633
     45  P2B       40.6830   47.3020    5.7340 P.3   207  NAP207      0.5328
     46  O1X       41.5270   46.3270    4.9760 O.3   207  NAP207     -0.1145
     47  O2X       40.6250   48.5920    4.9540 O.2   207  NAP207     -0.2224
     48  O3X       41.3120   47.4630    7.1140 O.3   207  NAP207     -0.1145
@<TRIPOS>BOND
     1    34    33    1
     2    32    31    1
     3    41    39   am
     4    33    31    1
     5    33    35    1
     6    31    29    1
     7    35    36    1
     8    35    30    1
     9    37    36    1
    10    37    38    1
    11    39    38    1
    12    39    40    2
    13    36    44    1
    14    38    42    2
    15    29    30    1
    16    29    28    1
    17    44    43    2
    18    42    43    1
    19    28    27    1
    20    27    24    1
    21    25    24    2
    22    24    23    1
    23    24    26    1
    24    23     1    1
    25     3     1    2
    26     1     4    1
    27     1     2    1
    28     4     5    1
    29     5     6    1
    30     9     8    1
    31    47    45    2
    32     6     8    1
    33     6     7    1
    34    46    45    1
    35     8    10    1
    36    45    11    1
    37    45    48    1
    38    11    10    1
    39     7    12    1
    40    10    12    1
    41    12    13    1
    42    13    14    1
    43    13    22    1
    44    14    15    1
    45    22    21    2
    46    22    16    1
    47    15    16    2
    48    21    20    1
    49    16    17    1
    50    20    19    1
    51    17    19    2
    52    17    18    1
