@<TRIPOS>MOLECULE
3sa2_NAP_A_1.pdb
 48 52 0 0 0
SMALL
GASTEIGER

@<TRIPOS>ATOM
      1  PA        43.1150   34.3800   -3.0380 P.3   207  NAP207      0.2189
      2  O1A       42.4520   33.7760   -4.2090 O.2   207  NAP207     -0.5170
      3  O2A       43.8920   33.4280   -2.2330 O.3   207  NAP207     -0.4371
      4  O5B       44.1130   35.5530   -3.4980 O.3   207  NAP207     -0.3112
      5  C5B       43.5990   36.6250   -4.2590 C.3   207  NAP207      0.1813
      6  C4B       44.7850   37.2970   -4.9160 C.3   207  NAP207      0.1820
      7  O4B       45.2880   36.4590   -5.9350 O.3   207  NAP207     -0.3136
      8  C3B       44.4830   38.6210   -5.6060 C.3   207  NAP207      0.2157
      9  O3B       44.4160   39.7060   -4.7160 O.3   207  NAP207     -0.2175
     10  C2B       45.6870   38.7150   -6.5210 C.3   207  NAP207      0.2314
     11  O2B       46.8370   39.1240   -5.8050 O.3   207  NAP207     -0.2630
     12  C1B       45.8500   37.2580   -6.9530 C.3   207  NAP207      0.3158
     13  N9A       45.1240   37.0810   -8.2280 N.pl3 207  NAP207     -0.1439
     14  C8A       43.7780   36.9190   -8.4220 C.3   207  NAP207      0.3377
     15  N7A       43.5460   36.8160   -9.7480 N.2   207  NAP207     -0.2095
     16  C5A       44.7170   36.9150  -10.4110 C.2   207  NAP207      0.2526
     17  C6A       45.0610   36.8790  -11.7600 C.2   207  NAP207      0.4393
     18  N6A       44.1360   36.7160  -12.7090 N.pl3 207  NAP207      0.2180
     19  N1A       46.3910   36.9980  -12.1200 N.2   207  NAP207      0.0021
     20  C2A       47.3700   37.1570  -11.1680 C.3   207  NAP207      0.5254
     21  N3A       47.0200   37.1950   -9.8380 N.2   207  NAP207     -0.0055
     22  C4A       45.7190   37.0830   -9.4650 C.2   207  NAP207      0.3518
     23  O3        42.0280   35.2140   -2.2060 O.3   207  NAP207     -0.2703
     24  PN        40.4990   34.9550   -1.8300 P.3   207  NAP207      0.2189
     25  O1N       40.0210   36.1240   -1.0490 O.3   207  NAP207     -0.4371
     26  O2N       39.7680   34.5290   -3.0450 O.2   207  NAP207     -0.5170
     27  O5D       40.6280   33.6620   -0.8670 O.3   207  NAP207     -0.3112
     28  C5D       41.1280   33.8090    0.4360 C.3   207  NAP207      0.1813
     29  C4D       40.1390   33.1980    1.4170 C.3   207  NAP207      0.1799
     30  O4D       39.8970   31.8210    1.1270 O.3   207  NAP207     -0.3327
     31  C3D       40.7170   33.2620    2.8170 C.3   207  NAP207      0.2158
     32  O3D       39.6230   33.3780    3.6980 O.3   207  NAP207     -0.2175
     33  C2D       41.3450   31.8890    2.9730 C.3   207  NAP207      0.2309
     34  O2D       41.4820   31.4910    4.3160 O.3   207  NAP207     -0.2158
     35  C1D       40.3370   31.0320    2.2320 C.3   207  NAP207      0.2263
     36  N1N       40.8830   29.7500    1.7880 N.pl3 207  NAP207     -0.2787
     37  C2N       40.2370   28.6130    2.2060 C.3   207  NAP207      0.1244
     38  C3N       40.6840   27.3600    1.7990 C.2   207  NAP207      0.0544
     39  C7N       39.9050   26.1240    2.1630 C.2   207  NAP207      0.2818
     40  O7N       40.2660   24.8980    1.5850 O.2   207  NAP207     -0.2670
     41  N7N       38.8860   26.1890    3.0180 N.am  207  NAP207     -0.0839
     42  C4N       41.7940   27.2770    0.9560 C.2   207  NAP207      0.0033
     43  C5N       42.4380   28.4440    0.5360 C.2   207  NAP207      0.0157
     44  C6N       41.9730   29.6870    0.9540 C.2   207  NAP207      0.0633
     45  P2B       47.3480   40.6570   -5.7080 P.3   207  NAP207      0.5328
     46  O1X       46.2490   41.4560   -5.0460 O.3   207  NAP207     -0.1145
     47  O2X       48.6000   40.7290   -4.8780 O.3   207  NAP207     -0.1145
     48  O3X       47.5900   41.2400   -7.0830 O.2   207  NAP207     -0.2224
@<TRIPOS>BOND
     1    18    17    1
     2    19    17    2
     3    19    20    1
     4    17    16    1
     5    20    21    1
     6    16    15    2
     7    16    22    1
     8    21    22    2
     9    15    14    1
    10    22    13    1
    11    14    13    1
    12    13    12    1
    13    48    45    2
    14    12    10    1
    15    12     7    1
    16    10    11    1
    17    10     8    1
    18     7     6    1
    19    11    45    1
    20    45    46    1
    21    45    47    1
    22     8     6    1
    23     8     9    1
    24     6     5    1
    25     5     4    1
    26     2     1    2
    27     4     1    1
    28    26    24    2
    29     1     3    1
    30     1    23    1
    31    23    24    1
    32    24    25    1
    33    24    27    1
    34    27    28    1
    35    28    29    1
    36    43    44    2
    37    43    42    1
    38    44    36    1
    39    42    38    2
    40    30    29    1
    41    30    35    1
    42    29    31    1
    43    40    39    2
    44    36    37    1
    45    36    35    1
    46    38    39    1
    47    38    37    1
    48    39    41   am
    49    35    33    1
    50    31    33    1
    51    31    32    1
    52    33    34    1
