@<TRIPOS>MOLECULE
3sa2_7DR_A_1.pdb
 27 29 0 0 0
SMALL
GASTEIGER

@<TRIPOS>ATOM
      1  N1        42.4210   22.1110    1.3280 N.2   163  7DR163     -0.3105
      2  C2        41.8980   21.4020    2.3390 C.1   163  7DR163      0.2419
      3  N3        41.8850   21.9030    3.5840 N.2   163  7DR163     -0.3332
      4  C4        42.3660   23.1220    3.8750 C.2   163  7DR163      0.1203
      5  C5        42.9130   23.8740    2.8420 C.3   163  7DR163      0.1831
      6  C6        42.9310   23.3400    1.5490 C.2   163  7DR163      0.2282
      7  CAA       43.5420   23.1950    6.1010 C.3   163  7DR163      0.0076
      8  CAB       45.1500   30.8070    7.5010 C.3   163  7DR163      0.2525
      9  NAC       41.3810   20.1860    2.1290 N.pl3 163  7DR163     -0.0232
     10  NAD       43.4470   24.0450    0.5340 N.pl3 163  7DR163     -0.0955
     11  CAE       43.8960   26.3010    3.4010 C.1   163  7DR163     -0.0854
     12  CAF       43.4430   25.1800    3.1280 C.1   163  7DR163     -0.0760
     13  CAG       50.1730   23.7780    6.7970 C.ar  163  7DR163      0.0000
     14  CAH       49.3680   23.7390    5.6620 C.ar  163  7DR163      0.0000
     15  CAI       50.0190   24.8170    7.7130 C.ar  163  7DR163      0.0000
     16  CAJ       48.4150   24.7330    5.4410 C.ar  163  7DR163      0.0000
     17  CAK       49.0580   25.8060    7.4920 C.ar  163  7DR163      0.0000
     18  CAL       45.3760   28.7610    5.7680 C.ar  163  7DR163      0.0336
     19  CAM       46.3800   26.6860    5.0820 C.ar  163  7DR163     -0.0031
     20  CAN       47.2280   27.8470    7.0210 C.ar  163  7DR163      0.0369
     21  CAO       42.2830   23.5910    5.3380 C.3   163  7DR163      0.0569
     22  CAP       44.4310   27.6420    3.7180 C.3   163  7DR163      0.1024
     23  OAS       46.2550   29.8970    7.7220 O.3   163  7DR163     -0.4714
     24  CAU       45.4190   27.6790    4.8900 C.ar  163  7DR163     -0.0062
     25  CAW       46.2770   28.8500    6.8410 C.ar  163  7DR163      0.1384
     26  CAX       48.2490   25.7720    6.3540 C.ar  163  7DR163      0.0001
     27  CAY       47.2890   26.7660    6.1450 C.ar  163  7DR163      0.0027
@<TRIPOS>BOND
     1    10     6    1
     2     1     6    2
     3     1     2    2
     4     6     5    1
     5     9     2    1
     6     2     3    2
     7     5    12    1
     8     5     4    1
     9    12    11    3
    10    11    22    1
    11     3     4    2
    12    22    24    1
    13     4    21    1
    14    24    19   ar
    15    24    18   ar
    16    19    27   ar
    17    21     7    1
    18    16    14   ar
    19    16    26   ar
    20    14    13   ar
    21    18    25   ar
    22    27    26    1
    23    27    20   ar
    24    26    17   ar
    25    13    15   ar
    26    25    20   ar
    27    25    23    1
    28    17    15   ar
    29     8    23    1
