@<TRIPOS>MOLECULE
3sa3_23X_B_1.pdb
 41 43 0 0 0
SMALL
GASTEIGER

@<TRIPOS>ATOM
      1  C27       21.4150   25.0750   10.7320 C.2   101  23X101      0.2423
      2  O27       21.6780   24.4120   11.7310 O.2   101  23X101     -0.2733
      3  C28       20.9190   24.4260    9.4710 C.3   101  23X101      0.0964
      4  N27       21.5760   26.3940   10.6710 N.am  101  23X101     -0.1978
      5  C22       22.1220   27.1990   11.7500 C.3   101  23X101      0.1726
      6  C21       21.0950   28.1910   12.2600 C.2   101  23X101      0.2612
      7  O22       20.8700   29.2160   11.6170 O.2   101  23X101     -0.2715
      8  C23       23.3510   27.9680   11.2830 C.3   101  23X101      0.0290
      9  C25       24.3570   27.1320   10.4840 C.3   101  23X101      0.0022
     10  C24       24.0180   28.6180   12.4800 C.3   101  23X101      0.0023
     11  C26       24.8590   25.9550   11.2870 C.3   101  23X101      0.0001
     12  N11       19.0700   31.4610   15.1210 N.3   101  23X101     -0.1562
     13  C12       19.8870   32.5300   15.7490 C.3   101  23X101      0.0955
     14  C13       21.3920   32.3340   15.5280 C.3   101  23X101      0.0177
     15  C14       21.7600   32.1620   14.0550 C.3   101  23X101      0.0015
     16  C15       22.1500   33.5320   16.0950 C.3   101  23X101      0.0014
     17  C16       18.9380   30.2340   15.9480 C.3   101  23X101      0.1300
     18  C17       19.8170   29.1160   15.3670 C.3   101  23X101      0.1897
     19  C18       22.0740   33.5480   17.5990 C.3   101  23X101      0.0000
     20  O18       19.8660   28.0320   16.2900 O.3   101  23X101     -0.2197
     21  C19       19.3650   28.6100   13.9890 C.3   101  23X101      0.1314
     22  N20       20.4500   27.8560   13.3770 N.am  101  23X101     -0.2027
     23  C32       18.0900   27.7610   14.0450 C.3   101  23X101      0.0506
     24  C33       17.1870   28.2520   11.7340 C.ar  101  23X101     -0.0042
     25  C34       16.9090   27.8460   10.4300 C.ar  101  23X101     -0.0003
     26  C35       17.1810   26.5430   10.0320 C.ar  101  23X101     -0.0000
     27  C36       17.7560   25.6400   10.9200 C.ar  101  23X101     -0.0003
     28  C37       18.0160   26.0520   12.2190 C.ar  101  23X101     -0.0042
     29  C38       17.7550   27.3480   12.6300 C.ar  101  23X101     -0.0204
     30  C1        15.2770   36.4220   18.1390 C.3   101  23X101      0.1873
     31  N1        14.8390   35.1700   18.2830 N.2   101  23X101     -0.2576
     32  S1        16.4890   36.6420   16.9220 S.3   101  23X101     -0.0861
     33  C2        15.4010   34.2910   17.4100 C.2   101  23X101      0.0822
     34  C3        16.3260   34.9700   16.6220 C.2   101  23X101      0.0420
     35  C4        17.0410   34.2480   15.6520 C.2   101  23X101      0.0107
     36  C5        16.8390   32.8770   15.4710 C.3   101  23X101      0.1903
     37  C6        15.8960   32.2240   16.2810 C.2   101  23X101      0.0046
     38  C7        15.1840   32.9300   17.2450 C.2   101  23X101      0.0167
     39  S8        17.7000   31.9770   14.4080 S.O2  101  23X101      0.0500
     40  O9        18.1180   32.7390   13.2740 O.2   101  23X101     -0.1567
     41  O10       16.9960   30.8230   14.0120 O.2   101  23X101     -0.1567
@<TRIPOS>BOND
     1     3     1    1
     2    26    25   ar
     3    26    27   ar
     4    25    24   ar
     5     9     8    1
     6     9    11    1
     7     4     1   am
     8     4     5    1
     9     1     2    2
    10    27    28   ar
    11     8     5    1
    12     8    10    1
    13     7     6    2
    14    24    29   ar
    15     5     6    1
    16    28    29   ar
    17     6    22   am
    18    29    23    1
    19    40    39    2
    20    22    21    1
    21    21    23    1
    22    21    18    1
    23    41    39    2
    24    15    14    1
    25    39    12    1
    26    39    36    1
    27    12    13    1
    28    12    17    1
    29    18    17    1
    30    18    20    1
    31    36    35    1
    32    36    37    1
    33    14    13    1
    34    14    16    1
    35    35    34    2
    36    16    19    1
    37    37    38    2
    38    34    32    1
    39    34    33    1
    40    32    30    1
    41    38    33    1
    42    33    31    2
    43    30    31    1
