@<TRIPOS>MOLECULE
3sa4_F72_B_1.pdb
 41 45 0 0 0
SMALL
GASTEIGER

@<TRIPOS>ATOM
      1  C21       21.4510   28.7090   12.7260 C.2   200  F72200      0.2649
      2  O22       21.6200   29.8410   12.3270 O.2   200  F72200     -0.2684
      3  C22       22.1610   27.6250   12.0080 C.ar  200  F72200      0.0582
      4  C27       23.5060   27.7570   11.7370 C.ar  200  F72200      0.0466
      5  C26       24.1430   26.7250   11.0530 C.ar  200  F72200      0.1959
      6  C25       23.4650   25.5730   10.6620 C.ar  200  F72200      0.0420
      7  C24       22.1150   25.4400   10.9590 C.ar  200  F72200      0.0034
      8  C23       21.4710   26.4740   11.6220 C.ar  200  F72200      0.0048
      9  O27       25.4560   26.8450   10.7590 O.3   200  F72200     -0.2866
     10  C11       23.3510   34.0470   17.1210 C.3   200  F72200      0.0000
     11  N11       19.2330   31.8730   15.6330 N.3   200  F72200     -0.1562
     12  C12       19.7320   32.8200   16.6440 C.3   200  F72200      0.0955
     13  C13       21.0940   33.3260   16.2360 C.3   200  F72200      0.0177
     14  C14       21.9970   32.2300   15.7000 C.3   200  F72200      0.0014
     15  C15       21.8420   34.0890   17.3210 C.3   200  F72200      0.0014
     16  C16       18.9410   30.5530   16.2350 C.3   200  F72200      0.1300
     17  C17       19.9340   29.5270   15.6990 C.3   200  F72200      0.1897
     18  C18       23.8210   33.9200   15.6660 C.3   200  F72200      0.0000
     19  O18       19.9880   28.3710   16.5300 O.3   200  F72200     -0.2197
     20  C19       19.5810   29.1440   14.2730 C.3   200  F72200      0.1316
     21  C20       22.9440   32.9960   14.8170 C.3   200  F72200      0.0000
     22  N20       20.6380   28.3400   13.7040 N.am  200  F72200     -0.2004
     23  C32       18.2510   28.3900   14.1680 C.3   200  F72200      0.0507
     24  C33       18.2170   26.7510   12.2650 C.ar  200  F72200     -0.0042
     25  C34       18.0100   26.3960   10.9280 C.ar  200  F72200     -0.0003
     26  C35       17.5700   27.3560   10.0220 C.ar  200  F72200     -0.0000
     27  C36       17.3560   28.6550   10.4620 C.ar  200  F72200     -0.0003
     28  C37       17.5570   29.0000   11.7980 C.ar  200  F72200     -0.0042
     29  C38       17.9930   28.0490   12.7100 C.ar  200  F72200     -0.0204
     30  C1        15.2230   36.7530   18.5550 C.3   200  F72200      0.1873
     31  N1        14.8340   35.4720   18.6310 N.2   200  F72200     -0.2576
     32  S1        16.4670   37.0770   17.3850 S.3   200  F72200     -0.0861
     33  C2        15.4700   34.6640   17.7610 C.2   200  F72200      0.0822
     34  C3        16.4080   35.4000   17.0400 C.2   200  F72200      0.0420
     35  C4        17.1980   34.7180   16.0950 C.2   200  F72200      0.0107
     36  C5        17.0430   33.3280   15.8540 C.3   200  F72200      0.1903
     37  C6        16.1010   32.6370   16.6190 C.2   200  F72200      0.0046
     38  C7        15.3280   33.2970   17.5630 C.2   200  F72200      0.0167
     39  S8        17.9770   32.4800   14.8240 S.O2  200  F72200      0.0500
     40  O9        18.5230   33.3600   13.8450 O.2   200  F72200     -0.1567
     41  O10       17.2800   31.4260   14.2360 O.2   200  F72200     -0.1567
@<TRIPOS>BOND
     1    26    27   ar
     2    26    25   ar
     3    27    28   ar
     4     6     7   ar
     5     6     5   ar
     6     9     5    1
     7    25    24   ar
     8     7     8   ar
     9     5     4   ar
    10     8     3   ar
    11     4     3   ar
    12    28    29   ar
    13     3     1    1
    14    24    29   ar
    15     2     1    2
    16    29    23    1
    17     1    22   am
    18    22    20    1
    19    40    39    2
    20    23    20    1
    21    41    39    2
    22    20    17    1
    23    21    18    1
    24    21    14    1
    25    39    11    1
    26    39    36    1
    27    11    16    1
    28    11    12    1
    29    18    10    1
    30    17    16    1
    31    17    19    1
    32    14    13    1
    33    36    35    1
    34    36    37    1
    35    35    34    2
    36    13    12    1
    37    13    15    1
    38    37    38    2
    39    34    32    1
    40    34    33    1
    41    10    15    1
    42    32    30    1
    43    38    33    1
    44    33    31    2
    45    30    31    1
