@<TRIPOS>MOLECULE
3sa5_A69_B_1.pdb
 43 47 0 0 0
SMALL
GASTEIGER

@<TRIPOS>ATOM
      1  C21       21.5090   28.3290   12.6510 C.2   200  A69200      0.2649
      2  O22       21.4780   29.5180   12.4010 O.2   200  A69200     -0.2684
      3  C22       22.6430   27.5210   12.0430 C.ar  200  A69200      0.0582
      4  C27       22.5340   26.8820   10.8070 C.ar  200  A69200      0.0466
      5  C26       23.6120   26.1520   10.2890 C.ar  200  A69200      0.1959
      6  C25       24.8060   26.0840   10.9930 C.ar  200  A69200      0.0420
      7  C24       24.9260   26.7330   12.2140 C.ar  200  A69200      0.0034
      8  C23       23.8540   27.4530   12.7270 C.ar  200  A69200      0.0048
      9  O27       23.5310   25.5000    9.0840 O.3   200  A69200     -0.2866
     10  N11       19.3110   31.2930   15.5150 N.3   200  A69200     -0.1562
     11  C12       20.1030   32.0830   16.4640 C.3   200  A69200      0.0959
     12  C13       21.2520   31.1600   16.8610 C.3   200  A69200      0.0238
     13  C14       22.5430   31.5660   16.1790 C.3   200  A69200      0.0278
     14  C16       18.9250   30.0100   16.1170 C.3   200  A69200      0.1300
     15  C17       19.9090   28.9740   15.5630 C.3   200  A69200      0.1897
     16  O18       19.9070   27.8110   16.4030 O.3   200  A69200     -0.2197
     17  C19       19.5610   28.6000   14.1200 C.3   200  A69200      0.1316
     18  N20       20.5970   27.8000   13.4680 N.am  200  A69200     -0.2004
     19  C32       18.2250   27.8710   14.1460 C.3   200  A69200      0.0507
     20  C33       17.9830   26.0640   12.4610 C.ar  200  A69200     -0.0042
     21  C34       17.6470   25.6050   11.1940 C.ar  200  A69200     -0.0003
     22  C35       17.1420   26.4910   10.2610 C.ar  200  A69200     -0.0000
     23  C36       16.9840   27.8330   10.5800 C.ar  200  A69200     -0.0003
     24  C37       17.3330   28.2940   11.8400 C.ar  200  A69200     -0.0042
     25  C38       17.8420   27.3980   12.7750 C.ar  200  A69200     -0.0204
     26  C40       22.4310   33.0510   16.0400 C.ar  200  A69200     -0.0221
     27  C41       22.4940   33.6390   14.7910 C.ar  200  A69200     -0.0043
     28  C42       22.3560   35.0130   14.6940 C.ar  200  A69200     -0.0003
     29  C43       22.1550   35.7890   15.8310 C.ar  200  A69200     -0.0000
     30  C44       22.0900   35.1860   17.0740 C.ar  200  A69200     -0.0003
     31  C45       22.2210   33.8140   17.1780 C.ar  200  A69200     -0.0043
     32  C1        15.5640   36.6080   18.3210 C.3   200  A69200      0.1873
     33  N1        15.0760   35.3550   18.4900 N.2   200  A69200     -0.2576
     34  S1        16.8210   36.7500   17.1360 S.3   200  A69200     -0.0861
     35  C2        15.6850   34.4450   17.6840 C.2   200  A69200      0.0822
     36  C3        16.6420   35.0730   16.9080 C.2   200  A69200      0.0420
     37  C4        17.4030   34.3310   15.9910 C.2   200  A69200      0.0107
     38  C5        17.2040   32.9570   15.8500 C.3   200  A69200      0.1903
     39  C6        16.2290   32.3480   16.6280 C.2   200  A69200      0.0046
     40  C7        15.4780   33.0850   17.5410 C.2   200  A69200      0.0167
     41  S8        18.0600   32.0480   14.8160 S.O2  200  A69200      0.0500
     42  O9        17.2130   31.0320   14.2630 O.2   200  A69200     -0.1567
     43  O10       18.6120   32.8670   13.7800 O.2   200  A69200     -0.1567
@<TRIPOS>BOND
     1     9     5    1
     2    22    23   ar
     3    22    21   ar
     4     5     4   ar
     5     5     6   ar
     6    23    24   ar
     7     4     3   ar
     8     6     7   ar
     9    21    20   ar
    10    24    25   ar
    11     3     1    1
    12     3     8   ar
    13     7     8   ar
    14     2     1    2
    15    20    25   ar
    16     1    18   am
    17    25    19    1
    18    18    17    1
    19    43    41    2
    20    17    19    1
    21    17    15    1
    22    42    41    2
    23    28    27   ar
    24    28    29   ar
    25    27    26   ar
    26    41    10    1
    27    41    38    1
    28    10    14    1
    29    10    11    1
    30    15    14    1
    31    15    16    1
    32    29    30   ar
    33    38    37    1
    34    38    39    1
    35    37    36    2
    36    26    13    1
    37    26    31   ar
    38    13    12    1
    39    11    12    1
    40    39    40    2
    41    36    34    1
    42    36    35    1
    43    30    31   ar
    44    34    32    1
    45    40    35    1
    46    35    33    2
    47    32    33    1
