@<TRIPOS>MOLECULE
3sa6_F71_B_1.pdb
 40 43 0 0 0
SMALL
GASTEIGER

@<TRIPOS>ATOM
      1  C21       21.2320   28.9730   12.6220 C.2   200  F71200      0.2649
      2  O22       21.2800   30.1140   12.2060 O.2   200  F71200     -0.2684
      3  C22       21.9710   27.8790   11.9140 C.ar  200  F71200      0.0582
      4  C27       23.3120   27.9910   11.6780 C.ar  200  F71200      0.0466
      5  C26       23.9790   26.9550   11.0240 C.ar  200  F71200      0.1959
      6  C25       23.3040   25.7970   10.6270 C.ar  200  F71200      0.0420
      7  C24       21.9390   25.6770   10.8810 C.ar  200  F71200      0.0034
      8  C23       21.2820   26.7260   11.5210 C.ar  200  F71200      0.0048
      9  O27       25.3060   27.0950   10.7940 O.3   200  F71200     -0.2866
     10  N11       19.1890   32.0550   15.5650 N.3   200  F71200     -0.1524
     11  C12       19.9340   33.0530   16.3890 C.3   200  F71200      0.0959
     12  C13       21.4420   32.7640   16.3930 C.3   200  F71200      0.0178
     13  C14       22.0680   32.7730   14.9900 C.3   200  F71200      0.0015
     14  C15       22.1560   33.7380   17.3210 C.3   200  F71200      0.0014
     15  C16       18.9500   30.7810   16.2760 C.3   200  F71200      0.1304
     16  C17       19.8420   29.6920   15.6600 C.3   200  F71200      0.1897
     17  C18       22.0220   35.1840   16.9090 C.3   200  F71200      0.0000
     18  O18       19.8230   28.5110   16.4750 O.3   200  F71200     -0.2197
     19  C19       19.4340   29.3520   14.2310 C.3   200  F71200      0.1316
     20  N20       20.4840   28.5650   13.6370 N.am  200  F71200     -0.2004
     21  C32       18.1390   28.5270   14.1080 C.3   200  F71200      0.0507
     22  C33       17.9890   26.9350   12.1400 C.ar  200  F71200     -0.0042
     23  C34       17.7310   26.6520   10.7940 C.ar  200  F71200     -0.0003
     24  C35       17.3210   27.6640    9.9360 C.ar  200  F71200     -0.0000
     25  C36       17.1570   28.9550   10.4270 C.ar  200  F71200     -0.0003
     26  C37       17.4210   29.2380   11.7700 C.ar  200  F71200     -0.0042
     27  C38       17.8410   28.2360   12.6380 C.ar  200  F71200     -0.0204
     28  C1        15.0720   38.1610   18.9940 C.ar  200  F71200      0.1439
     29  N1        14.0800   37.4070   19.5610 N.ar  200  F71200     -0.0753
     30  O1        14.1910   36.1710   19.0420 O.2   200  F71200     -0.3528
     31  S1        17.0200   35.1420   16.2790 S.2   200  F71200     -0.0641
     32  C2        15.6840   34.9590   17.3680 C.ar  200  F71200      0.0679
     33  C3        15.2170   36.1480   18.1530 C.ar  200  F71200      0.1829
     34  C4        15.8180   37.3840   18.1060 C.ar  200  F71200      0.0647
     35  C5        16.8180   33.4480   15.9050 C.ar  200  F71200      0.1517
     36  C6        15.7900   32.8060   16.5910 C.ar  200  F71200      0.0272
     37  C7        15.1120   33.6940   17.4470 C.ar  200  F71200      0.0116
     38  S8        17.8510   32.6630   14.8310 S.O2  200  F71200      0.0690
     39  O9        17.2020   31.5740   14.2100 O.2   200  F71200     -0.1523
     40  O10       18.3450   33.6470   13.9070 O.2   200  F71200     -0.1523
@<TRIPOS>BOND
     1    24    25   ar
     2    24    23   ar
     3    25    26   ar
     4     6     7   ar
     5     6     5   ar
     6     9     5    1
     7    23    22   ar
     8     7     8   ar
     9     5     4   ar
    10     8     3   ar
    11     4     3   ar
    12    26    27   ar
    13     3     1    1
    14    22    27   ar
    15     2     1    2
    16     1    20   am
    17    27    21    1
    18    20    19    1
    19    40    38    2
    20    21    19    1
    21    39    38    2
    22    19    16    1
    23    38    10    1
    24    38    35    1
    25    13    12    1
    26    10    15    1
    27    10    11    1
    28    16    15    1
    29    16    18    1
    30    35    31   ar
    31    35    36   ar
    32    31    32   ar
    33    11    12    1
    34    12    14    1
    35    36    37   ar
    36    17    14    1
    37    32    37   ar
    38    32    33    1
    39    34    33   ar
    40    34    28   ar
    41    33    30   ar
    42    28    29   ar
    43    30    29   ar
