@<TRIPOS>MOLECULE
3sa7_55A_A_1.pdb
 41 43 0 0 0
SMALL
GASTEIGER

@<TRIPOS>ATOM
      1  C27       21.6130   25.3070   10.6930 C.2   102  55A102      0.2423
      2  O27       21.8730   24.5670   11.6410 O.2   102  55A102     -0.2733
      3  C28       21.1340   24.7970    9.3630 C.3   102  55A102      0.0964
      4  N27       21.7350   26.6300   10.7580 N.am  102  55A102     -0.1978
      5  C22       22.2420   27.3400   11.9130 C.3   102  55A102      0.1727
      6  C21       21.2580   28.3760   12.3660 C.2   102  55A102      0.2612
      7  O22       21.1230   29.4210   11.7460 O.2   102  55A102     -0.2715
      8  C23       23.6000   27.9960   11.6750 C.3   102  55A102      0.0311
      9  C25       24.7130   26.9460   11.6520 C.3   102  55A102      0.0022
     10  C24       24.8170   26.5990   10.1730 C.3   102  55A102      0.0001
     11  C26       26.0490   27.3940   12.2310 C.3   102  55A102      0.0001
     12  N11       19.2980   31.6390   15.2640 N.3   102  55A102     -0.1562
     13  C12       20.0940   32.6590   16.0000 C.3   102  55A102      0.0955
     14  C13       21.5980   32.3900   15.9870 C.3   102  55A102      0.0177
     15  C14       22.1190   32.3490   14.5460 C.3   102  55A102      0.0015
     16  C15       22.2570   33.4220   16.9330 C.3   102  55A102      0.0014
     17  C16       19.0880   30.4040   16.0550 C.3   102  55A102      0.1300
     18  C17       19.9690   29.2900   15.4700 C.3   102  55A102      0.1897
     19  C18       22.0950   34.8340   16.4080 C.3   102  55A102      0.0000
     20  O18       19.9790   28.1800   16.3950 O.3   102  55A102     -0.2197
     21  C19       19.5130   28.8140   14.0790 C.3   102  55A102      0.1314
     22  N20       20.5730   28.0400   13.4510 N.am  102  55A102     -0.2027
     23  C32       18.2070   27.9990   14.0690 C.3   102  55A102      0.0506
     24  C33       18.1190   26.3160   12.1770 C.ar  102  55A102     -0.0042
     25  C34       17.8560   25.9870   10.8520 C.ar  102  55A102     -0.0003
     26  C35       17.3470   26.9480    9.9940 C.ar  102  55A102     -0.0000
     27  C36       17.1170   28.2390   10.4410 C.ar  102  55A102     -0.0003
     28  C37       17.3850   28.5640   11.7570 C.ar  102  55A102     -0.0042
     29  C38       17.8890   27.6060   12.6320 C.ar  102  55A102     -0.0204
     30  C1        15.4050   36.6220   18.3440 C.3   102  55A102      0.1873
     31  N1        14.9560   35.3540   18.4440 N.2   102  55A102     -0.2576
     32  S1        16.6470   36.8740   17.1550 S.3   102  55A102     -0.0861
     33  C2        15.5550   34.5220   17.5490 C.2   102  55A102      0.0822
     34  C3        16.5070   35.2060   16.8000 C.2   102  55A102      0.0420
     35  C4        17.2600   34.5030   15.8320 C.2   102  55A102      0.0107
     36  C5        17.0690   33.1240   15.6120 C.3   102  55A102      0.1903
     37  C6        16.0980   32.4700   16.3800 C.2   102  55A102      0.0046
     38  C7        15.3630   33.1620   17.3410 C.2   102  55A102      0.0167
     39  S8        17.9340   32.2120   14.5560 S.O2  102  55A102      0.0500
     40  O9        17.1910   31.0900   14.0820 O.2   102  55A102     -0.1567
     41  O10       18.4520   33.0780   13.5290 O.2   102  55A102     -0.1567
@<TRIPOS>BOND
     1     3     1    1
     2    26    27   ar
     3    26    25   ar
     4    10     9    1
     5    27    28   ar
     6     1     4   am
     7     1     2    2
     8     4     5    1
     9    25    24   ar
    10     9     8    1
    11     9    11    1
    12     8     5    1
    13     7     6    2
    14    28    29   ar
    15     5     6    1
    16    24    29   ar
    17     6    22   am
    18    29    23    1
    19    22    21    1
    20    41    39    2
    21    23    21    1
    22    21    18    1
    23    40    39    2
    24    15    14    1
    25    39    12    1
    26    39    36    1
    27    12    13    1
    28    12    17    1
    29    18    17    1
    30    18    20    1
    31    36    35    1
    32    36    37    1
    33    35    34    2
    34    14    13    1
    35    14    16    1
    36    37    38    2
    37    19    16    1
    38    34    32    1
    39    34    33    1
    40    32    30    1
    41    38    33    1
    42    33    31    2
    43    30    31    1
