@<TRIPOS>MOLECULE
3sa8_K83_A_1.pdb
 37 39 0 0 0
SMALL
GASTEIGER

@<TRIPOS>ATOM
      1  C21       21.3610   28.4990   12.6520 C.2   200  K83200      0.2649
      2  O22       21.5380   29.6300   12.2520 O.2   200  K83200     -0.2684
      3  C22       22.0690   27.3900   11.9440 C.ar  200  K83200      0.0582
      4  C27       23.4250   27.5020   11.6740 C.ar  200  K83200      0.0466
      5  C26       24.0620   26.4710   10.9900 C.ar  200  K83200      0.1959
      6  C25       23.3350   25.3520   10.5820 C.ar  200  K83200      0.0420
      7  C24       21.9750   25.2470   10.8740 C.ar  200  K83200      0.0034
      8  C23       21.3260   26.2880   11.5300 C.ar  200  K83200      0.0048
      9  O27       25.3970   26.6030   10.7480 O.3   200  K83200     -0.2866
     10  N11       19.3920   31.7690   15.5450 N.3   200  K83200     -0.1529
     11  C12       20.2120   32.7340   16.3150 C.3   200  K83200      0.0958
     12  C13       21.7020   32.3850   16.2910 C.3   200  K83200      0.0178
     13  C14       22.4610   33.3690   17.1870 C.3   200  K83200      0.0015
     14  C15       22.2920   32.3930   14.8820 C.3   200  K83200      0.0015
     15  C16       19.1100   30.5150   16.2770 C.3   200  K83200      0.1304
     16  C17       19.9850   29.4060   15.6830 C.3   200  K83200      0.1897
     17  O18       19.9400   28.2480   16.5380 O.3   200  K83200     -0.2197
     18  C19       19.5520   29.0180   14.2650 C.3   200  K83200      0.1316
     19  N20       20.5470   28.1630   13.6420 N.am  200  K83200     -0.2004
     20  C32       18.2240   28.2520   14.2080 C.3   200  K83200      0.0507
     21  C33       17.5300   28.8580   11.8790 C.ar  200  K83200     -0.0042
     22  C34       17.2870   28.5550   10.5470 C.ar  200  K83200     -0.0003
     23  C35       17.4240   27.2480   10.1090 C.ar  200  K83200     -0.0000
     24  C36       17.8270   26.2560   10.9880 C.ar  200  K83200     -0.0003
     25  C37       18.0770   26.5640   12.3190 C.ar  200  K83200     -0.0042
     26  C38       17.9230   27.8720   12.7710 C.ar  200  K83200     -0.0204
     27  S8        18.0920   32.4280   14.8130 S.O2  200  K83200      0.0634
     28  O9        17.3250   31.3440   14.3000 O.2   200  K83200     -0.1528
     29  O10       18.7140   33.2930   13.8450 O.2   200  K83200     -0.1528
     30  C5        17.1960   33.3100   15.8370 C.ar  200  K83200      0.1224
     31  C4        17.4250   34.6810   15.9920 C.ar  200  K83200      0.0230
     32  C6        16.1890   32.7220   16.6040 C.ar  200  K83200      0.0230
     33  C3        16.6670   35.4390   16.8910 C.ar  200  K83200      0.0383
     34  C7        15.4350   33.4660   17.5120 C.ar  200  K83200      0.0383
     35  C2        15.6680   34.8310   17.6490 C.ar  200  K83200      0.1388
     36  O1        14.9320   35.5410   18.5710 O.3   200  K83200     -0.4714
     37  C1        15.2270   36.9290   18.7350 C.3   200  K83200      0.2525
@<TRIPOS>BOND
     1    23    22   ar
     2    23    24   ar
     3    22    21   ar
     4     6     7   ar
     5     6     5   ar
     6     9     5    1
     7     7     8   ar
     8    24    25   ar
     9     5     4   ar
    10     8     3   ar
    11     4     3   ar
    12    21    26   ar
    13     3     1    1
    14     2     1    2
    15    25    26   ar
    16     1    19   am
    17    26    20    1
    18    19    18    1
    19    29    27    2
    20    20    18    1
    21    18    16    1
    22    28    27    2
    23    27    10    1
    24    27    30    1
    25    14    12    1
    26    10    15    1
    27    10    11    1
    28    16    15    1
    29    16    17    1
    30    30    31   ar
    31    30    32   ar
    32    31    33   ar
    33    12    11    1
    34    12    13    1
    35    32    34   ar
    36    33    35   ar
    37    34    35   ar
    38    35    36    1
    39    36    37    1
