@<TRIPOS>MOLECULE
3sa9_A68_A_1.pdb
 39 40 0 0 0
SMALL
GASTEIGER

@<TRIPOS>ATOM
      1  C27       21.5300   25.2780   10.7690 C.2   200  A68200      0.2423
      2  O27       21.7890   24.5560   11.7280 O.2   200  A68200     -0.2733
      3  C28       20.9790   24.6870    9.5040 C.3   200  A68200      0.0964
      4  N27       21.7320   26.5980   10.7430 N.am  200  A68200     -0.1978
      5  C22       22.3040   27.3610   11.8510 C.3   200  A68200      0.1726
      6  C21       21.2830   28.3480   12.3670 C.2   200  A68200      0.2612
      7  O22       21.1020   29.3930   11.7520 O.2   200  A68200     -0.2715
      8  C23       23.5540   28.1340   11.4200 C.3   200  A68200      0.0290
      9  C25       24.5470   27.3320   10.5690 C.3   200  A68200      0.0022
     10  C24       24.2270   28.7280   12.6450 C.3   200  A68200      0.0023
     11  C26       25.0340   26.1020   11.2810 C.3   200  A68200      0.0001
     12  N11       19.2770   31.5830   15.3300 N.3   200  A68200     -0.1529
     13  C12       20.0680   32.5950   16.0890 C.3   200  A68200      0.0958
     14  C13       21.5840   32.3600   16.0020 C.3   200  A68200      0.0178
     15  C14       22.3240   33.3410   16.9180 C.3   200  A68200      0.0015
     16  C15       22.1000   32.4450   14.5590 C.3   200  A68200      0.0015
     17  C16       19.0340   30.3270   16.0900 C.3   200  A68200      0.1304
     18  C17       19.9390   29.2530   15.4620 C.3   200  A68200      0.1897
     19  O18       19.9800   28.1360   16.3320 O.3   200  A68200     -0.2197
     20  C19       19.5220   28.7800   14.0640 C.3   200  A68200      0.1314
     21  N20       20.6080   28.0100   13.4740 N.am  200  A68200     -0.2027
     22  C32       18.2270   27.9390   14.0550 C.3   200  A68200      0.0506
     23  C33       17.3610   28.5180   11.7630 C.ar  200  A68200     -0.0042
     24  C34       17.0900   28.1920   10.4340 C.ar  200  A68200     -0.0003
     25  C35       17.3520   26.9130    9.9610 C.ar  200  A68200     -0.0000
     26  C36       17.9010   25.9560   10.8040 C.ar  200  A68200     -0.0003
     27  C37       18.1620   26.2930   12.1310 C.ar  200  A68200     -0.0042
     28  C38       17.9080   27.5680   12.6130 C.ar  200  A68200     -0.0204
     29  S8        17.9320   32.2060   14.6290 S.O2  200  A68200      0.0634
     30  O9        17.1510   31.1270   14.1590 O.2   200  A68200     -0.1528
     31  O10       18.4400   32.9890   13.5240 O.2   200  A68200     -0.1528
     32  C5        17.0480   33.1410   15.6440 C.ar  200  A68200      0.1224
     33  C4        17.2870   34.5090   15.7290 C.ar  200  A68200      0.0230
     34  C6        16.0520   32.5840   16.4610 C.ar  200  A68200      0.0230
     35  C3        16.5620   35.3090   16.6210 C.ar  200  A68200      0.0383
     36  C7        15.3250   33.3810   17.3600 C.ar  200  A68200      0.0383
     37  C2        15.5800   34.7500   17.4300 C.ar  200  A68200      0.1388
     38  O1        14.8670   35.5370   18.3100 O.3   200  A68200     -0.4714
     39  C1        15.3200   36.8450   18.6630 C.3   200  A68200      0.2525
@<TRIPOS>BOND
     1     3     1    1
     2    25    24   ar
     3    25    26   ar
     4    24    23   ar
     5     9    11    1
     6     9     8    1
     7     4     1   am
     8     4     5    1
     9     1     2    2
    10    26    27   ar
    11     8     5    1
    12     8    10    1
    13     7     6    2
    14    23    28   ar
    15     5     6    1
    16    27    28   ar
    17     6    21   am
    18    28    22    1
    19    21    20    1
    20    31    29    2
    21    22    20    1
    22    20    18    1
    23    30    29    2
    24    16    14    1
    25    29    12    1
    26    29    32    1
    27    12    13    1
    28    12    17    1
    29    18    17    1
    30    18    19    1
    31    32    33   ar
    32    32    34   ar
    33    33    35   ar
    34    14    13    1
    35    14    15    1
    36    34    36   ar
    37    35    37   ar
    38    36    37   ar
    39    37    38    1
    40    38    39    1
