@<TRIPOS>MOLECULE
3saa_77F_B_1.pdb
 40 43 0 0 0
SMALL
GASTEIGER

@<TRIPOS>ATOM
      1  C21       -4.0220    0.2600  -12.7490 C.2   200  77F200      0.2649
      2  O22       -3.9720   -0.8550  -12.2840 O.2   200  77F200     -0.2684
      3  C22       -3.2580    1.3560  -12.0660 C.ar  200  77F200      0.0582
      4  C27       -1.9210    1.1860  -11.7490 C.ar  200  77F200      0.0466
      5  C26       -1.2620    2.2200  -11.0890 C.ar  200  77F200      0.1959
      6  C25       -1.9140    3.4160  -10.7680 C.ar  200  77F200      0.0420
      7  C24       -3.2540    3.6050  -11.1120 C.ar  200  77F200      0.0034
      8  C23       -3.9120    2.5590  -11.7520 C.ar  200  77F200      0.0048
      9  O27        0.0420    2.0370  -10.7720 O.3   200  77F200     -0.2866
     10  C11       -2.0970   -3.8820  -15.0430 C.3   200  77F200      0.0000
     11  N11       -6.3130   -2.9360  -15.6060 N.3   200  77F200     -0.1529
     12  C12       -5.7030   -3.9390  -16.4970 C.3   200  77F200      0.0958
     13  C13       -4.1820   -3.8380  -16.4910 C.3   200  77F200      0.0178
     14  C14       -3.5950   -4.9790  -17.3180 C.3   200  77F200      0.0014
     15  C15       -3.6150   -3.9030  -15.0660 C.3   200  77F200      0.0014
     16  C16       -6.5350   -1.6300  -16.2740 C.3   200  77F200      0.1304
     17  C17       -5.5810   -0.5720  -15.7100 C.3   200  77F200      0.1897
     18  C18       -1.4370   -4.8040  -16.0770 C.3   200  77F200      0.0000
     19  O18       -5.5180    0.5990  -16.5570 O.3   200  77F200     -0.2197
     20  C19       -5.9230   -0.1730  -14.2840 C.3   200  77F200      0.1316
     21  C20       -2.0990   -4.7420  -17.4520 C.3   200  77F200      0.0000
     22  N20       -4.8210    0.6090  -13.7450 N.am  200  77F200     -0.2004
     23  C32       -7.1950    0.6710  -14.1610 C.3   200  77F200      0.0507
     24  C33       -7.9100    0.0320  -11.8030 C.ar  200  77F200     -0.0042
     25  C34       -8.1190    0.3380  -10.4590 C.ar  200  77F200     -0.0003
     26  C35       -7.8710    1.6150   -9.9690 C.ar  200  77F200     -0.0000
     27  C36       -7.4100    2.6000  -10.8440 C.ar  200  77F200     -0.0003
     28  C37       -7.2060    2.2840  -12.1910 C.ar  200  77F200     -0.0042
     29  C38       -7.4360    1.0000  -12.6840 C.ar  200  77F200     -0.0204
     30  S8        -7.5870   -3.5030  -14.7620 S.O2  200  77F200      0.0634
     31  O9        -8.2890   -2.4000  -14.2010 O.2   200  77F200     -0.1528
     32  O10       -7.0410   -4.3720  -13.7380 O.2   200  77F200     -0.1528
     33  C5        -8.5080   -4.3570  -15.8030 C.ar  200  77F200      0.1224
     34  C4        -8.2860   -5.7280  -16.0080 C.ar  200  77F200      0.0230
     35  C6        -9.4950   -3.7430  -16.5770 C.ar  200  77F200      0.0230
     36  C3        -9.0250   -6.4860  -16.9230 C.ar  200  77F200      0.0383
     37  C7       -10.2410   -4.4740  -17.4980 C.ar  200  77F200      0.0383
     38  C2       -10.0070   -5.8390  -17.6870 C.ar  200  77F200      0.1388
     39  O1       -10.7350   -6.5260  -18.6130 O.3   200  77F200     -0.4714
     40  C1       -10.4010   -7.8980  -18.8800 C.3   200  77F200      0.2525
@<TRIPOS>BOND
     1    40    39    1
     2    39    38    1
     3    38    37   ar
     4    38    36   ar
     5    37    35   ar
     6    21    14    1
     7    21    18    1
     8    14    13    1
     9    36    34   ar
    10    35    33   ar
    11    19    17    1
    12    12    13    1
    13    12    11    1
    14    13    15    1
    15    16    17    1
    16    16    11    1
    17    18    10    1
    18    34    33   ar
    19    33    30    1
    20    17    20    1
    21    11    30    1
    22    15    10    1
    23    30    31    2
    24    30    32    2
    25    20    23    1
    26    20    22    1
    27    23    29    1
    28    22     1   am
    29     1     2    2
    30     1     3    1
    31    29    28   ar
    32    29    24   ar
    33    28    27   ar
    34     3     8   ar
    35     3     4   ar
    36    24    25   ar
    37     8     7   ar
    38     4     5   ar
    39     7     6   ar
    40     5     9    1
    41     5     6   ar
    42    27    26   ar
    43    25    26   ar
