@<TRIPOS>MOLECULE
3sab_F78_B_1.pdb
 42 45 0 0 0
SMALL
GASTEIGER

@<TRIPOS>ATOM
      1  C21       21.6650   28.8280   12.8070 C.2   200  F78200      0.2649
      2  O22       21.7700   29.9480   12.4160 O.2   200  F78200     -0.2684
      3  C22       22.7280   27.9160   12.2820 C.ar  200  F78200      0.0582
      4  C27       22.3670   26.8950   11.4150 C.ar  200  F78200      0.0466
      5  C26       23.3340   26.0390   10.9140 C.ar  200  F78200      0.1959
      6  C25       24.6560   26.2080   11.2930 C.ar  200  F78200      0.0420
      7  C24       25.0120   27.2170   12.1740 C.ar  200  F78200      0.0034
      8  C23       24.0490   28.0850   12.6690 C.ar  200  F78200      0.0048
      9  O27       22.9780   25.0350   10.0640 O.3   200  F78200     -0.2866
     10  N11       19.2440   31.8020   15.5520 N.3   200  F78200     -0.1529
     11  C12       19.9690   32.7030   16.4550 C.3   200  F78200      0.0962
     12  C13       21.4350   32.2740   16.5130 C.3   200  F78200      0.0238
     13  C14       22.2360   33.3110   17.2930 C.3   200  F78200      0.0278
     14  C16       18.9120   30.5210   16.1900 C.3   200  F78200      0.1304
     15  C17       19.9410   29.5300   15.6660 C.3   200  F78200      0.1897
     16  O18       19.9400   28.4040   16.5570 O.3   200  F78200     -0.2197
     17  C19       19.6140   29.1230   14.2250 C.3   200  F78200      0.1316
     18  N20       20.7110   28.3740   13.6190 N.am  200  F78200     -0.2004
     19  C32       18.3200   28.3050   14.1660 C.3   200  F78200      0.0507
     20  C33       17.4750   28.9050   11.8790 C.ar  200  F78200     -0.0042
     21  C34       17.1770   28.5750   10.5660 C.ar  200  F78200     -0.0003
     22  C35       17.4070   27.2910   10.1000 C.ar  200  F78200     -0.0000
     23  C36       17.9260   26.3310   10.9490 C.ar  200  F78200     -0.0003
     24  C37       18.2040   26.6540   12.2730 C.ar  200  F78200     -0.0042
     25  C38       17.9900   27.9420   12.7380 C.ar  200  F78200     -0.0204
     26  C40       22.2650   34.5580   16.4620 C.ar  200  F78200     -0.0221
     27  C41       21.8470   35.7680   16.9900 C.ar  200  F78200     -0.0043
     28  C42       21.8690   36.9110   16.2060 C.ar  200  F78200     -0.0003
     29  C43       22.3010   36.8260   14.8910 C.ar  200  F78200     -0.0000
     30  C44       22.7210   35.6060   14.3720 C.ar  200  F78200     -0.0003
     31  C45       22.7000   34.4630   15.1490 C.ar  200  F78200     -0.0043
     32  S8        17.9750   32.4720   14.8140 S.O2  200  F78200      0.0634
     33  O9        17.1070   31.4510   14.2970 O.2   200  F78200     -0.1528
     34  O10       18.5020   33.3460   13.8020 O.2   200  F78200     -0.1528
     35  C5        17.1140   33.3530   15.8550 C.ar  200  F78200      0.1224
     36  C4        17.4110   34.6960   16.0640 C.ar  200  F78200      0.0230
     37  C6        16.0420   32.7950   16.5410 C.ar  200  F78200      0.0230
     38  C3        16.6660   35.4630   16.9570 C.ar  200  F78200      0.0383
     39  C7        15.3020   33.5570   17.4410 C.ar  200  F78200      0.0383
     40  C2        15.6100   34.8920   17.6530 C.ar  200  F78200      0.1388
     41  O1        14.8720   35.6370   18.5450 O.3   200  F78200     -0.4714
     42  C1        15.2430   36.9920   18.7940 C.3   200  F78200      0.2525
@<TRIPOS>BOND
     1     9     5    1
     2    22    21   ar
     3    22    23   ar
     4    21    20   ar
     5     5     6   ar
     6     5     4   ar
     7    23    24   ar
     8     6     7   ar
     9     4     3   ar
    10    20    25   ar
    11     7     8   ar
    12    24    25   ar
    13     3     8   ar
    14     3     1    1
    15     2     1    2
    16    25    19    1
    17     1    18   am
    18    18    17    1
    19    34    32    2
    20    19    17    1
    21    17    15    1
    22    33    32    2
    23    30    29   ar
    24    30    31   ar
    25    32    10    1
    26    32    35    1
    27    29    28   ar
    28    31    26   ar
    29    10    14    1
    30    10    11    1
    31    15    14    1
    32    15    16    1
    33    35    36   ar
    34    35    37   ar
    35    36    38   ar
    36    28    27   ar
    37    11    12    1
    38    26    27   ar
    39    26    13    1
    40    12    13    1
    41    37    39   ar
    42    38    40   ar
    43    39    40   ar
    44    40    41    1
    45    41    42    1
