@<TRIPOS>MOLECULE
3sac_AF8_B_1.pdb
 39 42 0 0 0
SMALL
GASTEIGER

@<TRIPOS>ATOM
      1  C21       21.3860   28.6690   12.4790 C.2   200  AF8200      0.2649
      2  O22       21.4770   29.8090   12.0540 O.2   200  AF8200     -0.2684
      3  C22       22.1390   27.5720   11.7910 C.ar  200  AF8200      0.0582
      4  C27       23.4880   27.6940   11.5120 C.ar  200  AF8200      0.0466
      5  C26       24.1410   26.6500   10.8540 C.ar  200  AF8200      0.1959
      6  C25       23.4470   25.4910   10.4910 C.ar  200  AF8200      0.0420
      7  C24       22.0920   25.3700   10.7830 C.ar  200  AF8200      0.0034
      8  C23       21.4410   26.4160   11.4300 C.ar  200  AF8200      0.0048
      9  O27       25.4650   26.7600   10.5790 O.3   200  AF8200     -0.2866
     10  N11       19.3240   31.8790   15.4000 N.3   200  AF8200     -0.1524
     11  C12       20.0650   32.8520   16.2440 C.3   200  AF8200      0.0959
     12  C13       21.5680   32.5320   16.2600 C.3   200  AF8200      0.0178
     13  C14       22.3080   33.5210   17.1590 C.3   200  AF8200      0.0015
     14  C15       22.1870   32.5480   14.8590 C.3   200  AF8200      0.0015
     15  C16       19.0290   30.5960   16.0850 C.3   200  AF8200      0.1304
     16  C17       19.9340   29.5190   15.4710 C.3   200  AF8200      0.1897
     17  O18       19.9240   28.3530   16.3120 O.3   200  AF8200     -0.2197
     18  C19       19.5350   29.1360   14.0460 C.3   200  AF8200      0.1316
     19  N20       20.5760   28.3070   13.4670 N.am  200  AF8200     -0.2004
     20  C32       18.2210   28.3500   13.9490 C.3   200  AF8200      0.0507
     21  C33       17.5510   28.9630   11.6000 C.ar  200  AF8200     -0.0042
     22  C34       17.3060   28.6280   10.2750 C.ar  200  AF8200     -0.0003
     23  C35       17.4540   27.3170    9.8450 C.ar  200  AF8200     -0.0000
     24  C36       17.8460   26.3350   10.7410 C.ar  200  AF8200     -0.0003
     25  C37       18.0890   26.6670   12.0700 C.ar  200  AF8200     -0.0042
     26  C38       17.9430   27.9830   12.5050 C.ar  200  AF8200     -0.0204
     27  C1        15.0100   38.0090   18.7610 C.ar  200  AF8200      0.1439
     28  N1        14.0080   37.2130   19.2550 N.ar  200  AF8200     -0.0753
     29  O1        14.1860   35.9860   18.7270 O.2   200  AF8200     -0.3528
     30  S1        17.1700   35.0020   16.1240 S.2   200  AF8200     -0.0641
     31  C2        15.7790   34.8210   17.1380 C.ar  200  AF8200      0.0679
     32  C3        15.2670   35.9980   17.9150 C.ar  200  AF8200      0.1829
     33  C4        15.8280   37.2590   17.9080 C.ar  200  AF8200      0.0647
     34  C5        16.9810   33.3160   15.7130 C.ar  200  AF8200      0.1517
     35  C6        15.9010   32.6740   16.3150 C.ar  200  AF8200      0.0272
     36  C7        15.1960   33.5580   17.1560 C.ar  200  AF8200      0.0116
     37  S8        18.0270   32.5290   14.6610 S.O2  200  AF8200      0.0690
     38  O9        17.3080   31.4750   14.0210 O.2   200  AF8200     -0.1523
     39  O10       18.6110   33.4800   13.7500 O.2   200  AF8200     -0.1523
@<TRIPOS>BOND
     1    23    22   ar
     2    23    24   ar
     3    22    21   ar
     4     6     7   ar
     5     6     5   ar
     6     9     5    1
     7    24    25   ar
     8     7     8   ar
     9     5     4   ar
    10     8     3   ar
    11     4     3   ar
    12    21    26   ar
    13     3     1    1
    14     2     1    2
    15    25    26   ar
    16     1    19   am
    17    26    20    1
    18    19    18    1
    19    39    37    2
    20    20    18    1
    21    38    37    2
    22    18    16    1
    23    37    10    1
    24    37    34    1
    25    14    12    1
    26    10    15    1
    27    10    11    1
    28    16    15    1
    29    16    17    1
    30    34    30   ar
    31    34    35   ar
    32    30    31   ar
    33    11    12    1
    34    12    13    1
    35    35    36   ar
    36    31    36   ar
    37    31    32    1
    38    33    32   ar
    39    33    27   ar
    40    32    29   ar
    41    29    28   ar
    42    27    28   ar
