@<TRIPOS>MOLECULE
3sad_040_A_1.pdb
 15 15 0 0 0
SMALL
GASTEIGER

@<TRIPOS>ATOM
      1  C01       32.6190   76.4190   60.3900 C.3   802  040802      0.0311
      2  C02       33.2810   75.4690   61.3220 C.ar  802  040802     -0.0188
      3  C03       34.5580   75.7080   61.8750 C.ar  802  040802      0.0351
      4  C04       35.3480   76.9200   61.6140 C.2   802  040802      0.1988
      5  O05       35.5630   77.2780   60.2970 O.2   802  040802     -0.2865
      6  C06       35.9220   77.6350   62.5940 C.2   802  040802      0.0909
      7  C07       36.8400   78.7500   62.3810 C.2   802  040802      0.2779
      8  C08       37.8820   78.9380   63.4450 C.2   802  040802      0.4262
      9  O09       39.1590   78.8940   62.9660 O.co2 802  040802     -0.2369
     10  O10       37.8070   78.5500   64.6090 O.co2 802  040802     -0.2369
     11  O11       36.9600   79.3760   61.3300 O.2   802  040802     -0.2794
     12  C12       35.1450   74.7750   62.7560 C.ar  802  040802      0.0029
     13  C13       34.4890   73.5920   63.0730 C.ar  802  040802      0.0001
     14  C14       33.2250   73.3430   62.5120 C.ar  802  040802     -0.0003
     15  C15       32.6320   74.2680   61.6480 C.ar  802  040802     -0.0042
@<TRIPOS>BOND
     1     5     4    1
     2     1     2    1
     3     2    15   ar
     4     2     3   ar
     5    11     7    2
     6     4     3    1
     7     4     6    2
     8    15    14   ar
     9     3    12   ar
    10     7     6    1
    11     7     8    1
    12    14    13   ar
    13    12    13   ar
    14     9     8   ar
    15     8    10   ar
