@<TRIPOS>MOLECULE
3sae_FPS_A_1.pdb
 20 19 0 0 0
SMALL
GASTEIGER

@<TRIPOS>ATOM
      1  C1       103.7040   32.8530   45.7960 C.3   822  FPS822      0.0943
      2  S1       104.0540   31.2930   46.6540 S.3   822  FPS822     -0.0221
      3  C2       103.3710   32.5430   44.3500 C.2   822  FPS822     -0.0223
      4  C3       102.1520   32.2080   43.9790 C.2   822  FPS822     -0.0470
      5  C4       101.0410   32.1160   44.9970 C.3   822  FPS822      0.0261
      6  C5       101.8700   31.8190   42.5430 C.3   822  FPS822      0.0264
      7  C6       100.9580   32.8670   41.8970 C.3   822  FPS822      0.0297
      8  C7       101.6590   34.2070   41.9200 C.2   822  FPS822     -0.0342
      9  C8       102.3100   34.6320   40.8620 C.2   822  FPS822     -0.0478
     10  C10      102.9860   35.9870   40.8850 C.3   822  FPS822      0.0263
     11  C9       102.1900   33.8620   39.5710 C.3   822  FPS822      0.0260
     12  C11      104.4910   35.8470   40.6190 C.3   822  FPS822      0.0297
     13  C12      105.1980   35.3120   41.8420 C.2   822  FPS822     -0.0342
     14  C13      106.0150   34.2940   41.7220 C.2   822  FPS822     -0.0478
     15  C14      106.5490   33.5950   42.9480 C.3   822  FPS822      0.0260
     16  C15      106.2780   33.7260   40.3540 C.3   822  FPS822      0.0260
     17  PA       104.5110   32.0220   48.5820 P.3   822  FPS822      0.4456
     18  O1A      105.8950   32.5890   48.6110 O.2   822  FPS822     -0.2412
     19  O2A      103.5140   33.2160   48.9780 O.3   822  FPS822     -0.1297
     20  O3A      104.3950   30.7800   49.5900 O.3   822  FPS822     -0.1297
@<TRIPOS>BOND
     1    11     9    1
     2    16    14    1
     3    12    10    1
     4    12    13    1
     5     9    10    1
     6     9     8    2
     7    14    13    2
     8    14    15    1
     9     7     8    1
    10     7     6    1
    11     6     4    1
    12     4     3    2
    13     4     5    1
    14     3     1    1
    15     1     2    1
    16     2    17    1
    17    17    18    2
    18    17    19    1
    19    17    20    1
