@<TRIPOS>MOLECULE
3sai_9DR_A_1.pdb
 27 29 0 0 0
SMALL
GASTEIGER

@<TRIPOS>ATOM
      1  N1        42.4130  -22.0940    0.1060 N.2   163  9DR163     -0.3105
      2  C2        41.9240  -21.3720   -0.9140 C.1   163  9DR163      0.2419
      3  N3        41.9190  -21.8400   -2.1700 N.2   163  9DR163     -0.3332
      4  C4        42.3900  -23.0560   -2.4700 C.2   163  9DR163      0.1203
      5  C5        42.8990  -23.8320   -1.4310 C.3   163  9DR163      0.1831
      6  C6        42.8950  -23.3300   -0.1300 C.2   163  9DR163      0.2282
      7  CAA       43.5900  -23.0550   -4.6810 C.3   163  9DR163      0.0076
      8  CAB       44.6320  -30.8690   -6.0190 C.3   163  9DR163      0.2525
      9  NAC       41.4380  -20.1660   -0.7130 N.pl3 163  9DR163     -0.0232
     10  NAD       43.3700  -24.0720    0.8750 N.pl3 163  9DR163     -0.0955
     11  CAE       43.8440  -26.2640   -1.9680 C.1   163  9DR163     -0.0854
     12  CAF       43.4100  -25.1390   -1.7090 C.1   163  9DR163     -0.0760
     13  CAG       49.2460  -24.7090   -6.9580 C.ar  163  9DR163      0.0989
     14  CAH       49.4300  -24.0950   -4.7210 C.ar  163  9DR163      0.0989
     15  CAI       48.2880  -25.6740   -6.6450 C.ar  163  9DR163      0.0207
     16  CAJ       48.4840  -25.0460   -4.3380 C.ar  163  9DR163      0.0207
     17  CAK       45.0850  -28.7920   -4.3470 C.ar  163  9DR163      0.0336
     18  CAL       46.1710  -26.7050   -3.8150 C.ar  163  9DR163     -0.0031
     19  CAM       46.7830  -27.9250   -5.8120 C.ar  163  9DR163      0.0369
     20  CAN       42.3260  -23.4840   -3.9400 C.3   163  9DR163      0.0569
     21  CAO       44.3730  -27.6100   -2.2390 C.3   163  9DR163      0.1024
     22  NAP       49.7820  -23.9600   -5.9970 N.ar  163  9DR163     -0.2423
     23  OAS       45.7280  -29.9880   -6.3630 O.3   163  9DR163     -0.4714
     24  CAU       45.2340  -27.6890   -3.5040 C.ar  163  9DR163     -0.0062
     25  CAW       45.8560  -28.9180   -5.5110 C.ar  163  9DR163      0.1384
     26  CAX       47.8950  -25.8500   -5.3150 C.ar  163  9DR163      0.0032
     27  CAY       46.9450  -26.8200   -4.9770 C.ar  163  9DR163      0.0028
@<TRIPOS>BOND
     1    13    15   ar
     2    13    22   ar
     3    15    26   ar
     4    23     8    1
     5    23    25    1
     6    22    14   ar
     7    19    25   ar
     8    19    27   ar
     9    25    17   ar
    10    26    27    1
    11    26    16   ar
    12    27    18   ar
    13    14    16   ar
    14     7    20    1
    15    17    24   ar
    16    20     4    1
    17    18    24   ar
    18    24    21    1
    19     4     3    2
    20     4     5    1
    21    21    11    1
    22     3     2    2
    23    11    12    3
    24    12     5    1
    25     5     6    1
    26     2     9    1
    27     2     1    2
    28     6     1    2
    29     6    10    1
