@<TRIPOS>MOLECULE
3sai_NAP_A_1.pdb
 48 52 0 0 0
SMALL
GASTEIGER

@<TRIPOS>ATOM
      1  PA        43.0290  -34.3620    4.4070 P.3   207  NAP207      0.2189
      2  O1A       42.3290  -33.6770    5.5160 O.3   207  NAP207     -0.4371
      3  O2A       43.7880  -33.4120    3.5640 O.2   207  NAP207     -0.5170
      4  O5B       44.0170  -35.4900    4.9740 O.3   207  NAP207     -0.3112
      5  C5B       43.4920  -36.6030    5.6640 C.3   207  NAP207      0.1813
      6  C4B       44.6850  -37.2930    6.3000 C.3   207  NAP207      0.1820
      7  O4B       45.2180  -36.4770    7.3270 O.3   207  NAP207     -0.3136
      8  C3B       44.3860  -38.6140    6.9790 C.3   207  NAP207      0.2157
      9  O3B       44.2690  -39.6700    6.0710 O.3   207  NAP207     -0.2175
     10  C2B       45.6040  -38.7330    7.8750 C.3   207  NAP207      0.2314
     11  O2B       46.7560  -39.1330    7.1550 O.3   207  NAP207     -0.2630
     12  C1B       45.7890  -37.2880    8.3240 C.3   207  NAP207      0.3158
     13  N9A       45.0770  -37.1060    9.5970 N.pl3 207  NAP207     -0.1439
     14  C8A       43.7300  -36.9370    9.7760 C.3   207  NAP207      0.3377
     15  N7A       43.4940  -36.8140   11.1020 N.2   207  NAP207     -0.2095
     16  C5A       44.6630  -36.9070   11.7670 C.2   207  NAP207      0.2526
     17  C6A       44.9870  -36.8580   13.1140 C.2   207  NAP207      0.4393
     18  N6A       44.0350  -36.6870   14.0290 N.pl3 207  NAP207      0.2180
     19  N1A       46.3080  -36.9780   13.5010 N.2   207  NAP207      0.0021
     20  C2A       47.2980  -37.1560   12.5650 C.3   207  NAP207      0.5254
     21  N3A       46.9660  -37.2110   11.2290 N.2   207  NAP207     -0.0055
     22  C4A       45.6690  -37.0920   10.8340 C.2   207  NAP207      0.3518
     23  O3        41.9620  -35.2000    3.5420 O.3   207  NAP207     -0.2703
     24  PN        40.4240  -34.9080    3.1940 P.3   207  NAP207      0.2189
     25  O1N       39.9400  -36.0860    2.4270 O.2   207  NAP207     -0.5170
     26  O2N       39.7270  -34.4950    4.4380 O.3   207  NAP207     -0.4371
     27  O5D       40.5040  -33.6040    2.2470 O.3   207  NAP207     -0.3112
     28  C5D       41.0130  -33.7360    0.9360 C.3   207  NAP207      0.1813
     29  C4D       40.0340  -33.1260   -0.0580 C.3   207  NAP207      0.1799
     30  O4D       39.7990  -31.7410    0.2080 O.3   207  NAP207     -0.3327
     31  C3D       40.6020  -33.1870   -1.4640 C.3   207  NAP207      0.2158
     32  O3D       39.4940  -33.2960   -2.3290 O.3   207  NAP207     -0.2175
     33  C2D       41.2610  -31.8370   -1.6400 C.3   207  NAP207      0.2309
     34  O2D       41.3730  -31.4840   -3.0050 O.3   207  NAP207     -0.2158
     35  C1D       40.2770  -30.9530   -0.8790 C.3   207  NAP207      0.2263
     36  N1N       40.8470  -29.6900   -0.3920 N.pl3 207  NAP207     -0.2787
     37  C2N       40.2000  -28.5300   -0.7340 C.3   207  NAP207      0.1244
     38  C3N       40.6700  -27.2990   -0.2870 C.2   207  NAP207      0.0544
     39  C7N       39.9350  -26.0330   -0.6400 C.2   207  NAP207      0.2818
     40  O7N       40.2390  -24.8430    0.0480 O.2   207  NAP207     -0.2670
     41  N7N       39.0000  -26.0500   -1.5850 N.am  207  NAP207     -0.0839
     42  C4N       41.8090  -27.2590    0.5220 C.2   207  NAP207      0.0033
     43  C5N       42.4580  -28.4460    0.8620 C.2   207  NAP207      0.0157
     44  C6N       41.9630  -29.6660    0.4040 C.2   207  NAP207      0.0633
     45  P2B       47.2250  -40.6780    7.0800 P.3   207  NAP207      0.5328
     46  O1X       46.1310  -41.4460    6.3730 O.3   207  NAP207     -0.1145
     47  O2X       48.5080  -40.8200    6.3060 O.2   207  NAP207     -0.2224
     48  O3X       47.4120  -41.1800    8.4910 O.3   207  NAP207     -0.1145
@<TRIPOS>BOND
     1    34    33    1
     2    32    31    1
     3    33    31    1
     4    33    35    1
     5    41    39   am
     6    31    29    1
     7    35    36    1
     8    35    30    1
     9    37    36    1
    10    37    38    1
    11    39    38    1
    12    39    40    2
    13    36    44    1
    14    38    42    2
    15    29    30    1
    16    29    28    1
    17    44    43    2
    18    42    43    1
    19    28    27    1
    20    27    24    1
    21    25    24    2
    22    24    23    1
    23    24    26    1
    24    23     1    1
    25     3     1    2
    26     1     4    1
    27     1     2    1
    28     4     5    1
    29     5     6    1
    30     9     8    1
    31     6     8    1
    32     6     7    1
    33    47    45    2
    34    46    45    1
    35     8    10    1
    36    45    11    1
    37    45    48    1
    38    11    10    1
    39     7    12    1
    40    10    12    1
    41    12    13    1
    42    13    14    1
    43    13    22    1
    44    14    15    1
    45    22    21    2
    46    22    16    1
    47    15    16    2
    48    21    20    1
    49    16    17    1
    50    20    19    1
    51    17    19    2
    52    17    18    1
