@<TRIPOS>MOLECULE
3san_ZMR_A_1.pdb
 23 23 0 0 0
SMALL
GASTEIGER

@<TRIPOS>ATOM
      1  C1       -23.4440   20.1240   54.2640 C.2   901  ZMR901      0.4208
      2  O1A      -24.4510   20.6520   54.4520 O.co2 901  ZMR901     -0.2371
      3  O1B      -23.0350   18.9780   54.7870 O.co2 901  ZMR901     -0.2371
      4  C2       -22.4260   20.9410   53.5760 C.2   901  ZMR901      0.2172
      5  C3       -21.0780   20.3470   53.1670 C.2   901  ZMR901      0.0619
      6  C4       -20.1710   21.2610   52.3670 C.3   901  ZMR901      0.2297
      7  C5       -20.6020   22.6980   52.2630 C.3   901  ZMR901      0.1816
      8  N5       -19.8290   23.3910   51.2840 N.am  901  ZMR901     -0.1994
      9  C10      -18.8030   24.2950   51.6040 C.2   901  ZMR901      0.2420
     10  O10      -18.3340   24.3840   52.6500 O.2   901  ZMR901     -0.2733
     11  C11      -18.1400   24.8220   50.3730 C.3   901  ZMR901      0.0964
     12  C6       -22.0980   22.9380   52.2010 C.3   901  ZMR901      0.2224
     13  O6       -22.8820   22.2000   53.1120 O.2   901  ZMR901     -0.4683
     14  C7       -22.5150   24.3710   52.4040 C.3   901  ZMR901      0.2262
     15  O7       -22.3020   24.7570   53.6900 O.3   901  ZMR901     -0.2164
     16  C8       -23.9700   24.5030   52.0320 C.3   901  ZMR901      0.2185
     17  O8       -24.2270   24.0920   50.7700 O.3   901  ZMR901     -0.2174
     18  C9       -24.4240   25.9140   52.2720 C.3   901  ZMR901      0.2175
     19  O9       -23.8740   26.8470   51.4560 O.3   901  ZMR901     -0.2175
     20  NE       -18.7850   21.0110   52.6120 N.pl3 901  ZMR901     -0.0835
     21  CZ       -17.7910   21.0930   51.6140 C.cat 901  ZMR901      0.5348
     22  NH1      -18.1010   20.9400   50.3500 N.pl3 901  ZMR901      0.1354
     23  NH2      -16.5610   21.0900   52.0660 N.pl3 901  ZMR901      0.1354
@<TRIPOS>BOND
     1    22    21    1
     2    11     9    1
     3    17    16    1
     4     8     9   am
     5     8     7    1
     6    19    18    1
     7     9    10    2
     8    21    23    1
     9    21    20    2
    10    16    18    1
    11    16    14    1
    12    12     7    1
    13    12    14    1
    14    12    13    1
    15     7     6    1
    16     6    20    1
    17     6     5    1
    18    14    15    1
    19    13     4    1
    20     5     4    2
    21     4     1    1
    22     1     2   ar
    23     1     3   ar
