@<TRIPOS>MOLECULE
3sao_DBH_B_1.pdb
 11 11 0 0 0
SMALL
GASTEIGER

@<TRIPOS>ATOM
      1  O17      -38.3490   -1.8150  -44.6350 O.co2 162  DBH162     -0.2404
      2  C21      -38.2230   -0.6180  -44.2530 C.2   162  DBH162      0.3910
      3  O9       -38.4800   -0.2720  -43.0690 O.co2 162  DBH162     -0.2404
      4  C18      -37.6130    0.4240  -45.1520 C.ar  162  DBH162      0.1218
      5  C15      -37.4770    1.7230  -44.6710 C.ar  162  DBH162      0.0100
      6  C12      -36.9150    2.7090  -45.4460 C.ar  162  DBH162      0.0037
      7  C3       -37.1780    0.1550  -46.4260 C.ar  162  DBH162      0.2405
      8  O3       -37.3190   -1.1120  -46.9140 O.3   162  DBH162     -0.2829
      9  C6       -36.5490    1.1560  -47.1650 C.ar  162  DBH162      0.2345
     10  C9       -36.4410    2.4360  -46.6870 C.ar  162  DBH162      0.0454
     11  O6       -36.0630    0.9830  -48.4060 O.3   162  DBH162     -0.2831
@<TRIPOS>BOND
     1    11     9    1
     2     9    10   ar
     3     9     7   ar
     4     8     7    1
     5    10     6   ar
     6     7     4   ar
     7     6     5   ar
     8     4     5   ar
     9     4     2    1
    10     1     2   ar
    11     2     3   ar
