@<TRIPOS>MOLECULE
3sao_NKN_A_1.pdb
 16 15 0 0 0
SMALL
GASTEIGER

@<TRIPOS>ATOM
      1  OAA      -12.1980    6.6830  -19.5370 O.3   161  NKN161     -0.1145
      2  OAB      -12.7260    4.7190  -20.7630 O.2   161  NKN161     -0.2224
      3  PAC      -13.1010    5.4860  -19.5270 P.3   161  NKN161      0.5327
      4  OAD      -13.1290    4.6930  -18.2440 O.3   161  NKN161     -0.1145
      5  OAE      -20.6840    4.2640  -17.6950 O.2   161  NKN161     -0.2501
      6  OAF      -14.6020    6.0010  -19.7330 O.3   161  NKN161     -0.2674
      7  CAG      -15.3980    6.7230  -18.7860 C.3   161  NKN161      0.1904
      8  CAH      -16.8620    6.7470  -19.2140 C.3   161  NKN161      0.2254
      9  CAI      -17.9040    6.3260  -18.1630 C.3   161  NKN161      0.2437
     10  OAJ      -18.9020    5.4490  -18.7290 O.3   161  NKN161     -0.4456
     11  CAK      -20.2910    5.2760  -18.2780 C.2   161  NKN161      0.3171
     12  CAL      -21.3090    6.3350  -18.6100 C.3   161  NKN161      0.1096
     13  CAM      -22.4050    5.7130  -19.4640 C.3   161  NKN161      0.0116
     14  CAN      -23.2860    6.7630  -20.1300 C.3   161  NKN161      0.0006
     15  CAO      -22.7510    8.1800  -19.9250 C.3   161  NKN161      0.0000
     16  OAY      -17.1450    8.1010  -19.5790 O.3   161  NKN161     -0.2164
@<TRIPOS>BOND
     1     2     3    2
     2    14    15    1
     3    14    13    1
     4     6     3    1
     5     6     7    1
     6    16     8    1
     7     1     3    1
     8     3     4    1
     9    13    12    1
    10     8     7    1
    11     8     9    1
    12    10    11    1
    13    10     9    1
    14    12    11    1
    15    11     5    2
