@<TRIPOS>MOLECULE
3sap_E2I_A_1.pdb
 24 25 0 0 0
SMALL
GASTEIGER

@<TRIPOS>ATOM
      1  N1        -0.5030    8.7320   14.8530 N.2   266  E2I266     -0.1879
      2  C2         0.1480    9.7390   15.3690 C.2   266  E2I266      0.1035
      3  C3         0.1890   11.0140   14.8470 C.2   266  E2I266      0.0006
      4  C4        -0.5150   11.2910   13.6640 C.3   266  E2I266      0.1605
      5  N5        -1.1690   10.2110   13.1710 N.2   266  E2I266     -0.2102
      6  C6        -1.1330    8.9760   13.7890 C.1   266  E2I266      0.0603
      7  C13        1.0150   11.9230   15.6620 C.3   266  E2I266      0.0256
      8  C15        2.4780   11.5550   15.2910 C.3   266  E2I266      0.0045
      9  C17        3.4690   11.8180   16.4250 C.3   266  E2I266      0.0003
     10  C19        3.8980   10.5430   17.1850 C.3   266  E2I266      0.0000
     11  S21       -1.9390    7.5770   13.1770 S.3   266  E2I266     -0.0345
     12  C23       -2.0780    5.8720   13.7480 C.3   266  E2I266      0.1412
     13  C25       -3.5400    5.4540   13.5820 C.2   266  E2I266      0.1849
     14  O27       -4.2870    6.0380   12.7900 O.2   266  E2I266     -0.2904
     15  C29       -4.1460    4.3250   14.3680 C.ar  266  E2I266      0.0357
     16  C31       -5.5220    4.2950   14.6170 C.ar  266  E2I266      0.0042
     17  C32       -6.0260    3.2000   15.3590 C.ar  266  E2I266      0.0201
     18  C33       -5.1990    2.2010   15.8480 C.ar  266  E2I266      0.1250
     19  C34       -3.8460    2.2420   15.5920 C.ar  266  E2I266      0.0201
     20  C35       -3.3150    3.3020   14.8470 C.ar  266  E2I266      0.0042
     21  S42       -5.8530    0.8040   16.7700 S.O2  266  E2I266      0.0935
     22  O44       -5.3050    0.9610   18.1290 O.2   266  E2I266     -0.1503
     23  O46       -7.3140    0.9010   16.6260 O.2   266  E2I266     -0.1503
     24  N48       -5.1390   -0.5220   15.9850 N.3   266  E2I266      0.0392
@<TRIPOS>BOND
     1    14    13    2
     2     5     4    1
     3     5     6    2
     4    11    12    1
     5    11     6    1
     6    13    12    1
     7    13    15    1
     8     4     3    1
     9     6     1    2
    10    15    16   ar
    11    15    20   ar
    12    16    17   ar
    13     3     2    2
    14     3     7    1
    15    20    19   ar
    16     1     2    1
    17     8     7    1
    18     8     9    1
    19    17    18   ar
    20    19    18   ar
    21    18    21    1
    22    24    21    1
    23     9    10    1
    24    23    21    2
    25    21    22    2
