@<TRIPOS>MOLECULE
3sax_E50_A_1.pdb
 23 24 0 0 0
SMALL
GASTEIGER

@<TRIPOS>ATOM
      1  N1        -0.4910    4.8960   11.1950 N.2   263  E50263     -0.1879
      2  C2        -1.4110    4.1500   11.7850 C.1   263  E50263      0.0603
      3  N3        -2.0900    4.5660   12.8890 N.2   263  E50263     -0.2102
      4  C4        -1.8940    5.8070   13.4560 C.3   263  E50263      0.1605
      5  C5        -0.9270    6.6330   12.8910 C.2   263  E50263      0.0006
      6  C6        -0.2560    6.1370   11.7460 C.2   263  E50263      0.1035
      7  S7        -1.7110    2.5940   11.0480 S.3   263  E50263     -0.0345
      8  C8        -2.9990    1.9780   12.1560 C.3   263  E50263      0.1412
      9  C9        -4.1790    2.9210   12.2730 C.2   263  E50263      0.1850
     10  O10       -4.5440    3.5820   11.2440 O.2   263  E50263     -0.2904
     11  C11       -0.5940    8.0310   13.4070 C.3   263  E50263      0.0256
     12  C12       -1.2990    8.3380   14.7670 C.3   263  E50263      0.0048
     13  C13       -4.8570    3.0830   13.6290 C.ar  263  E50263      0.0370
     14  C14       -4.9810    2.0570   14.5510 C.ar  263  E50263      0.0237
     15  C15       -5.6200    2.2540   15.7720 C.ar  263  E50263      0.1356
     16  C16       -6.0780    3.5460   16.0670 C.ar  263  E50263      0.0763
     17  C17       -5.9080    4.5950   15.2060 C.ar  263  E50263      0.0128
     18  C18       -5.3010    4.3680   13.9620 C.ar  263  E50263      0.0038
     19  S19       -5.9820    0.8130   16.8060 S.O2  263  E50263      0.0943
     20  O20       -5.3400    1.0550   18.0790 O.2   263  E50263     -0.1503
     21 CL21       -6.8510    3.8100   17.5760 Cl    263  E50263     -0.0809
     22  O22       -7.4370    0.7700   16.7900 O.2   263  E50263     -0.1503
     23  N23       -5.4280   -0.4780   16.0830 N.3   263  E50263      0.0392
@<TRIPOS>BOND
     1     7     2    1
     2     7     8    1
     3     1     6    1
     4     1     2    2
     5    10     9    2
     6     6     5    2
     7     2     3    2
     8     8     9    1
     9     9    13    1
    10     3     4    1
    11     5    11    1
    12     5     4    1
    13    11    12    1
    14    13    18   ar
    15    13    14   ar
    16    18    17   ar
    17    14    15   ar
    18    17    16   ar
    19    15    16   ar
    20    15    19    1
    21    16    21    1
    22    23    19    1
    23    22    19    2
    24    19    20    2
