@<TRIPOS>MOLECULE
3say_OFT_A_1.pdb
 29 32 0 0 0
SMALL
GASTEIGER

@<TRIPOS>ATOM
      1  C1       -13.9430   16.0900  -31.1040 C.ar  431  OFT431      0.0042
      2  C2       -12.6460   15.5940  -31.1350 C.ar  431  OFT431      0.0520
      3  C3       -11.7670   15.7110  -32.3380 C.ar  431  OFT431      0.1331
      4  C4       -12.3050   16.3510  -33.4510 C.ar  431  OFT431      0.0321
      5  C5       -13.6150   16.8460  -33.4030 C.ar  431  OFT431      0.0026
      6  C6       -14.4160   16.7240  -32.2580 C.ar  431  OFT431      0.0002
      7  C7       -11.8070   14.8870  -30.1630 C.2   431  OFT431      0.1432
      8  C8       -10.5310   14.6490  -30.8540 C.2   431  OFT431      0.1632
      9  N9       -10.5570   15.1420  -32.1040 N.2   431  OFT431     -0.3995
     10  C10       -9.3210   13.9660  -30.3210 C.2   431  OFT431      0.1282
     11  C11       -9.0530   13.3480  -29.0060 C.ar  431  OFT431      0.0464
     12  C12       -7.6430   12.8430  -29.1590 C.ar  431  OFT431      0.1452
     13  N13       -7.1420   13.1200  -30.3970 N.2   431  OFT431     -0.3328
     14  C14       -8.0890   13.7770  -31.0970 C.1   431  OFT431      0.2073
     15  C15       -9.7750   13.1760  -27.8230 C.ar  431  OFT431      0.0233
     16  C16       -9.1470   12.5050  -26.7600 C.ar  431  OFT431      0.1224
     17  C17       -7.8300   12.0470  -26.9010 C.ar  431  OFT431      0.0226
     18  C18       -7.0850   12.2000  -28.0700 C.ar  431  OFT431      0.0344
     19  O19       -7.9430   14.1840  -32.3010 O.2   431  OFT431     -0.2092
     20  N20      -12.1690   14.5370  -28.8930 N.4   431  OFT431     -0.0937
     21  O21      -13.4420   14.8470  -28.4100 O.3   431  OFT431     -0.0604
     22  S22       -9.8640   12.2430  -25.3420 S.O2  431  OFT431      0.0633
     23  O23       -9.3320   11.0350  -24.7730 O.2   431  OFT431     -0.1528
     24  O24       -9.5200   13.3230  -24.4610 O.2   431  OFT431     -0.1528
     25  N25      -11.4100   12.1410  -25.4200 N.3   431  OFT431     -0.1555
     26  C26      -12.2600   12.9250  -24.5130 C.3   431  OFT431      0.0958
     27  C27      -12.5930   14.3050  -25.0530 C.3   431  OFT431      0.0206
     28  C28      -12.0450   11.2000  -26.3520 C.3   431  OFT431      0.0958
     29  C29      -13.1850   11.7910  -27.1600 C.3   431  OFT431      0.0206
@<TRIPOS>BOND
     1     4     5   ar
     2     4     3   ar
     3     5     6   ar
     4     3     9    2
     5     3     2   ar
     6    19    14    2
     7     6     1   ar
     8     9     8    2
     9     2     1   ar
    10     2     7    2
    11    14    13    2
    12    14    10    1
    13     8    10    1
    14     8     7    1
    15    13    12    2
    16    10    11    2
    17     7    20    1
    18    12    11   ar
    19    12    18   ar
    20    11    15   ar
    21    20    21    1
    22    18    17   ar
    23    15    16   ar
    24    29    28    1
    25    17    16   ar
    26    16    22    1
    27    28    25    1
    28    25    22    1
    29    25    26    1
    30    22    23    2
    31    22    24    2
    32    27    26    1
