@<TRIPOS>MOLECULE
3saz_043_A_1.pdb
 15 15 0 0 0
SMALL
GASTEIGER

@<TRIPOS>ATOM
      1  O01       39.0530   79.6030   63.3480 O.co2 801  043801     -0.2369
      2  C02       37.7770   79.5560   63.8870 C.2   801  043801      0.4262
      3  O03       37.6280   79.2350   65.0270 O.co2 801  043801     -0.2369
      4  C04       36.6520   79.4250   62.8800 C.2   801  043801      0.2779
      5  O05       36.6800   80.0830   61.8870 O.2   801  043801     -0.2794
      6  C06       35.6950   78.2480   63.0560 C.2   801  043801      0.0910
      7  C07       35.1030   77.6860   62.0230 C.2   801  043801      0.1991
      8  O08       35.1400   78.2980   60.7730 O.2   801  043801     -0.2865
      9  C09       34.2350   76.4460   62.2300 C.ar  801  043801      0.0396
     10  C10       34.6030   75.4660   63.1940 C.ar  801  043801      0.0032
     11  C11       33.8100   74.3180   63.3840 C.ar  801  043801      0.0006
     12  C12       32.6420   74.1590   62.6010 C.ar  801  043801      0.0067
     13  C13       32.2880   75.1390   61.6400 C.ar  801  043801      0.0347
     14 BR14       30.6870   74.9310   60.5700 Br    801  043801     -0.0490
     15  C15       33.0750   76.2930   61.4460 C.ar  801  043801      0.0099
@<TRIPOS>BOND
     1    14    13    1
     2     8     7    1
     3    15    13   ar
     4    15     9   ar
     5    13    12   ar
     6     5     4    2
     7     7     9    1
     8     7     6    2
     9     9    10   ar
    10    12    11   ar
    11     4     6    1
    12     4     2    1
    13    10    11   ar
    14     1     2   ar
    15     2     3   ar
