@<TRIPOS>MOLECULE
3sb0_I93_A_1.pdb
 17 17 0 0 0
SMALL
GASTEIGER

@<TRIPOS>ATOM
      1  C01       30.9260   75.4860   60.6540 C.3   802  I93802      0.0319
      2  C02       32.2210   75.6340   61.3950 C.ar  802  I93802     -0.0110
      3  C03       32.6740   74.6150   62.2560 C.ar  802  I93802     -0.0011
      4  C04       33.8640   74.7240   62.9780 C.ar  802  I93802      0.0295
      5  C05       34.6580   75.8830   62.8600 C.ar  802  I93802      0.1440
      6  F06       35.8160   75.9680   63.5570 F     802  I93802     -0.2040
      7  C07       34.2480   76.9360   62.0140 C.ar  802  I93802      0.0767
      8  C08       35.0950   78.1710   61.8500 C.2   802  I93802      0.2020
      9  O09       35.3740   78.5240   60.6950 O.2   802  I93802     -0.2864
     10  C10       35.9200   78.6940   62.9530 C.2   802  I93802      0.0911
     11  C11       36.7470   79.7680   62.8430 C.2   802  I93802      0.2779
     12  O12       36.7470   80.5560   61.7230 O.2   802  I93802     -0.2794
     13  C13       37.8540   80.0620   63.7940 C.2   802  I93802      0.4262
     14  O14       37.6960   79.7370   65.1020 O.co2 802  I93802     -0.2369
     15  O15       39.0360   80.0260   63.4430 O.co2 802  I93802     -0.2369
     16  C16       33.0420   76.7780   61.2980 C.ar  802  I93802      0.0589
     17 CL17       32.5670   78.0730   60.3070 Cl    802  I93802     -0.0824
@<TRIPOS>BOND
     1    17    16    1
     2     1     2    1
     3     9     8    2
     4    16     2   ar
     5    16     7   ar
     6     2     3   ar
     7    12    11    1
     8     8     7    1
     9     8    10    1
    10     7     5   ar
    11     3     4   ar
    12    11    10    2
    13    11    13    1
    14     5     4   ar
    15     5     6    1
    16    15    13   ar
    17    13    14   ar
