@<TRIPOS>MOLECULE
3sbd_GNP_A_1.pdb
 32 34 0 0 0
SMALL
GASTEIGER

@<TRIPOS>ATOM
      1  PG        14.3570   72.8770   14.6490 P.3   500  GNP500      0.4884
      2  O1G       15.3380   71.9190   14.0090 O.2   500  GNP500     -0.2331
      3  O2G       13.7520   72.3100   15.9100 O.3   500  GNP500     -0.1240
      4  O3G       15.0880   74.1770   14.7980 O.3   500  GNP500     -0.1240
      5  N3B       13.1510   73.1740   13.6330 N.3   500  GNP500     -0.0163
      6  PB        12.0090   72.1620   13.1160 P.3   500  GNP500      0.4669
      7  O1B       12.5270   71.3180   12.0220 O.2   500  GNP500     -0.2351
      8  O2B       11.4300   71.3870   14.2430 O.3   500  GNP500     -0.1253
      9  O3A       10.8630   73.0390   12.5250 O.3   500  GNP500     -0.2360
     10  PA         9.4990   73.3820   13.2070 P.3   500  GNP500      0.2220
     11  O1A        8.5990   72.2040   13.2340 O.2   500  GNP500     -0.5170
     12  O2A        9.7120   74.0560   14.4840 O.3   500  GNP500     -0.4370
     13  O5'        8.7380   74.4100   12.2800 O.3   500  GNP500     -0.3111
     14  C5'        9.4690   75.4930   11.6690 C.3   500  GNP500      0.1813
     15  C4'        8.5100   76.4730   11.0080 C.3   500  GNP500      0.1799
     16  O4'        7.8510   75.8980    9.8400 O.3   500  GNP500     -0.3326
     17  C3'        7.3960   76.9660   11.9220 C.3   500  GNP500      0.2158
     18  O3'        7.0820   78.3510   11.6800 O.3   500  GNP500     -0.2175
     19  C2'        6.2170   76.1150   11.4830 C.3   500  GNP500      0.2310
     20  O2'        4.9580   76.7070   11.8120 O.3   500  GNP500     -0.2158
     21  C1'        6.4610   75.9300    9.9930 C.3   500  GNP500      0.2293
     22  N9         5.9180   74.6670    9.4940 N.pl3 500  GNP500     -0.2354
     23  C8         6.1780   73.3810    9.9690 C.3   500  GNP500      0.2246
     24  N7         5.5330   72.4390    9.3180 N.2   500  GNP500     -0.2322
     25  C5         4.7890   73.1590    8.3630 C.2   500  GNP500      0.2182
     26  C6         3.8840   72.7110    7.3680 C.1   500  GNP500      0.2372
     27  O6         3.5430   71.5440    7.1170 O.2   500  GNP500     -0.2069
     28  N1         3.3500   73.7690    6.6070 N.2   500  GNP500     -0.2485
     29  C2         3.6530   75.1080    6.7770 C.1   500  GNP500      0.2531
     30  N2         3.0580   75.9840    5.9490 N.pl3 500  GNP500     -0.0226
     31  N3         4.4850   75.5320    7.7050 N.2   500  GNP500     -0.3074
     32  C4         5.0160   74.5180    8.4570 C.2   500  GNP500      0.2300
@<TRIPOS>BOND
     1    30    29    1
     2    28    29    2
     3    28    26    2
     4    29    31    2
     5    27    26    2
     6    26    25    1
     7    31    32    2
     8    25    32    1
     9    25    24    2
    10    32    22    1
    11    24    23    1
    12    22    23    1
    13    22    21    1
    14    16    21    1
    15    16    15    1
    16    21    19    1
    17    15    14    1
    18    15    17    1
    19    19    20    1
    20    19    17    1
    21    14    13    1
    22    18    17    1
    23     7     6    2
    24    13    10    1
    25     9     6    1
    26     9    10    1
    27     6     5    1
    28     6     8    1
    29    10    11    2
    30    10    12    1
    31     5     1    1
    32     2     1    2
    33     1     4    1
    34     1     3    1
