@<TRIPOS>MOLECULE
3sbe_GNP_A_1.pdb
 32 34 0 0 0
SMALL
GASTEIGER

@<TRIPOS>ATOM
      1  PG       -12.5940   17.3670   -9.5540 P.3   500  GNP500      0.4884
      2  O1G      -11.8820   18.3900  -10.4230 O.2   500  GNP500     -0.2331
      3  O2G      -11.8990   16.9070   -8.2920 O.3   500  GNP500     -0.1240
      4  O3G      -13.9420   18.0620   -9.3710 O.3   500  GNP500     -0.1240
      5  N3B      -12.8830   15.9980  -10.3460 N.3   500  GNP500     -0.0163
      6  PB       -11.8890   15.1790  -11.3020 P.3   500  GNP500      0.4669
      7  O1B      -11.4230   16.0990  -12.3930 O.2   500  GNP500     -0.2351
      8  O2B      -10.8750   14.5460  -10.3870 O.3   500  GNP500     -0.1253
      9  O3A      -12.7130   14.0290  -11.9440 O.3   500  GNP500     -0.2360
     10  PA       -12.9630   12.6110  -11.3520 P.3   500  GNP500      0.2220
     11  O1A      -11.6890   11.8480  -11.2730 O.2   500  GNP500     -0.5170
     12  O2A      -13.7180   12.6510  -10.0760 O.3   500  GNP500     -0.4370
     13  O5'      -13.8680   11.8420  -12.4000 O.3   500  GNP500     -0.3111
     14  C5'      -15.0540   12.4830  -12.9600 C.3   500  GNP500      0.1813
     15  C4'      -15.9820   11.4970  -13.6700 C.3   500  GNP500      0.1799
     16  O4'      -15.3380   10.9800  -14.8720 O.3   500  GNP500     -0.3326
     17  C3'      -16.4200   10.2600  -12.8750 C.3   500  GNP500      0.2158
     18  O3'      -17.7270    9.7950  -13.2880 O.3   500  GNP500     -0.2175
     19  C2'      -15.3510    9.2680  -13.2880 C.3   500  GNP500      0.2310
     20  O2'      -15.6880    7.9080  -13.1050 O.3   500  GNP500     -0.2158
     21  C1'      -15.2420    9.5760  -14.7730 C.3   500  GNP500      0.2293
     22  N9       -13.9570    9.1510  -15.3310 N.pl3 500  GNP500     -0.2354
     23  C8       -12.6800    9.4390  -14.8690 C.3   500  GNP500      0.2246
     24  N7       -11.7140    8.9050  -15.5670 N.2   500  GNP500     -0.2322
     25  C5       -12.3940    8.2010  -16.5530 C.2   500  GNP500      0.2182
     26  C6       -11.8930    7.4240  -17.6140 C.1   500  GNP500      0.2372
     27  O6       -10.7160    7.2110  -17.8770 O.2   500  GNP500     -0.2069
     28  N1       -12.9110    6.8650  -18.3980 N.2   500  GNP500     -0.2485
     29  C2       -14.2720    7.0570  -18.1950 C.1   500  GNP500      0.2531
     30  N2       -15.1130    6.4540  -19.0500 N.pl3 500  GNP500     -0.0226
     31  N3       -14.7630    7.8020  -17.2090 N.2   500  GNP500     -0.3074
     32  C4       -13.7730    8.3330  -16.4270 C.2   500  GNP500      0.2300
@<TRIPOS>BOND
     1    30    29    1
     2    28    29    2
     3    28    26    2
     4    29    31    2
     5    27    26    2
     6    26    25    1
     7    31    32    2
     8    25    32    1
     9    25    24    2
    10    32    22    1
    11    24    23    1
    12    22    23    1
    13    22    21    1
    14    16    21    1
    15    16    15    1
    16    21    19    1
    17    15    14    1
    18    15    17    1
    19    18    17    1
    20    19    20    1
    21    19    17    1
    22    14    13    1
    23    13    10    1
    24     7     6    2
    25     9    10    1
    26     9     6    1
    27    10    11    2
    28    10    12    1
    29     6     8    1
    30     6     5    1
    31     2     1    2
    32     5     1    1
    33     1     4    1
    34     1     3    1
