@<TRIPOS>MOLECULE
3sbf_D8T_A_1.pdb
 11 10 0 0 0
SMALL
GASTEIGER

@<TRIPOS>ATOM
      1  OAA      -28.0060   54.9630   30.4370 O.co2 404  D8T404     -0.2427
      2  OAB      -24.9050   54.4680   31.5510 O.3   404  D8T404     -0.2169
      3  OAC      -25.0840   57.8560   32.8930 O.3   404  D8T404     -0.2175
      4  CAD      -27.8220   54.6500   31.6300 C.2   404  D8T404      0.3973
      5  CAE      -26.8650   55.5480   32.4340 C.3   404  D8T404      0.2865
      6  CAF      -25.4930   55.7580   31.7520 C.3   404  D8T404      0.2260
      7  CAG      -24.5290   56.5670   32.6250 C.3   404  D8T404      0.2180
      8  CAH      -23.1800   56.7740   31.9360 C.3   404  D8T404      0.2175
      9  OAI      -23.3690   57.4330   30.6790 O.3   404  D8T404     -0.2175
     10  OAJ      -28.3490   53.6600   32.2000 O.co2 404  D8T404     -0.2427
     11  OAK      -26.6230   54.9930   33.7330 O.3   404  D8T404     -0.2080
@<TRIPOS>BOND
     1     1     4   ar
     2     9     8    1
     3     2     6    1
     4     4    10   ar
     5     4     5    1
     6     6     5    1
     7     6     7    1
     8     8     7    1
     9     5    11    1
    10     7     3    1
