@<TRIPOS>MOLECULE
3sbh_E65_A_1.pdb
 22 23 0 0 0
SMALL
GASTEIGER

@<TRIPOS>ATOM
      1  N1        -1.3560    9.0120   11.4600 N.2   266  E65266     -0.3434
      2  C2        -1.5440    7.8500   12.1120 C.1   266  E65266      0.1673
      3  N3        -1.4420    7.9540   13.4360 N.2   266  E65266     -0.3434
      4  C4        -1.1900    9.0050   14.1490 C.2   266  E65266      0.1067
      5  C5        -1.0020   10.2410   13.5110 C.3   266  E65266      0.1106
      6  C6        -1.0940   10.1920   12.1250 C.2   266  E65266      0.1067
      7  S7        -1.8870    6.1790   11.4530 S.3   266  E65266     -0.0099
      8  C8        -2.0450    5.1780   12.9480 C.3   266  E65266      0.1432
      9  C9        -3.5030    5.2490   13.3330 C.2   266  E65266      0.1850
     10  O10       -4.1950    6.0990   12.8090 O.2   266  E65266     -0.2904
     11  C11       -1.1360    8.7320   15.5790 C.3   266  E65266      0.0629
     12  C12       -0.8980   11.4970   11.3900 C.3   266  E65266      0.0629
     13  C13       -4.1800    4.2360   14.2170 C.ar  266  E65266      0.0357
     14  C14       -3.3950    3.1790   14.5780 C.ar  266  E65266      0.0042
     15  C15       -3.9210    2.1820   15.4310 C.ar  266  E65266      0.0201
     16  C16       -5.2530    2.2380   15.7830 C.ar  266  E65266      0.1250
     17  C17       -6.0630    3.2960   15.3870 C.ar  266  E65266      0.0201
     18  C18       -5.5460    4.3270   14.5820 C.ar  266  E65266      0.0042
     19  S19       -5.9030    0.8760   16.7610 S.O2  266  E65266      0.0935
     20  O20       -7.3790    0.8960   16.5530 O.2   266  E65266     -0.1503
     21  O21       -5.3080    1.0000   18.0900 O.2   266  E65266     -0.1503
     22  N22       -5.2190   -0.4730   16.0140 N.3   266  E65266      0.0392
@<TRIPOS>BOND
     1    12     6    1
     2     7     2    1
     3     7     8    1
     4     1     2    2
     5     1     6    2
     6     2     3    2
     7     6     5    1
     8    10     9    2
     9     8     9    1
    10     9    13    1
    11     3     4    2
    12     5     4    1
    13     4    11    1
    14    13    14   ar
    15    13    18   ar
    16    14    15   ar
    17    18    17   ar
    18    17    16   ar
    19    15    16   ar
    20    16    19    1
    21    22    19    1
    22    20    19    2
    23    19    21    2
