@<TRIPOS>MOLECULE
3sbi_E90_A_1.pdb
 20 21 0 0 0
SMALL
GASTEIGER

@<TRIPOS>ATOM
      1  N1        -1.4790    7.6830   14.3790 N.2   266  E90266     -0.1876
      2  C2        -1.4180    7.8330   13.0180 C.1   266  E90266      0.0603
      3  N3        -1.1600    8.9920   12.3710 N.2   266  E90266     -0.2099
      4  C4        -0.9880   10.1100   13.1510 C.3   266  E90266      0.1645
      5  C5        -0.9810   10.0090   14.5590 C.2   266  E90266      0.0223
      6  C6        -1.3000    8.7590   15.1460 C.2   266  E90266      0.1075
      7  S7        -1.5940    6.5000   11.9640 S.3   266  E90266     -0.0345
      8  C8        -2.1290    5.1910   13.1300 C.3   266  E90266      0.1412
      9  C9        -3.6070    5.3290   13.5370 C.2   266  E90266      0.1849
     10  O10       -4.3230    6.2820   13.1760 O.2   266  E90266     -0.2904
     11  C11       -4.2050    4.2530   14.3930 C.ar  266  E90266      0.0357
     12  C12       -3.4050    3.1720   14.8040 C.ar  266  E90266      0.0042
     13  C13       -3.9480    2.1640   15.5630 C.ar  266  E90266      0.0201
     14  C14       -5.3020    2.2080   15.8730 C.ar  266  E90266      0.1250
     15  C15       -6.1250    3.2320   15.4790 C.ar  266  E90266      0.0201
     16  C16       -5.5450    4.2850   14.7680 C.ar  266  E90266      0.0042
     17  S17       -5.9470    0.8670   16.8390 S.O2  266  E90266      0.0935
     18  O18       -5.3920    1.0640   18.1650 O.2   266  E90266     -0.1503
     19  O19       -7.4020    0.9580   16.7000 O.2   266  E90266     -0.1503
     20  N20       -5.3270   -0.5120   16.2250 N.3   266  E90266      0.0392
@<TRIPOS>BOND
     1     7     2    1
     2     7     8    1
     3     3     2    2
     4     3     4    1
     5     2     1    2
     6     8     9    1
     7     4     5    1
     8    10     9    2
     9     9    11    1
    10     1     6    1
    11    11    16   ar
    12    11    12   ar
    13     5     6    2
    14    16    15   ar
    15    12    13   ar
    16    15    14   ar
    17    13    14   ar
    18    14    17    1
    19    20    17    1
    20    19    17    2
    21    17    18    2
