@<TRIPOS>MOLECULE
3sbk_0G6_A_1.pdb
 30 31 0 0 0
SMALL
GASTEIGER

@<TRIPOS>ATOM
      1  N          1.1530  -37.3130  -10.1790 N.3   302  0G6302     -0.1228
      2  CA         2.0050  -36.1150  -10.4610 C.3   302  0G6302      0.1721
      3  C          1.5260  -34.8890   -9.7040 C.2   302  0G6302      0.2437
      4  O          0.9830  -35.0050   -8.5930 O.2   302  0G6302     -0.2733
      5  CB         3.5050  -36.4000  -10.2410 C.3   302  0G6302      0.0547
      6  CG         4.1970  -35.5460   -9.1890 C.ar  302  0G6302     -0.0202
      7  CD1        4.7780  -34.3320   -9.5150 C.ar  302  0G6302     -0.0042
      8  CD2        4.3770  -36.0240   -7.8970 C.ar  302  0G6302     -0.0042
      9  CE1        5.4550  -33.5880   -8.5570 C.ar  302  0G6302     -0.0003
     10  CE2        5.0550  -35.2910   -6.9380 C.ar  302  0G6302     -0.0003
     11  CZ         5.5850  -34.0650   -7.2670 C.ar  302  0G6302     -0.0000
     12  N1         1.7050  -33.7150  -10.3350 N.am  302  0G6302     -0.2718
     13  CA1        1.3150  -32.4150   -9.7930 C.3   302  0G6302      0.1535
     14  C1        -0.1920  -32.3740   -9.5200 C.2   302  0G6302      0.2595
     15  O1        -1.0100  -32.5620  -10.4260 O.2   302  0G6302     -0.2716
     16  CB1        1.7180  -31.4330  -10.9060 C.3   302  0G6302      0.0310
     17  CG1        1.6990  -32.2580  -12.1650 C.3   302  0G6302      0.0237
     18  CD         2.1360  -33.6290  -11.7420 C.3   302  0G6302      0.0939
     19  N2        -0.0960  -31.5150   -8.5020 N.am  302  0G6302     -0.2032
     20  CA2       -1.4400  -31.2110   -8.0050 C.3   302  0G6302      0.1257
     21  C2        -1.7870  -29.7490   -8.2730 C.3   302  0G6302      0.1718
     22  O2        -3.2020  -29.6460   -8.2570 O.3   302  0G6302     -0.2213
     23  CB2       -1.5080  -31.6770   -6.5460 C.3   302  0G6302      0.0280
     24  CG2       -2.1000  -33.0770   -6.4940 C.3   302  0G6302      0.0488
     25  CD3       -1.5360  -33.8890   -5.3320 C.3   302  0G6302      0.2205
     26  NE        -2.3390  -35.0490   -4.9730 N.pl3 302  0G6302     -0.0865
     27  CZ1       -2.1080  -36.0380   -4.0820 C.cat 302  0G6302      0.5346
     28  NH1       -1.5260  -35.8360   -2.9730 N.pl3 302  0G6302      0.1354
     29  NH2       -2.5440  -37.2810   -4.3650 N.pl3 302  0G6302      0.1354
     30  C3        -1.3070  -29.2020   -9.6200 C.3   302  0G6302      0.0373
@<TRIPOS>BOND
     1    17    18    1
     2    17    16    1
     3    18    12    1
     4    16    13    1
     5     2     5    1
     6     2     1    1
     7     2     3    1
     8    15    14    2
     9    12    13    1
    10    12     3   am
    11     5     6    1
    12    13    14    1
    13     3     4    2
    14    30    21    1
    15    14    19   am
    16     7     6   ar
    17     7     9   ar
    18     6     8   ar
    19     9    11   ar
    20    19    20    1
    21    21    22    1
    22    21    20    1
    23    20    23    1
    24     8    10   ar
    25    11    10   ar
    26    23    24    1
    27    24    25    1
    28    25    26    1
    29    26    27    2
    30    29    27    1
    31    27    28    1
