@<TRIPOS>MOLECULE
3sbx_AMP_A_1.pdb
 23 25 0 0 0
SMALL
GASTEIGER

@<TRIPOS>ATOM
      1  P         -0.9360   -8.8620   20.3380 P.3   188  AMP188      0.5327
      2  O1P       -2.0400   -9.5560   19.5700 O.2   188  AMP188     -0.2224
      3  O2P       -1.2770   -8.5830   21.7880 O.3   188  AMP188     -0.1145
      4  O3P        0.4480   -9.4150   20.0930 O.3   188  AMP188     -0.1145
      5  O5'       -0.9260   -7.3940   19.6690 O.3   188  AMP188     -0.2675
      6  C5'        0.3270   -6.7850   19.3650 C.3   188  AMP188      0.1860
      7  C4'        0.1250   -5.5880   18.4470 C.3   188  AMP188      0.1823
      8  O4'       -0.1880   -5.9730   17.1000 O.3   188  AMP188     -0.3135
      9  C3'       -1.0540   -4.7740   18.9350 C.3   188  AMP188      0.2184
     10  O3'       -0.7100   -3.3990   18.7660 O.3   188  AMP188     -0.2174
     11  C2'       -2.1480   -5.0950   17.9560 C.3   188  AMP188      0.2570
     12  O2'       -3.0210   -3.9750   17.8610 O.3   188  AMP188     -0.2130
     13  C1'       -1.3060   -5.1780   16.7020 C.3   188  AMP188      0.3186
     14  N9        -2.0740   -5.7270   15.5660 N.pl3 188  AMP188     -0.1439
     15  C8        -3.0640   -6.6200   15.6730 C.3   188  AMP188      0.3377
     16  N7        -3.5660   -6.9180   14.4520 N.2   188  AMP188     -0.2095
     17  C5        -2.8970   -6.2000   13.5370 C.2   188  AMP188      0.2526
     18  C6        -2.9540   -6.0520   12.0670 C.2   188  AMP188      0.4393
     19  N6        -3.8460   -6.7570   11.3170 N.pl3 188  AMP188      0.2180
     20  N1        -2.0730   -5.1860   11.5130 N.2   188  AMP188      0.0021
     21  C2        -1.1920   -4.4920   12.2580 C.3   188  AMP188      0.5254
     22  N3        -1.0970   -4.5760   13.5930 N.2   188  AMP188     -0.0055
     23  C4        -1.9110   -5.4050   14.2800 C.2   188  AMP188      0.3518
@<TRIPOS>BOND
     1    19    18    1
     2    20    18    2
     3    20    21    1
     4    18    17    1
     5    21    22    1
     6    17    23    1
     7    17    16    2
     8    22    23    2
     9    23    14    1
    10    16    15    1
    11    14    15    1
    12    14    13    1
    13    13     8    1
    14    13    11    1
    15     8     7    1
    16    12    11    1
    17    11     9    1
    18     7     9    1
    19     7     6    1
    20    10     9    1
    21     6     5    1
    22     2     1    2
    23     5     1    1
    24     4     1    1
    25     1     3    1
