@<TRIPOS>MOLECULE
3sc1_3S1_A_1.pdb
 19 21 0 0 0
SMALL
GASTEIGER

@<TRIPOS>ATOM
      1  C5        39.8330   26.8470   29.9360 C.ar  900  3S1900     -0.0000
      2  C4        40.3460   25.6580   29.3700 C.ar  900  3S1900     -0.0002
      3  C6        38.4790   27.2030   29.7150 C.ar  900  3S1900     -0.0002
      4  C9        35.0630   26.1050   29.2490 C.ar  900  3S1900      0.0007
      5  C10       33.7370   26.5680   29.0820 C.ar  900  3S1900      0.0116
      6  C3        39.5130   24.8220   28.5820 C.ar  900  3S1900     -0.0017
      7  C16       35.9300   28.0900   28.0760 C.ar  900  3S1900      0.0008
      8  C8        36.1850   26.8530   28.7500 C.ar  900  3S1900     -0.0002
      9  C7        37.5920   26.3790   28.9180 C.ar  900  3S1900     -0.0015
     10  C11       33.5050   27.8000   28.4080 C.ar  900  3S1900      0.0832
     11  C15       34.6070   28.5760   27.9000 C.ar  900  3S1900      0.0125
     12  C2        38.1380   25.1530   28.3350 C.ar  900  3S1900      0.0106
     13  C14       34.3590   29.8630   27.2010 C.2   900  3S1900      0.0222
     14  C13       33.0840   30.2870   27.0580 C.2   900  3S1900      0.1111
     15  C12       32.1120   28.3240   28.2170 C.1   900  3S1900      0.1544
     16  C1        37.3580   24.1790   27.4690 C.3   900  3S1900      0.2086
     17  N1        32.0130   29.5530   27.5420 N.2   900  3S1900     -0.1747
     18  O2        31.1420   27.7020   28.6310 O.2   900  3S1900     -0.2219
     19  O1        36.4770   23.4170   28.2790 O.3   900  3S1900     -0.2152
@<TRIPOS>BOND
     1    14    13    2
     2    14    17    1
     3    13    11    1
     4    16    19    1
     5    16    12    1
     6    17    15    2
     7    11     7   ar
     8    11    10   ar
     9     7     8   ar
    10    15    10    1
    11    15    18    2
    12    12     6   ar
    13    12     9   ar
    14    10     5   ar
    15     6     2   ar
    16     8     9    1
    17     8     4   ar
    18     9     3   ar
    19     5     4   ar
    20     2     1   ar
    21     3     1   ar
