@<TRIPOS>MOLECULE
3sc6_NAP_A_1.pdb
 48 52 0 0 0
SMALL
GASTEIGER

@<TRIPOS>ATOM
      1  PA        42.9590  -54.3800  111.1130 P.3   285  NAP285      0.2189
      2  O1A       44.2410  -53.9960  111.8110 O.3   285  NAP285     -0.4371
      3  O2A       42.1350  -55.5260  111.6590 O.2   285  NAP285     -0.5170
      4  O5B       43.2730  -54.6870  109.5650 O.3   285  NAP285     -0.3112
      5  C5B       44.5370  -54.3970  108.9750 C.3   285  NAP285      0.1813
      6  C4B       45.1620  -55.6980  108.4840 C.3   285  NAP285      0.1820
      7  O4B       46.3170  -55.4120  107.6790 O.3   285  NAP285     -0.3136
      8  C3B       45.6190  -56.5880  109.6390 C.3   285  NAP285      0.2157
      9  O3B       45.0230  -57.8860  109.5730 O.3   285  NAP285     -0.2175
     10  C2B       47.1170  -56.6930  109.4670 C.3   285  NAP285      0.2314
     11  O2B       47.6120  -57.9810  109.8300 O.3   285  NAP285     -0.2630
     12  C1B       47.3060  -56.3940  107.9850 C.3   285  NAP285      0.3158
     13  N9A       48.7060  -56.0070  107.6600 N.pl3 285  NAP285     -0.1439
     14  C8A       49.6190  -55.4510  108.4790 C.3   285  NAP285      0.3377
     15  N7A       50.7750  -55.2910  107.7950 N.2   285  NAP285     -0.2095
     16  C5A       50.5790  -55.7610  106.5490 C.2   285  NAP285      0.2526
     17  C6A       51.4310  -55.8780  105.3420 C.2   285  NAP285      0.4393
     18  N6A       52.7170  -55.4500  105.3590 N.pl3 285  NAP285      0.2180
     19  N1A       50.8880  -56.4140  104.2250 N.2   285  NAP285      0.0021
     20  C2A       49.6080  -56.8350  104.2160 C.3   285  NAP285      0.5254
     21  N3A       48.8190  -56.7400  105.3060 N.2   285  NAP285     -0.0055
     22  C4A       49.2780  -56.2140  106.4710 C.2   285  NAP285      0.3518
     23  O3        42.0240  -53.0670  111.0040 O.3   285  NAP285     -0.2703
     24  PN        40.7460  -52.9710  110.0130 P.3   285  NAP285      0.2189
     25  O1N       39.7140  -52.0920  110.6800 O.3   285  NAP285     -0.4371
     26  O2N       40.3710  -54.3410  109.5060 O.2   285  NAP285     -0.5170
     27  O5D       41.3400  -52.1600  108.7620 O.3   285  NAP285     -0.3112
     28  C5D       40.4760  -51.6690  107.7370 C.3   285  NAP285      0.1813
     29  C4D       40.9370  -50.2930  107.2590 C.3   285  NAP285      0.1799
     30  O4D       40.0960  -49.2690  107.8130 O.3   285  NAP285     -0.3327
     31  C3D       42.3700  -49.9660  107.6700 C.3   285  NAP285      0.2158
     32  O3D       43.1430  -49.6100  106.5210 O.3   285  NAP285     -0.2175
     33  C2D       42.2600  -48.7920  108.6190 C.3   285  NAP285      0.2309
     34  O2D       43.3300  -47.8730  108.3970 O.3   285  NAP285     -0.2158
     35  C1D       40.8960  -48.1860  108.3060 C.3   285  NAP285      0.2263
     36  N1N       40.2520  -47.5510  109.4660 N.pl3 285  NAP285     -0.2787
     37  C2N       39.9720  -48.2750  110.5630 C.3   285  NAP285      0.1244
     38  C3N       39.3580  -47.6880  111.6690 C.2   285  NAP285      0.0544
     39  C7N       39.0610  -48.5260  112.8840 C.2   285  NAP285      0.2818
     40  O7N       39.4320  -49.6910  112.9040 O.2   285  NAP285     -0.2670
     41  N7N       38.4010  -48.0000  113.9140 N.am  285  NAP285     -0.0839
     42  C4N       39.0300  -46.3360  111.6220 C.2   285  NAP285      0.0033
     43  C5N       39.3230  -45.6120  110.4780 C.2   285  NAP285      0.0157
     44  C6N       39.9360  -46.2480  109.4040 C.2   285  NAP285      0.0633
     45  P2B       48.4300  -58.1900  111.2040 P.3   285  NAP285      0.5328
     46  O1X       48.5200  -59.6920  111.3190 O.3   285  NAP285     -0.1145
     47  O2X       49.7560  -57.5060  110.9700 O.2   285  NAP285     -0.2224
     48  O3X       47.5740  -57.5290  112.2560 O.3   285  NAP285     -0.1145
@<TRIPOS>BOND
     1    20    19    1
     2    20    21    1
     3    19    17    2
     4    21    22    2
     5    17    18    1
     6    17    16    1
     7    22    16    1
     8    22    13    1
     9    32    31    1
    10    16    15    2
    11    29    31    1
    12    29    28    1
    13    29    30    1
    14    13    12    1
    15    13    14    1
    16    31    33    1
    17     7    12    1
    18     7     6    1
    19    28    27    1
    20    15    14    1
    21    30    35    1
    22    12    10    1
    23    35    33    1
    24    35    36    1
    25    34    33    1
    26     6     5    1
    27     6     8    1
    28    27    24    1
    29     5     4    1
    30    44    36    1
    31    44    43    2
    32    36    37    1
    33    10     8    1
    34    10    11    1
    35    26    24    2
    36     4     1    1
    37     9     8    1
    38    11    45    1
    39    24    25    1
    40    24    23    1
    41    43    42    1
    42    37    38    1
    43    47    45    2
    44    23     1    1
    45     1     3    2
    46     1     2    1
    47    45    46    1
    48    45    48    1
    49    42    38    2
    50    38    39    1
    51    39    40    2
    52    39    41   am
