@<TRIPOS>MOLECULE
3sc7_MAN_X_1.pdb
 11 11 0 0 0
SMALL
GASTEIGER

@<TRIPOS>ATOM
      1  C1        28.9880  -18.6860  -13.1050 C.3   517  MAN517      0.1777
      2  C2        27.8660  -19.2330  -12.2040 C.3   517  MAN517      0.2141
      3  C3        27.9060  -18.7980  -10.7210 C.3   517  MAN517      0.2173
      4  C4        28.4890  -17.4150  -10.4420 C.3   517  MAN517      0.2142
      5  C5        29.3610  -16.8020  -11.5450 C.3   517  MAN517      0.1810
      6  C6        30.7540  -17.0700  -11.0700 C.3   517  MAN517      0.2141
      7  O2        27.7610  -20.6610  -12.2730 O.3   517  MAN517     -0.2176
      8  O3        28.3900  -19.7920   -9.8020 O.3   517  MAN517     -0.2175
      9  O4        27.3960  -16.5220  -10.1970 O.3   517  MAN517     -0.2176
     10  O5        29.1910  -17.2620  -12.9060 O.3   517  MAN517     -0.3481
     11  O6        31.6050  -16.5350  -12.0650 O.3   517  MAN517     -0.2176
@<TRIPOS>BOND
     1     1    10    1
     2     1     2    1
     3    10     5    1
     4     7     2    1
     5     2     3    1
     6    11     6    1
     7     5     6    1
     8     5     4    1
     9     3     4    1
    10     3     8    1
    11     4     9    1
