@<TRIPOS>MOLECULE
3sce_HEC_A_1.pdb
 43 50 0 0 0
SMALL
GASTEIGER

@<TRIPOS>ATOM
      1 FE         35.5940   24.7220  149.2440 Fe    1004  HEC1004     0.0000
      2  CHA       36.3840   27.8060  148.0980 C.2   1004  HEC1004     0.0000
      3  CHB       38.0720   23.3390  147.2930 C.2   1004  HEC1004     0.0000
      4  CHC       35.0170   21.6500  150.6190 C.2   1004  HEC1004     0.0000
      5  CHD       32.8280   25.9550  150.8500 C.2   1004  HEC1004     0.0000
      6  NA        36.9450   25.4260  147.9460 N.ar  1004  HEC1004     0.0000
      7  C1A       37.1030   26.7560  147.5780 C.ar  1004  HEC1004     0.0000
      8  C2A       38.1350   26.8500  146.5760 C.ar  1004  HEC1004     0.0000
      9  C3A       38.5860   25.6030  146.3270 C.ar  1004  HEC1004     0.0000
     10  C4A       37.8620   24.6940  147.1970 C.ar  1004  HEC1004     0.0000
     11  CMA       39.7110   25.1960  145.3570 C.3   1004  HEC1004     0.0000
     12  CAA       38.6210   28.1530  145.9230 C.3   1004  HEC1004     0.0000
     13  CBA       39.6320   28.9030  146.8120 C.3   1004  HEC1004     0.0000
     14  CGA       40.8370   28.0600  147.1790 C.2   1004  HEC1004     0.0000
     15  O1A       41.7210   27.7580  146.3140 O.co2 1004  HEC1004     0.0000
     16  O2A       40.9330   27.6720  148.3800 O.co2 1004  HEC1004     0.0000
     17  NB        36.4150   22.8540  149.0030 N.2   1004  HEC1004     0.0000
     18  C1B       37.4750   22.5040  148.2260 C.2   1004  HEC1004     0.0000
     19  C2B       37.8900   21.1420  148.5790 C.2   1004  HEC1004     0.0000
     20  C3B       37.0200   20.6510  149.4820 C.2   1004  HEC1004     0.0000
     21  C4B       36.0920   21.7360  149.7600 C.2   1004  HEC1004     0.0000
     22  CMB       39.0290   20.4210  147.8450 C.3   1004  HEC1004     0.0000
     23  CAB       36.9730   19.2390  150.1720 C.3   1004  HEC1004     0.0000
     24  CBB       38.3260   18.8820  150.8260 C.3   1004  HEC1004     0.0000
     25  NC        34.1870   23.9640  150.5020 N.ar  1004  HEC1004     0.0000
     26  C1C       34.1060   22.6310  150.9060 C.ar  1004  HEC1004     0.0000
     27  C2C       32.9500   22.4750  151.7660 C.ar  1004  HEC1004     0.0000
     28  C3C       32.3300   23.6720  151.8410 C.ar  1004  HEC1004     0.0000
     29  C4C       33.1250   24.6170  151.0640 C.ar  1004  HEC1004     0.0000
     30  CMC       32.4660   21.1120  152.3130 C.3   1004  HEC1004     0.0000
     31  CAC       30.9370   23.9720  152.4320 C.3   1004  HEC1004     0.0000
     32  CBC       30.7720   23.7290  153.9370 C.3   1004  HEC1004     0.0000
     33  ND        34.7700   26.5300  149.4430 N.2   1004  HEC1004     0.0000
     34  C1D       33.6310   26.8600  150.1820 C.2   1004  HEC1004     0.0000
     35  C2D       33.4180   28.2770  150.2030 C.2   1004  HEC1004     0.0000
     36  C3D       34.5180   28.8260  149.3890 C.2   1004  HEC1004     0.0000
     37  C4D       35.3050   27.7080  148.9250 C.2   1004  HEC1004     0.0000
     38  CMD       32.3150   29.0650  150.9040 C.3   1004  HEC1004     0.0000
     39  CAD       34.6980   30.3160  149.1190 C.3   1004  HEC1004     0.0000
     40  CBD       35.3530   31.0730  150.2800 C.3   1004  HEC1004     0.0000
     41  CGD       36.8240   30.8150  150.4680 C.2   1004  HEC1004     0.0000
     42  O1D       37.5170   30.3470  149.5260 O.co2 1004  HEC1004     0.0000
     43  O2D       37.3210   31.1590  151.5740 O.co2 1004  HEC1004     0.0000
@<TRIPOS>UNITY_ATOM_ATTR
1 1
charge 3
@<TRIPOS>BOND
     1    11     9    1
     2    12     8    1
     3    12    13    1
     4    15    14   ar
     5     9     8   ar
     6     9    10   ar
     7     8     7   ar
     8    13    14    1
     9    14    16   ar
    10    10     3    2
    11    10     6   ar
    12     3    18    1
    13     7     6   ar
    14     7     2    2
    15    22    19    1
    16     6     1    1
    17     2    37    1
    18    18    19    1
    19    18    17    2
    20    19    20    2
    21    37    36    1
    22    37    33    2
    23    17     1    1
    24    17    21    1
    25    39    36    1
    26    39    40    1
    27     1    33    1
    28     1    25    1
    29    36    35    2
    30    33    34    1
    31    20    21    1
    32    20    23    1
    33    42    41   ar
    34    21     4    2
    35    23    24    1
    36    34    35    1
    37    34     5    2
    38    35    38    1
    39    40    41    1
    40    41    43   ar
    41    25    26   ar
    42    25    29   ar
    43     4    26    1
    44     5    29    1
    45    26    27   ar
    46    29    28   ar
    47    27    28   ar
    48    27    30    1
    49    28    31    1
    50    31    32    1
