@<TRIPOS>MOLECULE
3sco_GLF_A_1.pdb
 12 12 0 0 0
SMALL
GASTEIGER

@<TRIPOS>ATOM
      1  C1         6.3140    1.9510   36.3050 C.3   477  GLF477      0.3118
      2  C2         6.0890    0.6430   35.5230 C.3   477  GLF477      0.2458
      3  C3         5.2420    0.9200   34.2800 C.3   477  GLF477      0.2201
      4  C4         3.9430    1.6370   34.7040 C.3   477  GLF477      0.2144
      5  C5         4.3100    2.9680   35.3590 C.3   477  GLF477      0.1837
      6  C6         3.1090    3.8050   35.8230 C.3   477  GLF477      0.2142
      7  F1         7.1500    2.7750   35.6050 F     477  GLF477     -0.2011
      8  O2         7.3730    0.1420   35.1280 O.3   477  GLF477     -0.2145
      9  O3         4.9810   -0.3000   33.5720 O.3   477  GLF477     -0.2174
     10  O4         3.0860    1.8670   33.5820 O.3   477  GLF477     -0.2176
     11  O5         5.0910    2.6640   36.5100 O.3   477  GLF477     -0.3219
     12  O6         2.2990    3.0320   36.7190 O.3   477  GLF477     -0.2176
@<TRIPOS>BOND
     1     9     3    1
     2    10     4    1
     3     3     4    1
     4     3     2    1
     5     4     5    1
     6     8     2    1
     7     5     6    1
     8     5    11    1
     9     2     1    1
    10     7     1    1
    11     6    12    1
    12     1    11    1
