@<TRIPOS>MOLECULE
3scq_GLF_A_1.pdb
 12 12 0 0 0
SMALL
GASTEIGER

@<TRIPOS>ATOM
      1  C1         6.2650    1.9480   36.3060 C.3   477  GLF477      0.3118
      2  C2         6.0350    0.6670   35.5000 C.3   477  GLF477      0.2458
      3  C3         5.2280    0.9560   34.2270 C.3   477  GLF477      0.2201
      4  C4         3.9190    1.6630   34.6250 C.3   477  GLF477      0.2144
      5  C5         4.2760    2.9620   35.3550 C.3   477  GLF477      0.1837
      6  C6         3.0530    3.7730   35.7760 C.3   477  GLF477      0.2142
      7  F1         7.1180    2.7860   35.6300 F     477  GLF477     -0.2011
      8  O2         7.3090    0.1060   35.1710 O.3   477  GLF477     -0.2145
      9  O3         4.9870   -0.2820   33.5490 O.3   477  GLF477     -0.2174
     10  O4         3.0830    1.9410   33.4970 O.3   477  GLF477     -0.2176
     11  O5         5.0210    2.6160   36.5290 O.3   477  GLF477     -0.3219
     12  O6         2.2400    3.0060   36.6720 O.3   477  GLF477     -0.2176
@<TRIPOS>BOND
     1    10     4    1
     2     9     3    1
     3     3     4    1
     4     3     2    1
     5     4     5    1
     6     8     2    1
     7     5     6    1
     8     5    11    1
     9     2     1    1
    10     7     1    1
    11     6    12    1
    12     1    11    1
