@<TRIPOS>MOLECULE
3scs_GLF_A_1.pdb
 12 12 0 0 0
SMALL
GASTEIGER

@<TRIPOS>ATOM
      1  C1         6.2550    1.9110   36.2990 C.3   477  GLF477      0.3118
      2  C2         6.0560    0.6570   35.4540 C.3   477  GLF477      0.2458
      3  C3         5.2070    0.9470   34.2110 C.3   477  GLF477      0.2201
      4  C4         3.8710    1.5950   34.6340 C.3   477  GLF477      0.2144
      5  C5         4.1980    2.8890   35.3810 C.3   477  GLF477      0.1837
      6  C6         2.9820    3.6820   35.8700 C.3   477  GLF477      0.2142
      7  F1         7.1130    2.7790   35.6700 F     477  GLF477     -0.2011
      8  O2         7.3450    0.1580   35.0780 O.3   477  GLF477     -0.2145
      9  O3         4.9870   -0.3130   33.5700 O.3   477  GLF477     -0.2174
     10  O4         3.0080    1.8130   33.5110 O.3   477  GLF477     -0.2176
     11  O5         4.9970    2.5520   36.5350 O.3   477  GLF477     -0.3219
     12  O6         2.1690    2.8800   36.7480 O.3   477  GLF477     -0.2176
@<TRIPOS>BOND
     1    10     4    1
     2     9     3    1
     3     3     4    1
     4     3     2    1
     5     4     5    1
     6     8     2    1
     7     5     6    1
     8     5    11    1
     9     2     1    1
    10     7     1    1
    11     6    12    1
    12     1    11    1
