@<TRIPOS>MOLECULE
3sct_CTT_A_1.pdb
 45 48 0 0 0
SMALL
GASTEIGER

@<TRIPOS>ATOM
      1  O1B       -2.4140   -1.2830   51.7250 O.3   477  CTT477     -0.1869
      2  C1B       -1.2240   -0.8360   51.0660 C.3   477  CTT477      0.3023
      3  C2B       -0.7150   -1.9300   50.1270 C.3   477  CTT477      0.2433
      4  O2B       -0.3380   -3.0740   50.9030 O.3   477  CTT477     -0.2148
      5  C3B        0.4750   -1.4350   49.2990 C.3   477  CTT477      0.2168
      6  O3B        0.8290   -2.4100   48.3100 O.3   477  CTT477     -0.2175
      7  O5B       -1.5060    0.3570   50.3230 O.3   477  CTT477     -0.3237
      8  C5B       -0.3570    0.9070   49.6610 C.3   477  CTT477      0.1804
      9  C6B       -0.7380    2.2540   49.0550 C.3   477  CTT477      0.2141
     10  O6B       -1.7200    2.0630   48.0260 O.3   477  CTT477     -0.2176
     11  C4B        0.1830   -0.0890   48.6230 C.3   477  CTT477      0.1804
     12  O4B        1.3730    0.4020   47.9830 O.3   477  CTT477     -0.3257
     13  C1C        1.2290    0.6920   46.5820 C.3   477  CTT477      0.2695
     14  C2C        2.4970    1.3950   46.1010 C.3   477  CTT477      0.2404
     15  O2C        2.6130    2.6610   46.7610 O.3   477  CTT477     -0.2149
     16  C3C        2.4930    1.6150   44.5880 C.3   477  CTT477      0.2167
     17  O3C        3.8070    2.0200   44.1900 O.3   477  CTT477     -0.2175
     18  O5C        1.0120   -0.4930   45.7990 O.3   477  CTT477     -0.3257
     19  C5C        0.8070   -0.2330   44.4050 C.3   477  CTT477      0.1803
     20  C6C        0.4100   -1.5270   43.7000 C.3   477  CTT477      0.2141
     21  O6C       -0.9550   -1.4340   43.2840 O.3   477  CTT477     -0.2176
     22  C4C        2.0670    0.3790   43.7870 C.3   477  CTT477      0.1804
     23  O4C        1.7900    0.7690   42.4370 O.3   477  CTT477     -0.3257
     24  C1D        2.7530    0.3870   41.4400 C.3   477  CTT477      0.2695
     25  C2D        2.0410    0.3680   40.0920 C.3   477  CTT477      0.2404
     26  O2D        1.1150   -0.7270   40.1180 O.3   477  CTT477     -0.2149
     27  C3D        3.0160    0.2250   38.9100 C.3   477  CTT477      0.2167
     28  O3D        2.3250    0.3710   37.6620 O.3   477  CTT477     -0.2175
     29  O5D        3.8150    1.3390   41.3580 O.3   477  CTT477     -0.3257
     30  C5D        4.8120    1.0790   40.3530 C.3   477  CTT477      0.1803
     31  C6D        5.9210    2.0820   40.6000 C.3   477  CTT477      0.2141
     32  O6D        5.8690    2.4340   41.9920 O.3   477  CTT477     -0.2176
     33  C4D        4.2280    1.1580   38.9360 C.3   477  CTT477      0.1804
     34  O4D        5.1410    0.6570   37.9420 O.3   477  CTT477     -0.3257
     35  C1E        5.7120    1.4570   36.8560 C.3   477  CTT477      0.2695
     36  C2E        5.9730    0.5460   35.6250 C.3   477  CTT477      0.2406
     37  O2E        7.3700    0.4920   35.3220 O.3   477  CTT477     -0.2149
     38  C3E        5.2720    0.9260   34.3290 C.3   477  CTT477      0.2198
     39  O3E        5.1540   -0.2490   33.5030 O.3   477  CTT477     -0.2174
     40  C4E        3.9520    1.5950   34.6890 C.3   477  CTT477      0.2144
     41  O4E        3.1550    1.8120   33.5220 O.3   477  CTT477     -0.2176
     42  O5E        5.0990    2.7410   36.5650 O.3   477  CTT477     -0.3256
     43  C5E        4.2820    2.9150   35.3900 C.3   477  CTT477      0.1835
     44  C6E        3.0310    3.6450   35.8410 C.3   477  CTT477      0.2142
     45  O6E        2.2790    2.8090   36.7310 O.3   477  CTT477     -0.2176
@<TRIPOS>BOND
     1    39    38    1
     2    41    40    1
     3    38    40    1
     4    38    36    1
     5    40    43    1
     6    37    36    1
     7    43    44    1
     8    43    42    1
     9    36    35    1
    10    44    45    1
    11    42    35    1
    12    35    34    1
    13    28    27    1
    14    34    33    1
    15    27    33    1
    16    27    25    1
    17    33    30    1
    18    25    26    1
    19    25    24    1
    20    30    31    1
    21    30    29    1
    22    31    32    1
    23    29    24    1
    24    24    23    1
    25    23    22    1
    26    21    20    1
    27    20    19    1
    28    22    19    1
    29    22    16    1
    30    17    16    1
    31    19    18    1
    32    16    14    1
    33    18    13    1
    34    14    13    1
    35    14    15    1
    36    13    12    1
    37    12    11    1
    38    10     9    1
    39     6     5    1
    40    11     5    1
    41    11     8    1
    42     9     8    1
    43     5     3    1
    44     8     7    1
    45     3     4    1
    46     3     2    1
    47     7     2    1
    48     2     1    1
