@<TRIPOS>MOLECULE
3scv_CTT_A_1.pdb
 45 48 0 0 0
SMALL
GASTEIGER

@<TRIPOS>ATOM
      1  O1B       -2.4010   -1.2160   51.7610 O.3   477  CTT477     -0.1869
      2  C1B       -1.2770   -0.7210   51.0150 C.3   477  CTT477      0.3023
      3  C2B       -0.6420   -1.8480   50.1990 C.3   477  CTT477      0.2433
      4  O2B       -0.2060   -2.8900   51.0850 O.3   477  CTT477     -0.2148
      5  C3B        0.5340   -1.3210   49.3610 C.3   477  CTT477      0.2168
      6  O3B        1.0260   -2.3590   48.4970 O.3   477  CTT477     -0.2175
      7  O5B       -1.6690    0.3460   50.1370 O.3   477  CTT477     -0.3237
      8  C5B       -0.5550    0.9630   49.4670 C.3   477  CTT477      0.1804
      9  C6B       -1.0410    2.2250   48.7410 C.3   477  CTT477      0.2141
     10  O6B       -1.9670    1.8830   47.7000 O.3   477  CTT477     -0.2176
     11  C4B        0.1490   -0.0650   48.5530 C.3   477  CTT477      0.1804
     12  O4B        1.3150    0.4740   47.9020 O.3   477  CTT477     -0.3257
     13  C1C        1.1900    0.6890   46.4810 C.3   477  CTT477      0.2695
     14  C2C        2.4700    1.3510   45.9720 C.3   477  CTT477      0.2404
     15  O2C        2.6130    2.6250   46.6130 O.3   477  CTT477     -0.2149
     16  C3C        2.4580    1.5280   44.4500 C.3   477  CTT477      0.2167
     17  O3C        3.7600    1.9560   44.0310 O.3   477  CTT477     -0.2175
     18  O5C        0.9780   -0.5230   45.7390 O.3   477  CTT477     -0.3257
     19  C5C        0.7780   -0.3130   44.3360 C.3   477  CTT477      0.1803
     20  C6C        0.3590   -1.6330   43.7020 C.3   477  CTT477      0.2141
     21  O6C       -0.9640   -1.4830   43.1900 O.3   477  CTT477     -0.2176
     22  C4C        2.0380    0.2650   43.6840 C.3   477  CTT477      0.1804
     23  O4C        1.7520    0.5800   42.3120 O.3   477  CTT477     -0.3257
     24  C1D        2.7450    0.2450   41.3220 C.3   477  CTT477      0.2695
     25  C2D        2.0910    0.2540   39.9360 C.3   477  CTT477      0.2404
     26  O2D        1.1860   -0.8580   39.8400 O.3   477  CTT477     -0.2149
     27  C3D        3.1160    0.1780   38.7940 C.3   477  CTT477      0.2167
     28  O3D        2.4660    0.2910   37.5200 O.3   477  CTT477     -0.2175
     29  O5D        3.7990    1.2180   41.3220 O.3   477  CTT477     -0.3257
     30  C5D        4.8160    1.0650   40.3130 C.3   477  CTT477      0.1803
     31  C6D        5.8710    2.0980   40.6540 C.3   477  CTT477      0.2141
     32  O6D        5.7840    2.3310   42.0700 O.3   477  CTT477     -0.2176
     33  C4D        4.2580    1.1920   38.8870 C.3   477  CTT477      0.1804
     34  O4D        5.2180    0.7780   37.9010 O.3   477  CTT477     -0.3257
     35  C1E        5.8080    1.5790   36.8230 C.3   477  CTT477      0.2695
     36  C2E        6.0870    0.6430   35.6060 C.3   477  CTT477      0.2406
     37  O2E        7.4820    0.5960   35.3090 O.3   477  CTT477     -0.2149
     38  C3E        5.3350    0.9340   34.3070 C.3   477  CTT477      0.2198
     39  O3E        5.2070   -0.2740   33.5120 O.3   477  CTT477     -0.2174
     40  C4E        4.0130    1.5940   34.7010 C.3   477  CTT477      0.2144
     41  O4E        3.1430    1.7360   33.5770 O.3   477  CTT477     -0.2176
     42  O5E        5.2010    2.8540   36.4870 O.3   477  CTT477     -0.3256
     43  C5E        4.3320    2.9530   35.3440 C.3   477  CTT477      0.1835
     44  C6E        3.0910    3.6660   35.8390 C.3   477  CTT477      0.2142
     45  O6E        2.3370    2.7880   36.6800 O.3   477  CTT477     -0.2176
@<TRIPOS>BOND
     1    39    38    1
     2    41    40    1
     3    38    40    1
     4    38    36    1
     5    40    43    1
     6    37    36    1
     7    43    44    1
     8    43    42    1
     9    36    35    1
    10    44    45    1
    11    42    35    1
    12    35    34    1
    13    28    27    1
    14    34    33    1
    15    27    33    1
    16    27    25    1
    17    33    30    1
    18    26    25    1
    19    25    24    1
    20    30    31    1
    21    30    29    1
    22    31    32    1
    23    29    24    1
    24    24    23    1
    25    23    22    1
    26    21    20    1
    27    22    19    1
    28    22    16    1
    29    20    19    1
    30    17    16    1
    31    19    18    1
    32    16    14    1
    33    18    13    1
    34    14    13    1
    35    14    15    1
    36    13    12    1
    37    10     9    1
    38    12    11    1
    39     6     5    1
    40    11     5    1
    41    11     8    1
    42     9     8    1
    43     5     3    1
    44     8     7    1
    45     7     2    1
    46     3     2    1
    47     3     4    1
    48     2     1    1
