@<TRIPOS>MOLECULE
3scw_CTT_A_1.pdb
 45 48 0 0 0
SMALL
GASTEIGER

@<TRIPOS>ATOM
      1  O1B       -3.0550   -1.6880   50.6830 O.3   477  CTT477     -0.1869
      2  C1B       -3.0310   -1.5200   49.2620 C.3   477  CTT477      0.3023
      3  C2B       -2.7540   -0.0500   48.9560 C.3   477  CTT477      0.2433
      4  O2B       -3.8530    0.7320   49.4320 O.3   477  CTT477     -0.2148
      5  C3B       -2.5730    0.1790   47.4550 C.3   477  CTT477      0.2168
      6  O3B       -2.1580    1.5260   47.1950 O.3   477  CTT477     -0.2175
      7  O5B       -2.0000   -2.3440   48.7070 O.3   477  CTT477     -0.3237
      8  C5B       -1.8280   -2.2300   47.2810 C.3   477  CTT477      0.1804
      9  C6B       -0.6740   -3.1330   46.8650 C.3   477  CTT477      0.2141
     10  O6B       -0.8970   -4.4420   47.3860 O.3   477  CTT477     -0.2176
     11  C4B       -1.5420   -0.7810   46.8600 C.3   477  CTT477      0.1804
     12  O4B       -1.5540   -0.6260   45.4320 O.3   477  CTT477     -0.3257
     13  C1C       -0.2610   -0.6610   44.8130 C.3   477  CTT477      0.2695
     14  C2C       -0.4920   -0.7110   43.3140 C.3   477  CTT477      0.2404
     15  O2C       -1.2160   -1.8960   43.0010 O.3   477  CTT477     -0.2149
     16  C3C        0.8370   -0.7130   42.5760 C.3   477  CTT477      0.2167
     17  O3C        0.5500   -0.6440   41.1790 O.3   477  CTT477     -0.2175
     18  O5C        0.5140    0.4980   45.1330 O.3   477  CTT477     -0.3257
     19  C5C        1.8060    0.5790   44.5160 C.3   477  CTT477      0.1803
     20  C6C        2.4630    1.9040   44.9030 C.3   477  CTT477      0.2141
     21  O6C        2.6430    1.9470   46.3230 O.3   477  CTT477     -0.2176
     22  C4C        1.7210    0.4600   42.9940 C.3   477  CTT477      0.1804
     23  O4C        3.0550    0.2690   42.5240 O.3   477  CTT477     -0.3257
     24  C1D        3.3150    0.8620   41.2520 C.3   477  CTT477      0.2695
     25  C2D        4.7950    1.2080   41.1610 C.3   477  CTT477      0.2404
     26  O2D        5.1730    2.1130   42.2080 O.3   477  CTT477     -0.2149
     27  C3D        5.0820    1.8130   39.7970 C.3   477  CTT477      0.2167
     28  O3D        6.4870    2.0400   39.7060 O.3   477  CTT477     -0.2175
     29  O5D        2.9980   -0.0920   40.2310 O.3   477  CTT477     -0.3257
     30  C5D        3.2010    0.3720   38.8900 C.3   477  CTT477      0.1803
     31  C6D        2.8620   -0.7600   37.9140 C.3   477  CTT477      0.2141
     32  O6D        1.5310   -1.2140   38.1790 O.3   477  CTT477     -0.2176
     33  C4D        4.6300    0.8710   38.6740 C.3   477  CTT477      0.1804
     34  O4D        4.5650    1.5610   37.4330 O.3   477  CTT477     -0.3257
     35  C1E        5.7520    1.7170   36.6480 C.3   477  CTT477      0.2695
     36  C2E        5.8980    0.5810   35.6120 C.3   477  CTT477      0.2406
     37  O2E        7.2780    0.2490   35.4130 O.3   477  CTT477     -0.2149
     38  C3E        5.3000    0.9600   34.2590 C.3   477  CTT477      0.2198
     39  O3E        5.0590   -0.2180   33.4630 O.3   477  CTT477     -0.2174
     40  C4E        4.0500    1.7940   34.5390 C.3   477  CTT477      0.2144
     41  O4E        3.2630    1.9750   33.3650 O.3   477  CTT477     -0.2176
     42  O5E        5.6130    2.9990   36.0160 O.3   477  CTT477     -0.3256
     43  C5E        4.5020    3.1490   35.1020 C.3   477  CTT477      0.1835
     44  C6E        3.3790    3.9560   35.7590 C.3   477  CTT477      0.2142
     45  O6E        2.5320    3.1200   36.5590 O.3   477  CTT477     -0.2176
@<TRIPOS>BOND
     1    41    40    1
     2    39    38    1
     3    38    40    1
     4    38    36    1
     5    40    43    1
     6    43    44    1
     7    43    42    1
     8    37    36    1
     9    36    35    1
    10    44    45    1
    11    42    35    1
    12    35    34    1
    13    34    33    1
    14    31    32    1
    15    31    30    1
    16    33    30    1
    17    33    27    1
    18    30    29    1
    19    28    27    1
    20    27    25    1
    21    29    24    1
    22    25    24    1
    23    25    26    1
    24    17    16    1
    25    24    23    1
    26    23    22    1
    27    16    22    1
    28    16    14    1
    29    22    19    1
    30    15    14    1
    31    14    13    1
    32    19    20    1
    33    19    18    1
    34    13    18    1
    35    13    12    1
    36    20    21    1
    37    12    11    1
    38    11     8    1
    39    11     5    1
    40     9     8    1
    41     9    10    1
    42     6     5    1
    43     8     7    1
    44     5     3    1
    45     7     2    1
    46     3     2    1
    47     3     4    1
    48     2     1    1
