@<TRIPOS>MOLECULE
3scx_DUP_A_1.pdb
 28 29 0 0 0
SMALL
GASTEIGER

@<TRIPOS>ATOM
      1  O4         0.4090   51.8660   23.2270 O.2   904  DUP904     -0.2085
      2  C4         0.2990   52.4490   22.0050 C.1   904  DUP904      0.2182
      3  C5        -0.0800   51.7100   20.8980 C.2   904  DUP904      0.1242
      4  C6        -0.1770   52.3530   19.6700 C.2   904  DUP904      0.0928
      5  N3         0.5540   53.7610   21.8610 N.2   904  DUP904     -0.2452
      6  C2         0.4480   54.3510   20.6550 C.1   904  DUP904      0.2844
      7  O2         0.7210   55.6700   20.5520 O.2   904  DUP904     -0.1918
      8  N1         0.0780   53.6610   19.5720 N.am  904  DUP904     -0.1790
      9  C1'        0.0060   54.3260   18.2680 C.3   904  DUP904      0.2090
     10  C2'        1.4260   54.3430   17.7010 C.3   904  DUP904      0.0874
     11  C3'        1.4510   53.1630   16.7440 C.3   904  DUP904      0.1857
     12  O3'        2.3910   53.3590   15.6970 O.3   904  DUP904     -0.2203
     13  O4'       -0.7550   53.5480   17.3440 O.3   904  DUP904     -0.3339
     14  C4'        0.0200   53.1390   16.2240 C.3   904  DUP904      0.1774
     15  C5'       -0.4390   51.7740   15.7360 C.3   904  DUP904      0.1848
     16  O5'       -0.1630   50.8290   16.7630 O.3   904  DUP904     -0.2775
     17  PA        -0.1410   49.2400   16.4710 P.3   904  DUP904      0.4623
     18  O1A       -0.7500   48.5460   17.6710 O.3   904  DUP904     -0.1255
     19  O2A       -0.7840   49.0300   15.1110 O.2   904  DUP904     -0.2354
     20  N3A        1.4540   48.8300   16.3520 N.3   904  DUP904     -0.0179
     21  PB         2.4550   49.7330   15.3670 P.3   904  DUP904      0.4700
     22  O1B        3.2730   50.7330   16.1800 O.3   904  DUP904     -0.1252
     23  O2B        1.6990   50.2370   14.1570 O.2   904  DUP904     -0.2350
     24  O3B        3.5400   48.6930   14.8010 O.3   904  DUP904     -0.1901
     25  PG         3.1380   47.1870   14.4190 P.3   904  DUP904      0.5397
     26  O2G        4.2480   46.8510   13.4350 O.2   904  DUP904     -0.2220
     27  O1G        1.7460   47.2650   13.8410 O.3   904  DUP904     -0.1143
     28  O3G        3.2070   46.4820   15.7560 O.3   904  DUP904     -0.1143
@<TRIPOS>BOND
     1    26    25    2
     2    27    25    1
     3    23    21    2
     4    25    24    1
     5    25    28    1
     6    24    21    1
     7    19    17    2
     8    21    22    1
     9    21    20    1
    10    12    11    1
    11    15    14    1
    12    15    16    1
    13    14    11    1
    14    14    13    1
    15    20    17    1
    16    17    16    1
    17    17    18    1
    18    11    10    1
    19    13     9    1
    20    10     9    1
    21     9     8    1
    22     8     4    1
    23     8     6   am
    24     4     3    2
    25     7     6    2
    26     6     5    2
    27     3     2    1
    28     5     2    2
    29     2     1    2
