@<TRIPOS>MOLECULE
3scz_HPA_A_1.pdb
 10 11 0 0 0
SMALL
GASTEIGER

@<TRIPOS>ATOM
      1  N1        54.1080  -48.5630   27.1720 N.2   269  HPA269     -0.1726
      2  C2        53.7680  -48.0020   25.9610 C.3   269  HPA269      0.2725
      3  N3        52.7790  -48.5690   25.1730 N.2   269  HPA269     -0.1902
      4  C4        52.1850  -49.7180   25.6060 C.1   269  HPA269      0.0598
      5  C5        52.5380  -50.3160   26.8230 C.2   269  HPA269      0.2226
      6  C6        53.5090  -49.7080   27.6200 C.1   269  HPA269      0.1796
      7  O6        53.9090  -50.1970   28.6890 O.2   269  HPA269     -0.2200
      8  N7        51.7560  -51.4200   26.9800 N.2   269  HPA269     -0.2230
      9  C8        50.9720  -51.5060   25.8920 C.3   269  HPA269      0.2622
     10  N9        51.2360  -50.4630   25.0650 N.2   269  HPA269     -0.1910
@<TRIPOS>BOND
     1    10     4    2
     2    10     9    1
     3     3     4    2
     4     3     2    1
     5     4     5    1
     6     9     8    1
     7     2     1    1
     8     5     8    2
     9     5     6    1
    10     1     6    2
    11     6     7    2
