@<TRIPOS>MOLECULE
3sd0_TSK_A_1.pdb
 30 34 0 0 0
SMALL
GASTEIGER

@<TRIPOS>ATOM
      1  N1        14.2230  -45.8400  -13.7980 N.2   400  TSK400     -0.2576
      2  C2        14.6960  -45.5730  -15.0400 C.1   400  TSK400      0.2159
      3  C3        14.6530  -44.1430  -15.4200 C.2   400  TSK400      0.1105
      4  C4        13.9850  -43.5400  -14.2540 C.2   400  TSK400      0.1089
      5  C5        13.8220  -44.6430  -13.3200 C.1   400  TSK400      0.2158
      6  O6        13.3090  -44.4750  -12.1750 O.2   400  TSK400     -0.2086
      7  O7        15.1790  -46.4770  -15.8020 O.2   400  TSK400     -0.2086
      8  C8        15.0780  -43.6380  -16.7700 C.ar  400  TSK400      0.0533
      9  C9        15.8700  -42.4190  -17.1310 C.ar  400  TSK400      0.0414
     10  C10       15.9220  -42.4970  -18.5020 C.ar  400  TSK400      0.1791
     11  O11       15.2680  -43.6230  -19.0130 O.2   400  TSK400     -0.4473
     12  C12       14.6970  -44.3880  -17.8820 C.ar  400  TSK400      0.1804
     13  C13       13.6700  -42.1570  -13.8890 C.ar  400  TSK400      0.0314
     14  C14       13.6890  -41.7140  -12.5950 C.ar  400  TSK400      0.0767
     15  N15       13.3910  -40.4070  -12.6610 N.ar  400  TSK400     -0.3240
     16  C16       13.2050  -40.0130  -13.9280 C.ar  400  TSK400      0.0606
     17  C17       13.3760  -41.0760  -14.7970 C.ar  400  TSK400      0.0202
     18  C18       16.4720  -41.3520  -16.4750 C.ar  400  TSK400      0.0034
     19  C19       17.1230  -40.3790  -17.2470 C.ar  400  TSK400      0.0033
     20  C20       17.1780  -40.4770  -18.6410 C.ar  400  TSK400      0.0401
     21  C21       16.5660  -41.5570  -19.2780 C.ar  400  TSK400      0.1730
     22  C22       13.2450  -41.0270  -16.1640 C.ar  400  TSK400      0.0316
     23  C23       12.9340  -39.8020  -16.6970 C.ar  400  TSK400      0.1455
     24  C24       12.7560  -38.7220  -15.8490 C.ar  400  TSK400      0.0589
     25  C25       12.8910  -38.8000  -14.4650 C.ar  400  TSK400      0.0252
     26  C26       13.2900  -39.5260  -11.4840 C.3   400  TSK400      0.1305
     27  F30       12.7990  -39.6350  -18.0180 F     400  TSK400     -0.2037
     28  I31       12.3060  -36.8650  -16.6970 I     400  TSK400     -0.0401
     29  O32       16.5560  -41.7530  -20.6400 O.3   400  TSK400     -0.4684
     30  C33       16.8920  -40.7330  -21.5780 C.3   400  TSK400      0.2526
@<TRIPOS>BOND
     1    30    29    1
     2    29    21    1
     3    21    20   ar
     4    21    10   ar
     5    11    10   ar
     6    11    12   ar
     7    20    19   ar
     8    10     9   ar
     9    27    23    1
    10    12     8   ar
    11    19    18   ar
    12     9     8   ar
    13     9    18   ar
    14     8     3    1
    15    23    22   ar
    16    23    24   ar
    17    28    24    1
    18    22    17   ar
    19    24    25   ar
    20     7     2    2
    21     3     2    1
    22     3     4    2
    23     2     1    2
    24    17    16   ar
    25    17    13   ar
    26    25    16   ar
    27     4    13    1
    28     4     5    1
    29    16    15   ar
    30    13    14   ar
    31     1     5    2
    32     5     6    2
    33    15    14   ar
    34    15    26    1
