@<TRIPOS>MOLECULE
3sd5_SD5_A_1.pdb
 29 32 0 0 0
SMALL
GASTEIGER

@<TRIPOS>ATOM
      1  N01       28.9160   11.5250   20.1500 N.pl3   1  SD51       -0.1072
      2  C02       27.6550   11.9810   20.3000 C.ar    1  SD51        0.1697
      3  C03       26.9480   12.5400   19.2420 C.ar    1  SD51        0.0416
      4  C04       25.6580   13.0220   19.4400 C.ar    1  SD51        0.0780
      5  C05       25.0780   12.9350   20.7160 C.ar    1  SD51        0.0500
      6  C06       25.8620   12.3540   21.6950 C.ar    1  SD51        0.1026
      7  N07       27.1030   11.8870   21.5230 N.ar    1  SD51       -0.2259
      8  C08       23.7210   13.4740   21.0220 C.2     1  SD51        0.1325
      9  C09       23.3360   14.7470   20.6350 C.3     1  SD51        0.1356
     10  C10       22.0480   15.1540   20.9910 C.2     1  SD51        0.1810
     11  N11       21.2300   14.3540   21.6730 N.2     1  SD51       -0.3170
     12  C12       21.6910   13.1400   22.0070 C.1     1  SD51        0.2035
     13  N13       22.9090   12.6450   21.7120 N.2     1  SD51       -0.3320
     14  N14       20.8660   12.3460   22.7280 N.pl3   1  SD51       -0.2290
     15  C15       21.2260   11.0000   23.1610 C.3     1  SD51        0.1352
     16  C16       20.6610   10.7430   24.5330 C.3     1  SD51        0.1644
     17  O17       19.2500   10.9420   24.5650 O.3     1  SD51       -0.3501
     18  C18       18.9410   12.2810   24.1980 C.3     1  SD51        0.1644
     19  C19       19.4200   12.5930   22.8090 C.3     1  SD51        0.1352
     20  N20       21.5670   16.3920   20.6600 N.pl3   1  SD51       -0.2808
     21  C21       20.1650   16.7780   20.8630 C.3     1  SD51        0.1249
     22  C22       20.1070   18.0400   21.6720 C.3     1  SD51        0.1636
     23  O23       20.8560   19.0830   21.0640 O.3     1  SD51       -0.3501
     24  C24       22.2240   18.7050   20.9850 C.3     1  SD51        0.1636
     25  C25       22.4110   17.4690   20.1470 C.3     1  SD51        0.1249
     26  C26       24.9640   13.6300   18.2510 C.3     1  SD51        0.4188
     27  F27       25.5790   13.3660   17.1110 F       1  SD51       -0.1659
     28  F28       24.9020   14.9560   18.3210 F       1  SD51       -0.1659
     29  F29       23.7140   13.1880   18.1090 F       1  SD51       -0.1659
@<TRIPOS>BOND
     1    27    26    1
     2    29    26    1
     3    26    28    1
     4    26     4    1
     5     3     4   ar
     6     3     2   ar
     7     4     5   ar
     8    25    20    1
     9    25    24    1
    10     1     2    1
    11     2     7   ar
    12     9    10    1
    13     9     8    1
    14    20    21    1
    15    20    10    1
    16     5     8    1
    17     5     6   ar
    18    21    22    1
    19    24    23    1
    20    10    11    2
    21     8    13    2
    22    23    22    1
    23     7     6   ar
    24    11    12    2
    25    13    12    2
    26    12    14    1
    27    14    19    1
    28    14    15    1
    29    19    18    1
    30    15    16    1
    31    18    17    1
    32    16    17    1
