@<TRIPOS>MOLECULE
3sdg_3SE_A_1.pdb
 24 26 0 0 0
SMALL
GASTEIGER

@<TRIPOS>ATOM
      1  O         14.0650   28.5710    0.9380 O.2   217  3SE217     -0.2749
      2  C3        13.8150   28.9810    2.0640 C.2   217  3SE217      0.2259
      3  C2        14.8510   29.7920    2.8360 C.3   217  3SE217      0.0940
      4  C1        16.3980   29.5300    2.5510 C.3   217  3SE217      0.1129
      5  C         16.9280   30.5910    1.6060 C.3   217  3SE217      0.3983
      6  F2        16.1720   30.4340    0.5310 F     217  3SE217     -0.1700
      7  F1        18.1230   30.4250    1.1110 F     217  3SE217     -0.1700
      8  F         16.8250   31.8100    2.1510 F     217  3SE217     -0.1700
      9  N         12.6610   28.6460    2.6630 N.am  217  3SE217     -0.2795
     10  C8        12.4580   29.1150    4.0870 C.3   217  3SE217      0.0939
     11  C7        11.0010   29.0190    4.5730 C.3   217  3SE217      0.0320
     12  C6        10.4150   27.7030    4.0390 C.3   217  3SE217      0.0960
     13  C5        10.3440   27.7780    2.5100 C.3   217  3SE217      0.0320
     14  C4        11.7700   27.6770    2.0200 C.3   217  3SE217      0.0939
     15  C9         9.0500   27.6030    4.4950 C.2   217  3SE217      0.2934
     16  N2         7.9160   27.7350    3.7770 N.2   217  3SE217     -0.3107
     17  C10        6.9550   27.6500    4.6620 C.1   217  3SE217      0.1510
     18  N1         7.4170   27.4490    5.8890 N.2   217  3SE217     -0.0052
     19  O1         8.8120   27.4440    5.7070 O.2   217  3SE217     -0.3155
     20  C11        5.6070   27.7120    4.2260 C.ar  217  3SE217      0.1876
     21  S          4.2780   27.6730    5.2680 S.2   217  3SE217     -0.0549
     22  C13        3.0490   27.8340    4.0360 C.ar  217  3SE217      0.0582
     23  C12        3.7960   27.9580    2.8600 C.ar  217  3SE217      0.1073
     24  N3         5.1810   27.8860    2.9690 N.ar  217  3SE217     -0.2258
@<TRIPOS>BOND
     1     6     5    1
     2     1     2    2
     3     7     5    1
     4     5     8    1
     5     5     4    1
     6    14    13    1
     7    14     9    1
     8     2     9   am
     9     2     3    1
    10    13    12    1
    11     4     3    1
    12     9    10    1
    13    23    24   ar
    14    23    22   ar
    15    24    20   ar
    16    16    15    2
    17    16    17    2
    18    22    21   ar
    19    12    15    1
    20    12    11    1
    21    10    11    1
    22    20    17    1
    23    20    21   ar
    24    15    19    1
    25    17    18    2
    26    19    18    1
