@<TRIPOS>MOLECULE
3sdh_HEM_A_1.pdb
 43 50 0 0 0
SMALL
GASTEIGER

@<TRIPOS>ATOM
      1 FE         42.8090   -2.1840   20.3260 Fe    147  HEM147      0.0000
      2  CHA       41.8840   -0.6200   17.4460 C.2   147  HEM147      0.0000
      3  CHB       39.5500   -2.0580   21.4360 C.2   147  HEM147      0.0000
      4  CHC       43.8150   -3.4440   23.3410 C.2   147  HEM147      0.0000
      5  CHD       45.9720   -2.6050   19.0600 C.2   147  HEM147      0.0000
      6  NA        41.0580   -1.4690   19.6110 N.2   147  HEM147      0.0000
      7  C1A       40.9050   -0.8560   18.3770 C.2   147  HEM147      0.0000
      8  C2A       39.5090   -0.4930   18.2360 C.2   147  HEM147      0.0000
      9  C3A       38.8550   -0.9180   19.3170 C.2   147  HEM147      0.0000
     10  C4A       39.8320   -1.4900   20.2220 C.2   147  HEM147      0.0000
     11  CMA       37.3450   -0.7840   19.6900 C.3   147  HEM147      0.0000
     12  CAA       38.9280    0.1710   16.9420 C.3   147  HEM147      0.0000
     13  CBA       38.7940   -0.9350   15.8520 C.3   147  HEM147      0.0000
     14  CGA       38.5490   -0.3600   14.4750 C.2   147  HEM147      0.0000
     15  O1A       37.8220    0.6500   14.3250 O.co2 147  HEM147      0.0000
     16  O2A       39.1970   -0.9890   13.5710 O.co2 147  HEM147      0.0000
     17  NB        41.8760   -2.6680   22.0330 N.ar  147  HEM147      0.0000
     18  C1B       40.5130   -2.5860   22.2780 C.ar  147  HEM147      0.0000
     19  C2B       40.2600   -3.1110   23.6060 C.ar  147  HEM147      0.0000
     20  C3B       41.4250   -3.4380   24.1500 C.ar  147  HEM147      0.0000
     21  C4B       42.4640   -3.1890   23.1560 C.ar  147  HEM147      0.0000
     22  CMB       38.8250   -3.1720   24.2030 C.3   147  HEM147      0.0000
     23  CAB       41.7400   -4.0610   25.5040 C.2   147  HEM147      0.0000
     24  CBB       41.0160   -3.8710   26.5990 C.2   147  HEM147      0.0000
     25  NC        44.5220   -2.9320   21.0430 N.2   147  HEM147      0.0000
     26  C1C       44.7450   -3.3460   22.3420 C.2   147  HEM147      0.0000
     27  C2C       46.1690   -3.6150   22.4800 C.2   147  HEM147      0.0000
     28  C3C       46.7590   -3.3930   21.3050 C.2   147  HEM147      0.0000
     29  C4C       45.7310   -2.9510   20.3650 C.2   147  HEM147      0.0000
     30  CMC       46.8150   -4.0820   23.8000 C.3   147  HEM147      0.0000
     31  CAC       48.2200   -3.5010   20.8540 C.2   147  HEM147      0.0000
     32  CBC       49.1470   -4.1030   21.5780 C.2   147  HEM147      0.0000
     33  ND        43.7470   -1.7070   18.5970 N.ar  147  HEM147      0.0000
     34  C1D       45.0730   -1.9190   18.2780 C.ar  147  HEM147      0.0000
     35  C2D       45.3670   -1.2840   17.0010 C.ar  147  HEM147      0.0000
     36  C3D       44.2270   -0.7630   16.5550 C.ar  147  HEM147      0.0000
     37  C4D       43.1870   -1.0000   17.5480 C.ar  147  HEM147      0.0000
     38  CMD       46.7600   -1.3110   16.3440 C.3   147  HEM147      0.0000
     39  CAD       44.0040    0.1010   15.2960 C.3   147  HEM147      0.0000
     40  CBD       44.2260    1.6110   15.5650 C.3   147  HEM147      0.0000
     41  CGD       43.9310    2.4370   14.3030 C.2   147  HEM147      0.0000
     42  O1D       44.7790    2.3620   13.3800 O.co2 147  HEM147      0.0000
     43  O2D       42.8110    2.9860   14.3110 O.co2 147  HEM147      0.0000
@<TRIPOS>BOND
     1    42    41   ar
     2    16    14   ar
     3    41    43   ar
     4    41    40    1
     5    15    14   ar
     6    14    13    1
     7    39    40    1
     8    39    36    1
     9    13    12    1
    10    38    35    1
    11    36    35   ar
    12    36    37   ar
    13    12     8    1
    14    35    34   ar
    15     2    37    2
    16     2     7    1
    17    37    33   ar
    18     8     7    1
    19     8     9    2
    20    34    33   ar
    21    34     5    2
    22     7     6    2
    23    33     1    1
    24     5    29    1
    25     9    11    1
    26     9    10    1
    27     6    10    1
    28     6     1    1
    29    10     3    2
    30     1    25    1
    31     1    17    1
    32    29    25    2
    33    29    28    1
    34    31    28    1
    35    31    32    2
    36    25    26    1
    37    28    27    2
    38     3    18    1
    39    17    18   ar
    40    17    21   ar
    41    18    19   ar
    42    26    27    1
    43    26     4    2
    44    27    30    1
    45    21     4    1
    46    21    20   ar
    47    19    20   ar
    48    19    22    1
    49    20    23    1
    50    23    24    2
