@<TRIPOS>MOLECULE
3sdi_3SD_K_1.pdb
 42 44 0 0 0
SMALL
GASTEIGER

@<TRIPOS>ATOM
      1  C4        12.3360 -137.0340   23.5980 C.ar  212  3SD212      0.0627
      2  C5        12.6090 -136.2450   24.6440 C.ar  212  3SD212      0.1550
      3  C6        13.2450 -136.7120   25.9530 C.3   212  3SD212      0.0754
      4  O1        12.2240 -134.9520   24.3750 O.2   212  3SD212     -0.3576
      5  N2        11.6810 -134.9870   23.0520 N.ar  212  3SD212     -0.0726
      6  C3        11.7770 -136.2570   22.6550 C.ar  212  3SD212      0.1774
      7  C41       11.3340 -136.7860   21.2920 C.2   212  3SD212      0.2862
      8  O42       11.7750 -137.8600   20.8980 O.2   212  3SD212     -0.2666
      9  C8        10.0200 -136.4070   19.2650 C.3   212  3SD212      0.1822
     10  C10       11.0530 -136.2400   18.1660 C.2   212  3SD212      0.2621
     11  N7        10.5190 -136.0100   20.5870 N.am  212  3SD212     -0.1921
     12  C9         8.8840 -135.5040   18.8300 C.3   212  3SD212      0.1178
     13  C33        7.6010 -135.7020   19.6010 C.2   212  3SD212      0.2436
     14  O35        7.3810 -136.7530   20.2130 O.2   212  3SD212     -0.2733
     15  N34        6.7860 -134.6440   19.5070 N.am  212  3SD212     -0.2054
     16  C36        5.4570 -134.5430   20.1410 C.3   212  3SD212      0.1150
     17  C37        4.3610 -134.3240   19.0760 C.3   212  3SD212      0.0201
     18  C40        4.2890 -135.5300   18.1420 C.3   212  3SD212      0.0018
     19  C38        3.0060 -134.1330   19.7530 C.3   212  3SD212      0.0018
     20  C39        4.6540 -133.0800   18.2440 C.3   212  3SD212      0.0018
     21  O11       11.7240 -135.2190   18.0440 O.2   212  3SD212     -0.2715
     22  N13       11.0660 -137.2370   17.2980 N.am  212  3SD212     -0.1963
     23  C12       11.9100 -137.2240   16.1080 C.3   212  3SD212      0.1731
     24  C15       10.9790 -136.9410   14.9310 C.2   212  3SD212      0.2615
     25  O19        9.8290 -137.3720   14.9010 O.2   212  3SD212     -0.2715
     26  C14       12.5730 -138.5820   15.9330 C.3   212  3SD212      0.0358
     27  C17       13.3890 -138.9120   17.1650 C.3   212  3SD212      0.0286
     28  C18       14.5740 -137.9600   17.3120 C.ar  212  3SD212     -0.0221
     29  C28       15.5050 -137.8290   16.2720 C.ar  212  3SD212     -0.0043
     30  C32       14.7310 -137.2340   18.4930 C.ar  212  3SD212     -0.0043
     31  C29       16.6030 -136.9720   16.4020 C.ar  212  3SD212     -0.0003
     32  C31       15.8270 -136.3730   18.6210 C.ar  212  3SD212     -0.0003
     33  C30       16.7590 -136.2480   17.5800 C.ar  212  3SD212     -0.0000
     34  C20       10.6780 -135.8640   12.8060 C.3   212  3SD212      0.1415
     35  C21        9.9550 -134.5400   12.9930 C.ar  212  3SD212     -0.0006
     36  C22       10.4650 -133.4020   12.3920 C.ar  212  3SD212     -0.0029
     37  C24        8.6430 -132.1180   13.2900 C.ar  212  3SD212     -0.0219
     38  C26        8.7860 -134.4760   13.7330 C.ar  212  3SD212     -0.0029
     39  N16       11.4810 -136.1840   13.9760 N.am  212  3SD212     -0.1991
     40  C23        9.8080 -132.1870   12.5480 C.ar  212  3SD212     -0.0045
     41  C27        7.9230 -130.7770   13.4410 C.3   212  3SD212      0.0310
     42  C25        8.1320 -133.2620   13.8800 C.ar  212  3SD212     -0.0045
@<TRIPOS>BOND
     1    36    40   ar
     2    36    35   ar
     3    40    37   ar
     4    34    35    1
     5    34    39    1
     6    35    38   ar
     7    37    41    1
     8    37    42   ar
     9    38    42   ar
    10    39    24   am
    11    25    24    2
    12    24    23    1
    13    26    23    1
    14    26    27    1
    15    23    22    1
    16    29    31   ar
    17    29    28   ar
    18    31    33   ar
    19    27    28    1
    20    22    10   am
    21    28    30   ar
    22    33    32   ar
    23    21    10    2
    24    18    17    1
    25    10     9    1
    26    20    17    1
    27    30    32   ar
    28    12     9    1
    29    12    13    1
    30    17    19    1
    31    17    16    1
    32     9    11    1
    33    15    13   am
    34    15    16    1
    35    13    14    2
    36    11     7   am
    37     8     7    2
    38     7     6    1
    39     6     5   ar
    40     6     1   ar
    41     5     4   ar
    42     1     2   ar
    43     4     2   ar
    44     2     3    1
