@<TRIPOS>MOLECULE
3sdk_P3N_K_1.pdb
 43 46 0 0 0
SMALL
GASTEIGER

@<TRIPOS>ATOM
      1  C32       13.0760 -136.8700   24.3700 C.ar  213  P3N213      0.0627
      2  C28       13.1250 -135.9940   25.3790 C.ar  213  P3N213      0.1550
      3  C35       14.0100 -136.1210   26.6260 C.3   213  P3N213      0.0754
      4  O29       12.2610 -134.9570   25.1400 O.2   213  P3N213     -0.3576
      5  N30       11.6600 -135.2440   23.8890 N.ar  213  P3N213     -0.0726
      6  C31       12.1910 -136.3950   23.4770 C.ar  213  P3N213      0.1774
      7  C33       11.8110 -137.0920   22.1660 C.2   213  P3N213      0.2862
      8  O34       12.3840 -138.1270   21.8220 O.2   213  P3N213     -0.2666
      9  C5        11.1310 -136.7100   18.9990 C.2   213  P3N213      0.2622
     10  C41        6.3280 -137.1890   25.2450 C.3   213  P3N213      0.0160
     11  C40        6.9910 -138.3470   24.5060 C.3   213  P3N213      0.0877
     12  C42        6.0640 -139.5660   24.5640 C.3   213  P3N213      0.0160
     13  C43        8.3390 -138.7150   25.1330 C.3   213  P3N213      0.0160
     14  C37        7.1970 -137.9570   23.0210 C.1   213  P3N213      0.1014
     15  N36        8.2400 -137.2990   22.4940 N.2   213  P3N213     -0.3170
     16  N38        6.3240 -138.2580   22.0630 N.2   213  P3N213     -0.0118
     17  O39        6.8480 -137.7570   20.8500 O.2   213  P3N213     -0.3158
     18  C1         8.0270 -137.1700   21.1680 C.2   213  P3N213      0.2956
     19  C2         8.8840 -136.5190   20.0830 C.3   213  P3N213      0.1335
     20  C3        10.2900 -137.0530   20.2220 C.3   213  P3N213      0.1836
     21  N4        10.8390 -136.5020   21.4720 N.am  213  P3N213     -0.1921
     22  O6        11.8210 -135.6970   18.9660 O.2   213  P3N213     -0.2715
     23  N8        11.0660 -137.6010   18.0110 N.am  213  P3N213     -0.1963
     24  C7        11.8210 -137.4640   16.7520 C.3   213  P3N213      0.1731
     25  C10       10.8530 -137.2000   15.6110 C.2   213  P3N213      0.2615
     26  O14        9.7240 -137.6750   15.6180 O.2   213  P3N213     -0.2715
     27  C9        12.5500 -138.7610   16.4370 C.3   213  P3N213      0.0358
     28  C12       13.3990 -139.2260   17.6010 C.3   213  P3N213      0.0286
     29  C13       14.6450 -138.3620   17.7330 C.ar  213  P3N213     -0.0221
     30  C23       15.5120 -138.2090   16.6510 C.ar  213  P3N213     -0.0043
     31  C27       14.9140 -137.7230   18.9370 C.ar  213  P3N213     -0.0043
     32  C24       16.6620 -137.4260   16.7690 C.ar  213  P3N213     -0.0003
     33  C26       16.0590 -136.9300   19.0580 C.ar  213  P3N213     -0.0003
     34  C25       16.9330 -136.7860   17.9740 C.ar  213  P3N213     -0.0000
     35  C15       10.5260 -136.1500   13.4480 C.3   213  P3N213      0.1415
     36  C16        9.8040 -134.8120   13.6220 C.ar  213  P3N213     -0.0006
     37  C17        8.6620 -134.7120   14.4080 C.ar  213  P3N213     -0.0029
     38  C19        8.5310 -132.3620   13.8740 C.ar  213  P3N213     -0.0219
     39  C21       10.2990 -133.6930   12.9620 C.ar  213  P3N213     -0.0029
     40  N11       11.3340 -136.4650   14.6210 N.am  213  P3N213     -0.1991
     41  C18        8.0310 -133.4780   14.5350 C.ar  213  P3N213     -0.0045
     42  C22        7.8450 -131.0070   14.0050 C.3   213  P3N213      0.0310
     43  C20        9.6660 -132.4640   13.0910 C.ar  213  P3N213     -0.0045
@<TRIPOS>BOND
     1    39    43   ar
     2    39    36   ar
     3    43    38   ar
     4    35    36    1
     5    35    40    1
     6    36    37   ar
     7    38    42    1
     8    38    41   ar
     9    37    41   ar
    10    40    25   am
    11    25    26    2
    12    25    24    1
    13    27    24    1
    14    27    28    1
    15    30    32   ar
    16    30    29   ar
    17    24    23    1
    18    32    34   ar
    19    28    29    1
    20    29    31   ar
    21    34    33   ar
    22    23     9   am
    23    31    33   ar
    24    22     9    2
    25     9    20    1
    26    19    20    1
    27    19    18    1
    28    20    21    1
    29    17    18    1
    30    17    16    1
    31    18    15    2
    32    21     7   am
    33     8     7    2
    34    16    14    2
    35     7     6    1
    36    15    14    2
    37    14    11    1
    38     6     5   ar
    39     6     1   ar
    40     5     4   ar
    41     1     2   ar
    42    11    12    1
    43    11    13    1
    44    11    10    1
    45     4     2   ar
    46     2     3    1
