@<TRIPOS>MOLECULE
3sdn_HEM_A_1.pdb
 43 50 0 0 0
SMALL
GASTEIGER

@<TRIPOS>ATOM
      1  CHA       -5.9780   -8.8970    9.2360 C.2   160  HEM160      0.0000
      2  CHB       -4.7080   -6.6370    5.1950 C.2   160  HEM160      0.0000
      3  CHC       -4.8750   -2.3920    7.4120 C.2   160  HEM160      0.0000
      4  CHD       -5.9330   -4.6520   11.5750 C.2   160  HEM160      0.0000
      5  C1A       -5.6140   -8.6340    7.9220 C.ar  160  HEM160      0.0000
      6  C2A       -5.4070   -9.6670    6.8940 C.ar  160  HEM160      0.0000
      7  C3A       -5.1120   -9.0140    5.7570 C.ar  160  HEM160      0.0000
      8  C4A       -4.9920   -7.6350    6.0760 C.ar  160  HEM160      0.0000
      9  CMA       -4.7940   -9.6910    4.3900 C.3   160  HEM160      0.0000
     10  CAA       -5.7450  -11.1410    7.1480 C.3   160  HEM160      0.0000
     11  CBA       -7.1310  -11.4480    6.6080 C.3   160  HEM160      0.0000
     12  CGA       -8.2580  -10.6350    7.1550 C.2   160  HEM160      0.0000
     13  O1A       -8.8180   -9.8110    6.3960 O.co2 160  HEM160      0.0000
     14  O2A       -8.6120  -10.8920    8.3070 O.co2 160  HEM160      0.0000
     15  C1B       -4.6740   -5.2880    5.4550 C.2   160  HEM160      0.0000
     16  C2B       -4.2780   -4.3440    4.4180 C.2   160  HEM160      0.0000
     17  C3B       -4.2640   -3.1300    5.0750 C.2   160  HEM160      0.0000
     18  C4B       -4.7420   -3.3300    6.4020 C.2   160  HEM160      0.0000
     19  CMB       -3.8770   -4.7140    2.9520 C.3   160  HEM160      0.0000
     20  CAB       -3.9850   -1.7230    4.5710 C.2   160  HEM160      0.0000
     21  CBB       -2.9430   -1.6090    3.7680 C.2   160  HEM160      0.0000
     22  C1C       -5.1050   -2.6970    8.7350 C.ar  160  HEM160      0.0000
     23  C2C       -5.0310   -1.6940    9.7910 C.ar  160  HEM160      0.0000
     24  C3C       -5.2830   -2.2800   10.9410 C.ar  160  HEM160      0.0000
     25  C4C       -5.6350   -3.6530   10.6300 C.ar  160  HEM160      0.0000
     26  CMC       -4.6760   -0.2290    9.5290 C.3   160  HEM160      0.0000
     27  CAC       -5.3180   -1.7010   12.3460 C.2   160  HEM160      0.0000
     28  CBC       -5.0120   -0.4710   12.7830 C.2   160  HEM160      0.0000
     29  C1D       -6.0380   -5.9520   11.2600 C.2   160  HEM160      0.0000
     30  C2D       -6.2720   -6.9210   12.3220 C.2   160  HEM160      0.0000
     31  C3D       -6.3110   -8.2340   11.6350 C.2   160  HEM160      0.0000
     32  C4D       -5.9900   -7.9620   10.2920 C.2   160  HEM160      0.0000
     33  CMD       -6.4850   -6.5680   13.7950 C.3   160  HEM160      0.0000
     34  CAD       -6.4710   -9.6470   12.2250 C.3   160  HEM160      0.0000
     35  CBD       -5.1310  -10.0790   12.7220 C.3   160  HEM160      0.0000
     36  CGD       -5.2830  -11.4330   13.3720 C.2   160  HEM160      0.0000
     37  O1D       -5.5860  -11.4090   14.5690 O.co2 160  HEM160      0.0000
     38  O2D       -5.0380  -12.5300   12.7410 O.co2 160  HEM160      0.0000
     39  NA        -5.3370   -7.3860    7.3310 N.ar  160  HEM160      0.0000
     40  NB        -4.9300   -4.6560    6.6510 N.2   160  HEM160      0.0000
     41  NC        -5.4830   -3.9220    9.2790 N.ar  160  HEM160      0.0000
     42  ND        -5.9400   -6.6450   10.0140 N.2   160  HEM160      0.0000
     43 FE         -5.4940   -5.6130    8.3100 Fe    160  HEM160      0.0000
@<TRIPOS>BOND
     1    19    16    1
     2    21    20    2
     3     9     7    1
     4    16    17    2
     5    16    15    1
     6    20    17    1
     7    17    18    1
     8     2    15    1
     9     2     8    2
    10    15    40    2
    11     7     8   ar
    12     7     6   ar
    13     8    39   ar
    14    13    12   ar
    15    18    40    1
    16    18     3    2
    17    11    10    1
    18    11    12    1
    19    40    43    1
    20     6    10    1
    21     6     5   ar
    22    12    14   ar
    23    39     5   ar
    24    39    43    1
    25     3    22    1
    26     5     1    2
    27    43    41    1
    28    43    42    1
    29    22    41   ar
    30    22    23   ar
    31     1    32    1
    32    41    25   ar
    33    26    23    1
    34    23    24   ar
    35    42    32    2
    36    42    29    1
    37    32    31    1
    38    25    24   ar
    39    25     4    1
    40    24    27    1
    41    29     4    2
    42    29    30    1
    43    31    34    1
    44    31    30    2
    45    34    35    1
    46    30    33    1
    47    27    28    2
    48    35    36    1
    49    38    36   ar
    50    36    37   ar
