@<TRIPOS>MOLECULE
3sdr_210_A_1.pdb
 13 12 0 0 0
SMALL
GASTEIGER

@<TRIPOS>ATOM
      1  P1       105.6960   28.9370   47.4990 P.3   822  210822      0.1511
      2  O2       105.2750   28.1900   48.8020 O.3   822  210822     -0.3553
      3  O3       105.4030   28.0150   46.2800 O.2   822  210822     -0.4573
      4  O5       107.1490   29.3180   47.5530 O.3   822  210822     -0.3553
      5  C7       104.6510   30.4240   47.3710 C.3   822  210822      0.2174
      6  P8       104.8230   31.3280   48.9430 P.3   822  210822      0.1511
      7  O9       106.2030   31.9330   49.0250 O.3   822  210822     -0.3553
      8  O10      104.5410   30.2970   50.0820 O.3   822  210822     -0.3553
      9  O12      103.7170   32.4200   48.9920 O.2   822  210822     -0.4573
     10  O14      103.3360   30.0590   47.2070 O.3   822  210822     -0.2108
     11  C16      105.1470   31.2690   46.2390 C.3   822  210822      0.0651
     12  C19      104.0200   31.8680   45.4730 C.3   822  210822      0.1128
     13  N22      104.5450   32.7150   44.4350 N.3   822  210822     -0.1313
@<TRIPOS>BOND
     1    13    12    1
     2    12    11    1
     3    11     5    1
     4     3     1    2
     5    10     5    1
     6     5     1    1
     7     5     6    1
     8     1     4    1
     9     1     2    1
    10     6     9    2
    11     6     7    1
    12     6     8    1
