@<TRIPOS>MOLECULE
3sdt_AHD_A_1.pdb
 14 13 0 0 0
SMALL
GASTEIGER

@<TRIPOS>ATOM
      1  C2       105.1280   32.4770   45.9570 C.3   822  AHD822      0.0240
      2  C3       105.1490   32.6790   44.4610 C.3   822  AHD822      0.1094
      3  C7       104.0650   31.4740   46.3120 C.3   822  AHD822      0.0462
      4  C8       104.3380   30.7820   47.6390 C.3   822  AHD822      0.2160
      5  O12      105.5380   28.5810   48.7000 O.3   822  AHD822     -0.3553
      6  P9       105.6480   29.5010   47.4390 P.3   822  AHD822      0.1511
      7  O10      107.0640   30.1730   47.4560 O.3   822  AHD822     -0.3553
      8  O11      105.4860   28.6720   46.2150 O.2   822  AHD822     -0.4573
      9  P14      104.7390   31.9540   48.9970 P.3   822  AHD822      0.1511
     10  O15      106.2170   32.5010   48.9230 O.2   822  AHD822     -0.4573
     11  O16      104.5920   31.0890   50.2820 O.3   822  AHD822     -0.3553
     12  O17      103.8070   33.1080   49.0350 O.3   822  AHD822     -0.3553
     13  O13      103.1760   30.1410   48.0410 O.3   822  AHD822     -0.2108
     14  N4       104.3200   33.8100   44.1000 N.3   822  AHD822     -0.1314
@<TRIPOS>BOND
     1    14     2    1
     2     2     1    1
     3     1     3    1
     4     8     6    2
     5     3     4    1
     6     6     7    1
     7     6     4    1
     8     6     5    1
     9     4    13    1
    10     4     9    1
    11    10     9    2
    12     9    12    1
    13     9    11    1
