@<TRIPOS>MOLECULE
3sdu_GST_A_1.pdb
 19 18 0 0 0
SMALL
GASTEIGER

@<TRIPOS>ATOM
      1  PA       104.7800   31.9840   48.1580 P.3   823  GST823      0.5394
      2  O1A      103.4760   32.4750   48.9650 O.3   823  GST823     -0.1143
      3  O2A      104.5530   32.1930   46.6990 O.2   823  GST823     -0.2220
      4  O3A      106.0250   32.8950   48.6460 O.3   823  GST823     -0.1143
      5  O1B      105.0780   30.4360   48.5280 O.3   823  GST823     -0.1955
      6  PB       105.7270   29.5880   47.3100 P.3   823  GST823      0.4270
      7  O2B      105.4780   28.1590   47.5950 O.3   823  GST823     -0.1310
      8  O3B      105.0220   29.9870   45.9200 O.2   823  GST823     -0.2431
      9  S1       107.8240   29.8380   47.1470 S.3   823  GST823     -0.0285
     10  C1       108.1900   28.7840   45.7130 C.3   823  GST823      0.0690
     11  C2       109.2620   27.7910   46.0830 C.3   823  GST823      0.0122
     12  C3       109.8530   27.0800   45.1550 C.3   823  GST823      0.0009
     13  C10      109.9680   27.6440   43.7630 C.3   823  GST823      0.0000
     14  C4       109.9950   25.5920   45.3570 C.3   823  GST823      0.0000
     15  C5       108.8910   24.8850   44.5690 C.3   823  GST823      0.0000
     16  C6       108.3170   23.7420   45.3670 C.3   823  GST823      0.0000
     17  C7       107.1090   23.8400   45.8680 C.3   823  GST823      0.0000
     18  C9       106.2330   22.6190   45.9820 C.3   823  GST823      0.0000
     19  C8       106.6070   25.1700   46.3680 C.3   823  GST823      0.0000
@<TRIPOS>BOND
     1    13    12    1
     2    15    14    1
     3    15    16    1
     4    12    14    1
     5    12    11    1
     6    16    17    1
     7    10    11    1
     8    10     9    1
     9    17    18    1
    10    17    19    1
    11     8     6    2
    12     3     1    2
    13     9     6    1
    14     6     7    1
    15     6     5    1
    16     1     5    1
    17     1     4    1
    18     1     2    1
