@<TRIPOS>MOLECULE
3sdv_911_A_1.pdb
 11 10 0 0 0
SMALL
GASTEIGER

@<TRIPOS>ATOM
      1  P1       105.8010   28.7590   47.6490 P.3   822  911822      0.1511
      2  O2       105.4910   28.0650   46.2870 O.2   822  911822     -0.4573
      3  O3       105.4470   27.7550   48.7870 O.3   822  911822     -0.3553
      4  O5       107.2330   29.2030   47.7440 O.3   822  911822     -0.3553
      5  C7       104.6590   30.1670   47.8550 C.3   822  911822      0.2161
      6  P8       105.1210   31.0940   49.3570 P.3   822  911822      0.1511
      7  O9       106.5750   31.4980   49.3720 O.2   822  911822     -0.4573
      8  O10      104.1790   32.3300   49.4370 O.3   822  911822     -0.3553
      9  O12      104.7740   30.1360   50.5400 O.3   822  911822     -0.3553
     10  O14      103.3930   29.6690   48.0580 O.3   822  911822     -0.2108
     11  C16      104.6870   31.0490   46.6480 C.3   822  911822      0.0481
@<TRIPOS>BOND
     1     2     1    2
     2    11     5    1
     3     1     4    1
     4     1     5    1
     5     1     3    1
     6     5    10    1
     7     5     6    1
     8     6     7    2
     9     6     8    1
    10     6     9    1
