@<TRIPOS>MOLECULE
3sdx_GCY_A_1.pdb
 45 45 0 0 0
SMALL
GASTEIGER

@<TRIPOS>ATOM
      1  C1        42.3600   -7.0600   47.2590 C.3   601  GCY601      0.0000
      2  N1        35.1930    3.6530   56.9340 N.am  601  GCY601     -0.2020
      3  O1        38.1880    2.5310   54.9160 O.3   601  GCY601     -0.2212
      4  C2        40.8590   -7.2330   47.5220 C.3   601  GCY601      0.0000
      5  O2        37.7540    4.8900   58.5500 O.3   601  GCY601     -0.3266
      6  C3        40.5330   -7.0990   49.0240 C.3   601  GCY601      0.0000
      7  O3        35.4270    8.5320   60.4210 O.3   601  GCY601     -0.2176
      8  C4        39.1390   -7.6440   49.3750 C.3   601  GCY601      0.0000
      9  O4        36.5380    6.1930   60.0600 O.3   601  GCY601     -0.3256
     10  C5        38.0700   -6.5840   49.1170 C.3   601  GCY601      0.0000
     11  O5        36.5740    5.7480   63.0210 O.3   601  GCY601     -0.2176
     12  C6        37.6590   -5.8720   50.4020 C.3   601  GCY601      0.0000
     13  C7        36.2000   -5.4430   50.3200 C.3   601  GCY601      0.0000
     14  C8        36.0530   -3.9610   50.6500 C.3   601  GCY601      0.0000
     15  C9        34.6120   -3.5000   50.3500 C.3   601  GCY601      0.0000
     16  C10       33.8970   -2.9790   51.6040 C.3   601  GCY601      0.0000
     17  C11       34.1470   -1.4770   51.8010 C.3   601  GCY601      0.0000
     18  C12       35.1300   -1.1840   52.9510 C.3   601  GCY601      0.0000
     19  C13       35.1030    0.2930   53.3520 C.3   601  GCY601      0.0001
     20  C14       36.0070    0.4990   54.5670 C.3   601  GCY601      0.0027
     21  C15       35.8280    1.7240   55.2090 C.3   601  GCY601      0.0348
     22  C16       36.8840    2.4860   55.7350 C.3   601  GCY601      0.1743
     23  O16       36.4410    3.0550   62.7590 O.3   601  GCY601     -0.2174
     24  C17       36.5740    3.7930   56.4580 C.3   601  GCY601      0.1550
     25  O17       37.3890    2.6650   60.1310 O.3   601  GCY601     -0.2149
     26  C18       37.5890    3.8430   57.5830 C.3   601  GCY601      0.1690
     27  O18       34.2910    5.0440   55.3930 O.2   601  GCY601     -0.2733
     28  C19       36.7320    4.8920   59.5340 C.3   601  GCY601      0.2695
     29  C20       35.3440    6.2000   60.9330 C.3   601  GCY601      0.1835
     30  C21       35.1130    7.5780   61.4480 C.3   601  GCY601      0.2142
     31  C22       35.5720    5.2110   62.1520 C.3   601  GCY601      0.2144
     32  C35       36.0080    3.8280   61.6620 C.3   601  GCY601      0.2198
     33  C36       37.1100    3.9380   60.6640 C.3   601  GCY601      0.2406
     34  C37       34.1710    4.2600   56.3280 C.2   601  GCY601      0.2415
     35  C38       32.7950    3.9520   56.8560 C.3   601  GCY601      0.0868
     36  C39       31.7720    4.4050   55.8240 C.3   601  GCY601      0.0096
     37  C40       31.6570    3.4260   54.6720 C.3   601  GCY601      0.0005
     38  C41       30.3400    3.6690   53.9370 C.3   601  GCY601      0.0000
     39  C42       30.5380    3.8010   52.4200 C.3   601  GCY601      0.0000
     40  C43       29.2200    3.6770   51.6560 C.3   601  GCY601      0.0000
     41  C44       29.3710    4.3010   50.2660 C.3   601  GCY601      0.0000
     42  CAJ       28.3930    3.6970   49.2430 C.3   601  GCY601      0.0000
     43  CAK       29.0760    2.6890   48.3040 C.3   601  GCY601      0.0000
     44  CAL       29.3800    3.3570   46.9650 C.3   601  GCY601      0.0000
     45  CAM       28.5930    2.6780   45.8530 C.3   601  GCY601      0.0000
@<TRIPOS>BOND
     1    45    44    1
     2    44    43    1
     3     1     4    1
     4     4     6    1
     5    43    42    1
     6     6     8    1
     7    10     8    1
     8    10    12    1
     9    42    41    1
    10    41    40    1
    11    13    12    1
    12    13    14    1
    13    15    14    1
    14    15    16    1
    15    16    17    1
    16    40    39    1
    17    17    18    1
    18    39    38    1
    19    18    19    1
    20    19    20    1
    21    38    37    1
    22    20    21    1
    23    37    36    1
    24     3    22    1
    25    21    22    1
    26    27    34    2
    27    22    24    1
    28    36    35    1
    29    34    35    1
    30    34     2   am
    31    24     2    1
    32    24    26    1
    33    26     5    1
    34     5    28    1
    35    28     9    1
    36    28    33    1
    37     9    29    1
    38    25    33    1
    39     7    30    1
    40    33    32    1
    41    29    30    1
    42    29    31    1
    43    32    31    1
    44    32    23    1
    45    31    11    1
