@<TRIPOS>MOLECULE
3sdy_FUC_A_1.pdb
 21 21 0 0 0
SMALL
GASTEIGER

@<TRIPOS>ATOM
      1  C1        29.5090    2.1340  -21.9720 C.3   606  FUC606      0.1160
      2  C2        31.0110    2.2970  -21.7760 C.3   606  FUC606      0.1121
      3  C3        31.3670    3.7060  -22.2290 C.3   606  FUC606      0.1117
      4  C4        30.4750    4.6980  -21.4770 C.3   606  FUC606      0.1093
      5  C5        28.9810    4.3910  -21.6310 C.3   606  FUC606      0.0848
      6  C6        28.1390    5.3490  -20.7900 C.3   606  FUC606     -0.0361
      7  O2        31.7320    1.3520  -22.5340 O.3   606  FUC606     -0.3865
      8  O3        32.7410    3.9270  -21.9690 O.3   606  FUC606     -0.3865
      9  O4        30.8120    4.6640  -20.0980 O.3   606  FUC606     -0.3866
     10  O5        28.7030    3.0470  -21.2530 O.3   606  FUC606     -0.3657
     11  H1        29.4780    1.4630  -21.1140 H     606  FUC606      0.0650
     12  H2        31.2350    2.1620  -20.7180 H     606  FUC606      0.0647
     13  H3        31.1840    3.7780  -23.3020 H     606  FUC606      0.0647
     14  H4        30.6620    5.6960  -21.8730 H     606  FUC606      0.0646
     15  H5        28.7100    4.5240  -22.6780 H     606  FUC606      0.0620
     16  H61       27.4660    5.9080  -21.4400 H     606  FUC606      0.0255
     17  H62       27.5560    4.7810  -20.0660 H     606  FUC606      0.0255
     18  H63       28.7950    6.0430  -20.2640 H     606  FUC606      0.0255
     19  HO2       31.1050    0.7850  -23.0310 H     606  FUC606      0.2100
     20  HO3       33.1290    3.1240  -21.5620 H     606  FUC606      0.2100
     21  HO4       31.5340    4.0160  -19.9540 H     606  FUC606      0.2100
@<TRIPOS>BOND
     1    13     3    1
     2    19     7    1
     3    15     5    1
     4     7     2    1
     5     3     8    1
     6     3     2    1
     7     3     4    1
     8     1     2    1
     9     1    10    1
    10     1    11    1
    11     8    20    1
    12    14     4    1
    13     2    12    1
    14     5     4    1
    15     5    10    1
    16     5     6    1
    17     4     9    1
    18    16     6    1
    19     6    18    1
    20     6    17    1
    21     9    21    1
