@<TRIPOS>MOLECULE
3se2_LDR_A_1.pdb
 15 17 0 0 0
SMALL
GASTEIGER

@<TRIPOS>ATOM
      1  OAA       14.1800   -9.3390    3.9370 O.2     1  LDR1       -0.2093
      2  CAB       12.0400   -6.0760   -0.3580 C.2     1  LDR1        0.0020
      3  CAC       17.7840   -7.2460    3.5080 C.ar    1  LDR1        0.0007
      4  CAD       13.1780   -5.3080   -0.5820 C.2     1  LDR1       -0.0038
      5  CAE       17.8410   -6.2410    2.5590 C.ar    1  LDR1       -0.0003
      6  CAF       12.0720   -7.0430    0.6350 C.2     1  LDR1        0.0292
      7  CAG       16.6130   -7.9680    3.6860 C.ar    1  LDR1        0.0124
      8  CAH       14.3500   -5.5040    0.1360 C.2     1  LDR1       -0.0150
      9  CAI       16.7250   -5.9760    1.7670 C.ar    1  LDR1       -0.0028
     10  NAJ       13.2460   -8.1790    2.3140 N.2     1  LDR1       -0.3367
     11  CAK       14.3100   -8.4390    3.0780 C.1     1  LDR1        0.2040
     12  CAL       13.2470   -7.2390    1.3710 C.2     1  LDR1        0.1297
     13  CAM       15.4910   -7.7120    2.8960 C.ar    1  LDR1        0.0914
     14  CAN       14.3970   -6.4740    1.1440 C.3     1  LDR1        0.0982
     15  CAO       15.5400   -6.7050    1.9290 C.ar    1  LDR1        0.0002
@<TRIPOS>BOND
     1     4     2    1
     2     4     8    2
     3     2     6    2
     4     8    14    1
     5     6    12    1
     6    14    12    1
     7    14    15    1
     8    12    10    2
     9     9    15   ar
    10     9     5   ar
    11    15    13   ar
    12    10    11    2
    13     5     3   ar
    14    13    11    1
    15    13     7   ar
    16    11     1    2
    17     3     7   ar
