@<TRIPOS>MOLECULE
3se2_3AB_C_1.pdb
 10 10 0 0 0
SMALL
GASTEIGER

@<TRIPOS>ATOM
      1  N3       -20.1740   -3.1290   -1.0670 N.pl3   4  3AB4       -0.1281
      2  C3       -19.9720   -4.3950   -1.4210 C.ar    4  3AB4        0.0892
      3  C2       -18.7050   -4.9790   -1.4170 C.ar    4  3AB4        0.0227
      4  C4       -21.0640   -5.1470   -1.8090 C.ar    4  3AB4        0.0181
      5  C5       -20.9060   -6.4800   -2.1990 C.ar    4  3AB4        0.0015
      6  C6       -19.6400   -7.0640   -2.1990 C.ar    4  3AB4        0.0047
      7  C1       -18.5360   -6.3100   -1.7920 C.ar    4  3AB4        0.0580
      8  C1'      -17.1680   -6.9820   -1.8330 C.2     4  3AB4        0.2842
      9  O1'      -16.9200   -7.7540   -2.7590 O.2     4  3AB4       -0.2667
     10  N1'      -16.2750   -6.6370   -0.8950 N.am    4  3AB4       -0.0837
@<TRIPOS>BOND
     1     9     8    2
     2     5     6   ar
     3     5     4   ar
     4     6     7   ar
     5     8     7    1
     6     8    10   am
     7     4     2   ar
     8     7     3   ar
     9     2     3   ar
    10     2     1    1
