@<TRIPOS>MOLECULE
3se5_ANP_A_1.pdb
 31 33 0 0 0
SMALL
GASTEIGER

@<TRIPOS>ATOM
      1  PG       -32.1500   10.7100    5.0880 P.3   201  ANP201      0.4884
      2  O1G      -31.8880   10.1850    6.4760 O.3   201  ANP201     -0.1240
      3  O2G      -33.0590    9.8070    4.2970 O.2   201  ANP201     -0.2331
      4  O3G      -30.8870   11.0570    4.3410 O.3   201  ANP201     -0.1240
      5  PB       -33.5000   13.3030    4.1300 P.3   201  ANP201      0.4669
      6  O1B      -33.6510   12.5880    2.8100 O.2   201  ANP201     -0.2351
      7  O2B      -34.6640   14.1440    4.6210 O.3   201  ANP201     -0.1253
      8  N3B      -33.0590   12.1780    5.3690 N.3   201  ANP201     -0.0163
      9  PA       -31.8330   15.5740    4.8690 P.3   201  ANP201      0.2220
     10  O1A      -32.1180   16.8490    4.1090 O.2   201  ANP201     -0.5170
     11  O2A      -32.4090   15.2990    6.2160 O.3   201  ANP201     -0.4370
     12  O3A      -32.2920   14.3380    3.9060 O.3   201  ANP201     -0.2360
     13  O5'      -30.2650   15.2500    4.8670 O.3   201  ANP201     -0.3111
     14  C5'      -29.8330   14.0570    5.5130 C.3   201  ANP201      0.1813
     15  C4'      -28.5040   13.6240    4.9130 C.3   201  ANP201      0.1821
     16  O4'      -27.5390   14.6230    5.2680 O.3   201  ANP201     -0.3135
     17  C3'      -27.9750   12.3260    5.5050 C.3   201  ANP201      0.2184
     18  O3'      -28.4540   11.1970    4.7600 O.3   201  ANP201     -0.2174
     19  C2'      -26.4770   12.5180    5.3800 C.3   201  ANP201      0.2570
     20  O2'      -26.0860   12.2230    4.0390 O.3   201  ANP201     -0.2130
     21  C1'      -26.2630   13.9990    5.5470 C.3   201  ANP201      0.3186
     22  N9       -25.7980   14.4330    6.8720 N.pl3 201  ANP201     -0.1439
     23  C8       -26.4430   14.3220    8.0440 C.3   201  ANP201      0.3377
     24  N7       -25.7160   14.8920    9.0270 N.2   201  ANP201     -0.2095
     25  C5       -24.5980   15.3750    8.4850 C.2   201  ANP201      0.2526
     26  C6       -23.4090   16.0710    8.9600 C.2   201  ANP201      0.4393
     27  N6       -23.3040   16.3480   10.2930 N.pl3 201  ANP201      0.2180
     28  N1       -22.4590   16.3830    8.0700 N.2   201  ANP201      0.0021
     29  C2       -22.5650   16.0990    6.7540 C.3   201  ANP201      0.5254
     30  N3       -23.6360   15.4470    6.2510 N.2   201  ANP201     -0.0055
     31  C4       -24.6530   15.0710    7.0550 C.2   201  ANP201      0.3518
@<TRIPOS>BOND
     1     6     5    2
     2    12     5    1
     3    12     9    1
     4    20    19    1
     5    10     9    2
     6     5     7    1
     7     5     8    1
     8     3     1    2
     9     4     1    1
    10    18    17    1
    11    13     9    1
    12    13    14    1
    13     9    11    1
    14    15    16    1
    15    15    17    1
    16    15    14    1
    17     1     8    1
    18     1     2    1
    19    16    21    1
    20    19    17    1
    21    19    21    1
    22    21    22    1
    23    30    29    1
    24    30    31    2
    25    29    28    1
    26    22    31    1
    27    22    23    1
    28    31    25    1
    29    23    24    1
    30    28    26    2
    31    25    26    1
    32    25    24    2
    33    26    27    1
