@<TRIPOS>MOLECULE
3se6_LYS_A_1.pdb
 10 9 0 0 0
SMALL
GASTEIGER

@<TRIPOS>ATOM
      1  N         17.4140    5.3070    0.4870 N.3   968  LYS968     -0.1208
      2  CA        18.1650    4.4910    1.4470 C.3   968  LYS968      0.1943
      3  C         19.6330    4.2790    1.0760 C.2   968  LYS968      0.3819
      4  O         20.1840    3.2310    1.4200 O.co2 968  LYS968     -0.2441
      5  CB        17.4840    3.1420    1.6670 C.3   968  LYS968      0.0307
      6  CG        16.4830    3.1490    2.8050 C.3   968  LYS968      0.0036
      7  CD        15.3730    2.1450    2.5790 C.3   968  LYS968      0.0206
      8  CE        14.4900    2.0360    3.7990 C.3   968  LYS968      0.1093
      9  NZ        14.1690    3.3860    4.3740 N.3   968  LYS968     -0.1314
     10  OXT       20.2900    5.1300    0.4500 O.co2 968  LYS968     -0.2441
@<TRIPOS>BOND
     1    10     3   ar
     2     1     2    1
     3     3     4   ar
     4     3     2    1
     5     2     5    1
     6     5     6    1
     7     7     6    1
     8     7     8    1
     9     8     9    1
