@<TRIPOS>MOLECULE
3se7_ATP_A_1.pdb
 31 33 0 0 0
SMALL
GASTEIGER

@<TRIPOS>ATOM
      1  PG       -33.0060   39.9430  -12.8390 P.3   400  ATP400      0.5373
      2  O1G      -34.2080   40.2830  -13.6530 O.2   400  ATP400     -0.2221
      3  O2G      -32.3700   41.2380  -12.0790 O.3   400  ATP400     -0.1143
      4  O3G      -33.3600   38.8800  -11.6690 O.3   400  ATP400     -0.1143
      5  PB       -31.5650   37.7650  -13.7950 P.3   400  ATP400      0.2277
      6  O1B      -30.1710   37.5870  -13.3170 O.2   400  ATP400     -0.5168
      7  O2B      -32.6760   37.0390  -13.1430 O.3   400  ATP400     -0.4368
      8  O3B      -31.8440   39.3340  -13.7680 O.3   400  ATP400     -0.2258
      9  PA       -32.4780   38.0580  -16.4730 P.3   400  ATP400      0.2189
     10  O1A      -33.8410   38.3800  -15.9790 O.3   400  ATP400     -0.4371
     11  O2A      -32.2920   37.3420  -17.7550 O.2   400  ATP400     -0.5170
     12  O3A      -31.5950   37.3370  -15.3450 O.3   400  ATP400     -0.2700
     13  O5'      -31.6740   39.4190  -16.5980 O.3   400  ATP400     -0.3112
     14  C5'      -31.0700   39.6600  -17.8490 C.3   400  ATP400      0.1813
     15  C4'      -31.0240   41.1550  -18.0820 C.3   400  ATP400      0.1821
     16  O4'      -30.5170   41.3120  -19.4180 O.3   400  ATP400     -0.3135
     17  C3'      -32.4540   41.6830  -18.0580 C.3   400  ATP400      0.2184
     18  O3'      -32.4750   42.9200  -17.3440 O.3   400  ATP400     -0.2174
     19  C2'      -32.7990   41.9250  -19.5260 C.3   400  ATP400      0.2570
     20  O2'      -32.8410   43.3290  -19.7780 O.3   400  ATP400     -0.2130
     21  C1'      -31.6280   41.3650  -20.3350 C.3   400  ATP400      0.3186
     22  N9       -31.9080   40.0920  -21.0660 N.pl3 400  ATP400     -0.1439
     23  C8       -31.7470   38.8350  -20.6460 C.3   400  ATP400      0.3377
     24  N7       -32.1060   38.0000  -21.6190 N.2   400  ATP400     -0.2095
     25  C5       -32.4950   38.7240  -22.6670 C.2   400  ATP400      0.2526
     26  C6       -32.9650   38.4420  -23.9450 C.2   400  ATP400      0.4393
     27  N6       -33.1220   37.1920  -24.3710 N.pl3 400  ATP400      0.2180
     28  N1       -33.2700   39.4460  -24.7750 N.2   400  ATP400      0.0021
     29  C2       -33.1340   40.7000  -24.3890 C.3   400  ATP400      0.5254
     30  N3       -32.6920   41.0110  -23.1840 N.2   400  ATP400     -0.0055
     31  C4       -32.3680   40.0530  -22.3100 C.2   400  ATP400      0.3518
@<TRIPOS>BOND
     1    28    29    1
     2    28    26    2
     3    29    30    1
     4    27    26    1
     5    26    25    1
     6    30    31    2
     7    25    31    1
     8    25    24    2
     9    31    22    1
    10    24    23    1
    11    22    23    1
    12    22    21    1
    13    21    19    1
    14    21    16    1
    15    20    19    1
    16    19    17    1
    17    16    15    1
    18    15    17    1
    19    15    14    1
    20    17    18    1
    21    14    13    1
    22    11     9    2
    23    13     9    1
    24     9    10    1
    25     9    12    1
    26    12     5    1
    27     5     8    1
    28     5     6    2
    29     5     7    1
    30     8     1    1
    31     2     1    2
    32     1     3    1
    33     1     4    1
