@<TRIPOS>MOLECULE
3sea_GNP_B_1.pdb
 32 34 0 0 0
SMALL
GASTEIGER

@<TRIPOS>ATOM
      1  PG       -58.4190  -26.1530    0.9570 P.3   179  GNP179      0.4884
      2  O1G      -59.1100  -27.2630    0.1990 O.3   179  GNP179     -0.1240
      3  O2G      -59.4010  -25.1550    1.4930 O.3   179  GNP179     -0.1240
      4  O3G      -57.4180  -25.5270   -0.0020 O.2   179  GNP179     -0.2331
      5  N3B      -57.5670  -26.7960    2.1680 N.3   179  GNP179     -0.0163
      6  PB       -56.7370  -25.9820    3.2860 P.3   179  GNP179      0.4669
      7  O1B      -55.5270  -25.3280    2.7390 O.2   179  GNP179     -0.2351
      8  O2B      -57.6680  -25.0810    3.9760 O.3   179  GNP179     -0.1253
      9  O3A      -56.2170  -26.9780    4.3460 O.3   179  GNP179     -0.2360
     10  PA       -56.9250  -27.4350    5.6400 P.3   179  GNP179      0.2220
     11  O1A      -56.7840  -26.4300    6.7050 O.3   179  GNP179     -0.4370
     12  O2A      -58.3020  -27.8740    5.3790 O.2   179  GNP179     -0.5170
     13  O5'      -56.1350  -28.6990    6.1610 O.3   179  GNP179     -0.3111
     14  C5'      -55.8480  -29.8310    5.3010 C.3   179  GNP179      0.1813
     15  C4'      -55.3870  -31.0000    6.1560 C.3   179  GNP179      0.1799
     16  O4'      -54.0730  -30.7310    6.7270 O.3   179  GNP179     -0.3326
     17  C3'      -56.2970  -31.2730    7.3540 C.3   179  GNP179      0.2158
     18  O3'      -56.3380  -32.6640    7.6260 O.3   179  GNP179     -0.2175
     19  C2'      -55.6080  -30.5090    8.4770 C.3   179  GNP179      0.2310
     20  O2'      -55.8810  -31.0400    9.7560 O.3   179  GNP179     -0.2158
     21  C1'      -54.1400  -30.7380    8.1370 C.3   179  GNP179      0.2293
     22  N9       -53.2680  -29.6680    8.5960 N.pl3 179  GNP179     -0.2354
     23  C8       -53.4170  -28.3290    8.3080 C.3   179  GNP179      0.2246
     24  N7       -52.4820  -27.5930    8.8360 N.2   179  GNP179     -0.2322
     25  C5       -51.6630  -28.4920    9.5080 C.2   179  GNP179      0.2182
     26  C6       -50.4910  -28.2630   10.2640 C.1   179  GNP179      0.2372
     27  O6       -49.9190  -27.1850   10.4710 O.2   179  GNP179     -0.2069
     28  N1       -49.9660  -29.4530   10.7660 N.2   179  GNP179     -0.2485
     29  C2       -50.5110  -30.7020   10.5740 C.1   179  GNP179      0.2531
     30  N2       -49.8800  -31.7380   11.1520 N.pl3 179  GNP179     -0.0226
     31  N3       -51.6100  -30.9220    9.8660 N.2   179  GNP179     -0.3074
     32  C4       -52.1310  -29.7780    9.3640 C.2   179  GNP179      0.2300
@<TRIPOS>BOND
     1     4     1    2
     2     2     1    1
     3     1     3    1
     4     1     5    1
     5     5     6    1
     6     7     6    2
     7     6     8    1
     8     6     9    1
     9     9    10    1
    10    14    15    1
    11    14    13    1
    12    12    10    2
    13    10    13    1
    14    10    11    1
    15    15    16    1
    16    15    17    1
    17    16    21    1
    18    17    18    1
    19    17    19    1
    20    21    19    1
    21    21    22    1
    22    23    22    1
    23    23    24    1
    24    19    20    1
    25    22    32    1
    26    24    25    2
    27    32    25    1
    28    32    31    2
    29    25    26    1
    30    31    29    2
    31    26    27    2
    32    26    28    2
    33    29    28    2
    34    29    30    1
