@<TRIPOS>MOLECULE
3sea_GDP_A_1.pdb
 28 30 0 0 0
SMALL
GASTEIGER

@<TRIPOS>ATOM
      1  PB       -16.1760  -12.5330   17.1180 P.3   201  GDP201      0.5373
      2  O1B      -15.5560  -13.3770   18.2240 O.3   201  GDP201     -0.1143
      3  O2B      -17.5820  -12.1310   17.4780 O.3   201  GDP201     -0.1143
      4  O3B      -15.4050  -11.2920   16.7890 O.2   201  GDP201     -0.2221
      5  O3A      -16.2770  -13.4390   15.7680 O.3   201  GDP201     -0.2261
      6  PA       -15.1870  -13.4440   14.5850 P.3   201  GDP201      0.2231
      7  O1A      -13.7940  -13.6010   15.1390 O.3   201  GDP201     -0.4370
      8  O2A      -15.3250  -12.1910   13.7620 O.2   201  GDP201     -0.5169
      9  O5'      -15.6370  -14.7250   13.7260 O.3   201  GDP201     -0.3111
     10  C5'      -15.4790  -16.0420   14.2320 C.3   201  GDP201      0.1813
     11  C4'      -15.4410  -16.9620   13.0290 C.3   201  GDP201      0.1799
     12  O4'      -16.6500  -16.8060   12.2830 O.3   201  GDP201     -0.3326
     13  C3'      -14.3080  -16.5600   12.0940 C.3   201  GDP201      0.2158
     14  O3'      -13.7390  -17.7600   11.5680 O.3   201  GDP201     -0.2175
     15  C2'      -14.9840  -15.8160   10.9550 C.3   201  GDP201      0.2310
     16  O2'      -14.2900  -15.9630    9.7060 O.3   201  GDP201     -0.2158
     17  C1'      -16.3470  -16.4820   10.9210 C.3   201  GDP201      0.2293
     18  N9       -17.4230  -15.5830   10.4730 N.pl3 201  GDP201     -0.2354
     19  C8       -17.7480  -14.4050   11.0150 C.3   201  GDP201      0.2246
     20  N7       -18.8010  -13.8470   10.3740 N.2   201  GDP201     -0.2322
     21  C5       -19.1670  -14.7090    9.4090 C.2   201  GDP201      0.2182
     22  C6       -20.2010  -14.7520    8.3750 C.1   201  GDP201      0.2372
     23  O6       -21.0020  -13.8060    8.2840 O.2   201  GDP201     -0.2069
     24  N1       -20.2490  -15.8190    7.5610 N.2   201  GDP201     -0.2485
     25  C2       -19.3870  -16.8510    7.6600 C.1   201  GDP201      0.2531
     26  N2       -19.5000  -17.9000    6.7990 N.pl3 201  GDP201     -0.0226
     27  N3       -18.4080  -16.8780    8.6000 N.2   201  GDP201     -0.3074
     28  C4       -18.2630  -15.8580    9.4820 C.2   201  GDP201      0.2300
@<TRIPOS>BOND
     1    26    25    1
     2    24    25    2
     3    24    22    2
     4    25    27    2
     5    23    22    2
     6    22    21    1
     7    27    28    2
     8    21    28    1
     9    21    20    2
    10    28    18    1
    11    16    15    1
    12    20    19    1
    13    18    17    1
    14    18    19    1
    15    17    15    1
    16    17    12    1
    17    15    13    1
    18    14    13    1
    19    13    11    1
    20    12    11    1
    21    11    10    1
    22     9    10    1
    23     9     6    1
    24     8     6    2
    25     6     7    1
    26     6     5    1
    27     5     1    1
    28     4     1    2
    29     1     3    1
    30     1     2    1
