@<TRIPOS>MOLECULE
3sec_PFU_A_1.pdb
 22 23 0 0 0
SMALL
GASTEIGER

@<TRIPOS>ATOM
      1  P         39.0500   34.6320   35.2520 P.3   2000  PFU2000     0.5327
      2  C1        41.6410   39.8370   37.4520 C.2   2000  PFU2000     0.1238
      3  N1        43.7990   39.2750   37.0690 N.2   2000  PFU2000    -0.1452
      4  O1        42.1070   41.6610   39.2000 O.3   2000  PFU2000    -0.2101
      5  C2        42.5420   40.6440   38.2600 C.3   2000  PFU2000     0.2377
      6  N2        42.4600   39.0270   36.7540 N.2   2000  PFU2000    -0.1514
      7  O2        46.1090   40.1520   38.5060 O.2   2000  PFU2000    -0.2652
      8  C3        43.9170   40.2680   37.9720 C.2   2000  PFU2000     0.1725
      9  N3        44.9570   41.8220   39.5490 N.am  2000  PFU2000    -0.0825
     10  C4        45.0970   40.8010   38.6830 C.2   2000  PFU2000     0.3024
     11  C1'       40.1810   39.9060   37.4690 C.3   2000  PFU2000     0.1883
     12  O1P       37.8840   34.5440   34.3100 O.2   2000  PFU2000    -0.2224
     13  C2'       39.6310   39.7660   36.0670 C.3   2000  PFU2000     0.2170
     14  O2'       39.2880   41.0660   35.5940 O.3   2000  PFU2000    -0.2173
     15  O2P       39.0970   33.5560   36.3060 O.3   2000  PFU2000    -0.1145
     16  C3'       38.3890   38.9350   36.3300 C.3   2000  PFU2000     0.2143
     17  O3'       37.3470   39.7460   36.9190 O.3   2000  PFU2000    -0.2176
     18  O3P       40.3410   34.8560   34.5120 O.3   2000  PFU2000    -0.1145
     19  C4'       38.8950   37.9510   37.3790 C.3   2000  PFU2000     0.1786
     20  O4'       39.8120   38.7080   38.1750 O.3   2000  PFU2000    -0.3450
     21  C5'       39.6150   36.7450   36.7620 C.3   2000  PFU2000     0.1858
     22  O5'       38.6450   36.0020   36.0300 O.3   2000  PFU2000    -0.2675
@<TRIPOS>BOND
     1    12     1    2
     2    18     1    1
     3     1    22    1
     4     1    15    1
     5    14    13    1
     6    22    21    1
     7    13    16    1
     8    13    11    1
     9    16    17    1
    10    16    19    1
    11     6     3    1
    12     6     2    2
    13    21    19    1
    14     3     8    2
    15    19    20    1
    16     2    11    1
    17     2     5    1
    18    11    20    1
    19     8     5    1
    20     8    10    1
    21     5     4    1
    22     7    10    2
    23    10     9   am
