@<TRIPOS>MOLECULE
3sef_NDP_A_1.pdb
 48 52 0 0 0
SMALL
GASTEIGER

@<TRIPOS>ATOM
      1  PA        24.3570   -5.4790   29.0620 P.3   279  NDP279      0.2189
      2  O1A       25.5370   -5.8170   29.9430 O.3   279  NDP279     -0.4371
      3  O2A       23.6210   -6.5800   28.3330 O.2   279  NDP279     -0.5170
      4  O5B       24.8620   -4.4090   27.9730 O.3   279  NDP279     -0.3112
      5  C5B       25.4640   -3.1820   28.3720 C.3   279  NDP279      0.1813
      6  C4B       26.0270   -2.5010   27.1340 C.3   279  NDP279      0.1820
      7  O4B       26.5960   -1.2350   27.4800 O.3   279  NDP279     -0.3136
      8  C3B       27.1260   -3.3340   26.4980 C.3   279  NDP279      0.2157
      9  O3B       26.9160   -3.4330   25.0860 O.3   279  NDP279     -0.2175
     10  C2B       28.4130   -2.5960   26.8110 C.3   279  NDP279      0.2314
     11  O2B       29.3390   -2.6810   25.7280 O.3   279  NDP279     -0.2630
     12  C1B       27.9680   -1.1680   27.0830 C.3   279  NDP279      0.3158
     13  N9A       28.7650   -0.5330   28.1600 N.pl3 279  NDP279     -0.1439
     14  C8A       28.6690   -0.7940   29.4780 C.3   279  NDP279      0.3377
     15  N7A       29.5440   -0.0250   30.1790 N.2   279  NDP279     -0.2095
     16  C5A       30.2170    0.7480   29.3020 C.2   279  NDP279      0.2526
     17  C6A       31.2120    1.7120   29.3830 C.2   279  NDP279      0.4393
     18  N6A       31.7360    2.0730   30.5790 N.pl3 279  NDP279      0.2180
     19  N1A       31.6520    2.2910   28.2420 N.2   279  NDP279      0.0021
     20  C2A       31.1590    1.9630   27.0350 C.3   279  NDP279      0.5254
     21  N3A       30.1960    1.0400   26.8870 N.2   279  NDP279     -0.0055
     22  C4A       29.6930    0.4060   27.9700 C.2   279  NDP279      0.3518
     23  O3        23.2970   -4.6280   29.9360 O.3   279  NDP279     -0.2703
     24  PN        21.8950   -4.0930   29.3340 P.3   279  NDP279      0.2189
     25  O1N       22.1500   -3.5310   27.9530 O.2   279  NDP279     -0.5170
     26  O2N       20.8510   -5.1710   29.5310 O.3   279  NDP279     -0.4371
     27  O5D       21.5520   -2.8560   30.3110 O.3   279  NDP279     -0.3112
     28  C5D       20.2910   -2.7170   30.9700 C.3   279  NDP279      0.1813
     29  C4D       19.7590   -1.3030   30.7570 C.3   279  NDP279      0.1799
     30  O4D       18.6270   -1.0530   31.5970 O.3   279  NDP279     -0.3327
     31  C3D       20.8080   -0.2470   31.0770 C.3   279  NDP279      0.2158
     32  O3D       21.2570    0.4030   29.8840 O.3   279  NDP279     -0.2175
     33  C2D       20.1350    0.7370   32.0120 C.3   279  NDP279      0.2309
     34  O2D       20.1280    2.0490   31.4420 O.3   279  NDP279     -0.2158
     35  C1D       18.7090    0.2380   32.2170 C.3   279  NDP279      0.2261
     36  N1N       18.3500    0.1690   33.6530 N.pl3 279  NDP279     -0.2828
     37  C2N       18.5330    1.3420   34.4950 C.3   279  NDP279      0.1025
     38  C3N       18.0580    1.1870   35.9340 C.3   279  NDP279      0.1040
     39  C7N       18.2450    2.3680   36.8490 C.2   279  NDP279      0.2623
     40  O7N       18.3510    2.2140   38.0540 O.2   279  NDP279     -0.2716
     41  N7N       18.2880    3.5670   36.2710 N.am  279  NDP279     -0.0877
     42  C4N       17.9430   -0.1990   36.5640 C.3   279  NDP279      0.0383
     43  C5N       17.9140   -1.3080   35.5360 C.2   279  NDP279     -0.0098
     44  C6N       18.1850   -1.1220   34.2430 C.2   279  NDP279      0.0584
     45  P2B       30.1650   -4.0370   25.4490 P.3   279  NDP279      0.5328
     46  O1X       30.4790   -4.5630   26.8300 O.3   279  NDP279     -0.1145
     47  O2X       29.2210   -4.9060   24.6560 O.2   279  NDP279     -0.2224
     48  O3X       31.3750   -3.5740   24.6720 O.3   279  NDP279     -0.1145
@<TRIPOS>BOND
     1    47    45    2
     2    48    45    1
     3     9     8    1
     4    45    11    1
     5    45    46    1
     6    11    10    1
     7     8    10    1
     8     8     6    1
     9    10    12    1
    10    21    20    1
    11    21    22    2
    12    20    19    1
    13    12     7    1
    14    12    13    1
    15     6     7    1
    16     6     5    1
    17    25    24    2
    18    22    13    1
    19    22    16    1
    20     4     5    1
    21     4     1    1
    22    13    14    1
    23    19    17    2
    24     3     1    2
    25     1    23    1
    26     1     2    1
    27    16    17    1
    28    16    15    2
    29    24    26    1
    30    24    23    1
    31    24    27    1
    32    17    18    1
    33    14    15    1
    34    32    31    1
    35    27    28    1
    36    29    28    1
    37    29    31    1
    38    29    30    1
    39    31    33    1
    40    34    33    1
    41    30    35    1
    42    33    35    1
    43    35    36    1
    44    36    44    1
    45    36    37    1
    46    44    43    2
    47    37    38    1
    48    43    42    1
    49    38    42    1
    50    38    39    1
    51    41    39   am
    52    39    40    2
