@<TRIPOS>MOLECULE
3sef_SKM_B_1.pdb
 12 12 0 0 0
SMALL
GASTEIGER

@<TRIPOS>ATOM
      1  O12      -27.6710   15.0100    6.0230 O.3   280  SKM280     -0.2173
      2  C8       -27.3130   14.5600    4.7080 C.3   280  SKM280      0.2167
      3  C6       -28.4140   14.9240    3.7200 C.3   280  SKM280      0.1896
      4  O7       -29.6610   14.3730    4.1640 O.3   280  SKM280     -0.2200
      5  C5       -28.0850   14.3990    2.3270 C.3   280  SKM280      0.0684
      6  C4       -26.6760   14.7700    1.9140 C.2   280  SKM280      0.0584
      7  C1       -26.3230   14.7400    0.4920 C.2   280  SKM280      0.3837
      8  O2       -26.5820   13.7170   -0.1790 O.co2 280  SKM280     -0.2409
      9  O3       -25.7680   15.7350   -0.0250 O.co2 280  SKM280     -0.2409
     10  C10      -25.7350   15.1220    2.8100 C.2   280  SKM280      0.0111
     11  C9       -25.9840   15.1890    4.3050 C.3   280  SKM280      0.2066
     12  O11      -25.9850   16.5610    4.7220 O.3   280  SKM280     -0.2155
@<TRIPOS>BOND
     1     8     7   ar
     2     9     7   ar
     3     7     6    1
     4     6     5    1
     5     6    10    2
     6     5     3    1
     7    10    11    1
     8     3     4    1
     9     3     2    1
    10    11     2    1
    11    11    12    1
    12     2     1    1
