@<TRIPOS>MOLECULE
3sej_FUC_B_1.pdb
 11 11 0 0 0
SMALL
GASTEIGER

@<TRIPOS>ATOM
      1  C1        39.6520  -42.5190   31.9750 C.3     1  FUC1        0.3023
      2  C2        38.2640  -42.9210   31.4710 C.3     1  FUC1        0.2434
      3  C3        37.1670  -42.3610   32.3790 C.3     1  FUC1        0.2198
      4  C4        37.3990  -40.8770   32.6670 C.3     1  FUC1        0.2118
      5  C5        38.8480  -40.6200   33.0880 C.3     1  FUC1        0.1509
      6  C6        39.0600  -39.1190   33.2980 C.3     1  FUC1        0.0350
      7  O1        39.8740  -43.0920   33.2720 O.3     1  FUC1       -0.1869
      8  O2        38.1670  -44.3470   31.4270 O.3     1  FUC1       -0.2148
      9  O3        35.8940  -42.5320   31.7500 O.3     1  FUC1       -0.2174
     10  O4        37.0980  -40.1100   31.4980 O.3     1  FUC1       -0.2177
     11  O5        39.7350  -41.0890   32.0620 O.3     1  FUC1       -0.3264
@<TRIPOS>BOND
     1     8     2    1
     2     2     1    1
     3     2     3    1
     4    10     4    1
     5     9     3    1
     6     1    11    1
     7     1     7    1
     8    11     5    1
     9     3     4    1
    10     4     5    1
    11     5     6    1
