@<TRIPOS>MOLECULE
3sel_HEM_X_1.pdb
 43 50 0 0 0
SMALL
GASTEIGER

@<TRIPOS>ATOM
      1  CHA       35.3840   26.4070   16.8080 C.2    72  HEM72       0.0000
      2  CHB       38.9140   27.2510   13.6500 C.2    72  HEM72       0.0000
      3  CHC       35.7560   29.1880   10.5750 C.2    72  HEM72       0.0000
      4  CHD       32.7640   29.6990   14.3500 C.2    72  HEM72       0.0000
      5  C1A       36.5740   26.3620   16.1540 C.ar   72  HEM72       0.0000
      6  C2A       37.7140   25.5320   16.4850 C.ar   72  HEM72       0.0000
      7  C3A       38.6940   25.7700   15.6160 C.ar   72  HEM72       0.0000
      8  C4A       38.1940   26.7570   14.6950 C.ar   72  HEM72       0.0000
      9  CMA       40.1130   25.1150   15.5750 C.3    72  HEM72       0.0000
     10  CAA       37.7730   24.5080   17.6240 C.3    72  HEM72       0.0000
     11  CBA       37.2570   23.1610   17.0660 C.3    72  HEM72       0.0000
     12  CGA       37.5580   22.9040   15.5880 C.2    72  HEM72       0.0000
     13  O1A       37.5020   23.8180   14.7230 O.co2  72  HEM72       0.0000
     14  O2A       37.8620   21.7450   15.2040 O.co2  72  HEM72       0.0000
     15  C1B       38.3630   27.7730   12.4990 C.2    72  HEM72       0.0000
     16  C2B       39.0590   28.0490   11.2610 C.2    72  HEM72       0.0000
     17  C3B       38.1710   28.5830   10.4120 C.2    72  HEM72       0.0000
     18  C4B       36.9120   28.6470   11.0720 C.2    72  HEM72       0.0000
     19  CMB       40.5500   27.7260   11.0150 C.3    72  HEM72       0.0000
     20  CAB       38.3710   29.0250    8.9440 C.2    72  HEM72       0.0000
     21  CBB       38.9010   28.1130    8.1050 C.2    72  HEM72       0.0000
     22  C1C       34.6970   29.5500   11.3810 C.ar   72  HEM72       0.0000
     23  C2C       33.5600   30.3210   10.9400 C.ar   72  HEM72       0.0000
     24  C3C       32.7220   30.4610   11.9630 C.ar   72  HEM72       0.0000
     25  C4C       33.3070   29.7820   13.0990 C.ar   72  HEM72       0.0000
     26  CMC       33.4600   30.8730    9.4950 C.3    72  HEM72       0.0000
     27  CAC       31.3640   31.2130   11.9810 C.2    72  HEM72       0.0000
     28  CBC       30.4690   31.0380   10.9540 C.2    72  HEM72       0.0000
     29  C1D       33.1670   28.8430   15.3250 C.2    72  HEM72       0.0000
     30  C2D       32.4200   28.5420   16.5010 C.2    72  HEM72       0.0000
     31  C3D       33.2270   27.5300   17.2880 C.2    72  HEM72       0.0000
     32  C4D       34.3760   27.2830   16.4820 C.2    72  HEM72       0.0000
     33  CMD       31.1010   29.1610   16.9130 C.3    72  HEM72       0.0000
     34  CAD       32.8270   26.8460   18.6160 C.3    72  HEM72       0.0000
     35  CBD       31.5720   25.9770   18.3530 C.3    72  HEM72       0.0000
     36  CGD       31.8130   24.7550   17.4860 C.2    72  HEM72       0.0000
     37  O1D       32.8970   24.1510   17.5660 O.co2  72  HEM72       0.0000
     38  O2D       30.9040   24.3570   16.7080 O.co2  72  HEM72       0.0000
     39  NA        36.8930   27.1030   15.0430 N.ar   72  HEM72       0.0000
     40  NB        37.0490   28.1550   12.3430 N.2    72  HEM72       0.0000
     41  NC        34.5160   29.2270   12.7240 N.ar   72  HEM72       0.0000
     42  ND        34.3160   28.0890   15.3550 N.2    72  HEM72       0.0000
     43 FE         35.6620   28.1000   13.8370 Fe     72  HEM72       0.0000
@<TRIPOS>BOND
     1    21    20    2
     2    20    17    1
     3    26    23    1
     4    17    18    1
     5    17    16    2
     6     3    18    2
     7     3    22    1
     8    23    22   ar
     9    23    24   ar
    10    28    27    2
    11    19    16    1
    12    18    40    1
    13    16    15    1
    14    22    41   ar
    15    24    27    1
    16    24    25   ar
    17    40    15    2
    18    40    43    1
    19    15     2    1
    20    41    25   ar
    21    41    43    1
    22    25     4    1
    23     2     8    2
    24    43    39    1
    25    43    42    1
    26     4    29    2
    27     8    39   ar
    28     8     7   ar
    29    13    12   ar
    30    39     5   ar
    31    14    12   ar
    32    29    42    1
    33    29    30    1
    34    42    32    2
    35     9     7    1
    36    12    11    1
    37     7     6   ar
    38     5     6   ar
    39     5     1    2
    40    32     1    1
    41    32    31    1
    42     6    10    1
    43    30    33    1
    44    30    31    2
    45    38    36   ar
    46    11    10    1
    47    31    34    1
    48    36    37   ar
    49    36    35    1
    50    35    34    1
