@<TRIPOS>MOLECULE
3sel_DXC_X_1.pdb
 28 31 0 0 0
SMALL
GASTEIGER

@<TRIPOS>ATOM
      1  C1        26.4910   32.4390   22.1220 C.3    75  DXC75       0.1520
      2  C2        26.3690   31.8610   20.7170 C.3    75  DXC75       0.0329
      3  C3        27.6690   31.0890   20.3260 C.3    75  DXC75       0.0025
      4  C4        28.9230   31.9960   20.3680 C.3    75  DXC75       0.0002
      5  C5        28.9960   32.7140   21.7320 C.3    75  DXC75       0.0026
      6  C6        27.6830   33.4120   22.1280 C.3    75  DXC75       0.0329
      7  C7        27.4770   30.3990   18.9620 C.3    75  DXC75       0.0001
      8  C8        27.4780   31.3550   17.7720 C.3    75  DXC75       0.0000
      9  C9        28.7440   32.2870   17.8380 C.3    75  DXC75       0.0002
     10  C10       28.8860   32.9820   19.2060 C.3    75  DXC75       0.0025
     11  C11       28.6490   33.4220   16.7870 C.3    75  DXC75       0.0024
     12  C12       29.9500   34.2560   16.7180 C.3    75  DXC75       0.0282
     13  C13       30.1430   34.9680   18.0600 C.3    75  DXC75       0.1519
     14  C14       30.1110   33.9680   19.2170 C.3    75  DXC75       0.0329
     15  C15       28.4570   32.9570   15.3380 C.3    75  DXC75       0.0001
     16  C16       28.9490   34.1650   14.5160 C.3    75  DXC75       0.0001
     17  C17       29.5860   35.1610   15.5350 C.3    75  DXC75       0.0024
     18  C18       30.1900   31.1630   20.3070 C.3    75  DXC75       0.0000
     19  C19       30.7340   35.9120   14.8400 C.3    75  DXC75       0.0006
     20  O1        29.1110   35.9160   18.2740 O.3    75  DXC75      -0.2232
     21  O2        25.2960   33.1230   22.5370 O.3    75  DXC75      -0.2232
     22  C20       31.1230   33.3380   16.4140 C.3    75  DXC75       0.0025
     23  C21       30.2780   36.4180   13.4630 C.3    75  DXC75       0.0118
     24  C22       29.1330   37.4000   13.5480 C.3    75  DXC75       0.1141
     25  C23       29.6110   38.8310   13.8010 C.2    75  DXC75       0.3649
     26  O3        30.1670   39.4680   12.9020 O.co2  75  DXC75      -0.2457
     27  O4        29.4540   39.3410   14.9090 O.co2  75  DXC75      -0.2457
     28  C24       31.3700   37.0690   15.6360 C.3    75  DXC75       0.0000
@<TRIPOS>BOND
     1    26    25   ar
     2    23    24    1
     3    23    19    1
     4    24    25    1
     5    25    27   ar
     6    16    15    1
     7    16    17    1
     8    19    17    1
     9    19    28    1
    10    15    11    1
    11    17    12    1
    12    22    12    1
    13    12    11    1
    14    12    13    1
    15    11     9    1
    16     8     9    1
    17     8     7    1
    18     9    10    1
    19    13    20    1
    20    13    14    1
    21     7     3    1
    22    10    14    1
    23    10     4    1
    24    18     4    1
    25     3     4    1
    26     3     2    1
    27     4     5    1
    28     2     1    1
    29     5     6    1
    30     1     6    1
    31     1    21    1
