@<TRIPOS>MOLECULE
3sem_III_D_1.pdb
 43 47 0 0 0
SMALL
GASTEIGER

@<TRIPOS>ATOM
      1  N          7.6840   50.2920   46.6850 N.3    12  PRO12      -0.2103
      2  CA         8.7110   50.6960   45.6960 C.3    12  PRO12       0.1489
      3  C          9.4720   51.9060   46.2330 C.2    12  PRO12       0.2418
      4  O          8.8630   52.9050   46.6160 O.2    12  PRO12      -0.2734
      5  CB         7.9750   51.0770   44.4130 C.3    12  PRO12       0.0282
      6  CG         6.5920   50.4410   44.6210 C.3    12  PRO12       0.0208
      7  CD         6.3400   50.5310   46.1300 C.3    12  PRO12       0.0893
      8  N         10.8140   51.8420   46.2570 N.am   13  PRO13      -0.2719
      9  CA        11.6650   52.9270   46.7460 C.3    13  PRO13       0.1520
     10  C         11.5510   54.1800   45.8750 C.2    13  PRO13       0.2440
     11  O         11.0360   54.1260   44.7570 O.2    13  PRO13      -0.2731
     12  CB        13.0660   52.3100   46.6910 C.3    13  PRO13       0.0310
     13  CG        12.9820   51.3830   45.5390 C.3    13  PRO13       0.0237
     14  CD        11.6270   50.7330   45.7320 C.3    13  PRO13       0.0939
     15  N         11.9870   55.3370   46.3990 N.am   14  PRO14      -0.2716
     16  CA        11.9400   56.6100   45.6750 C.3    14  PRO14       0.1536
     17  C         12.9460   56.6320   44.5330 C.2    14  PRO14       0.2598
     18  O         14.0320   56.0530   44.6310 O.2    14  PRO14      -0.2715
     19  CB        12.3210   57.6310   46.7520 C.3    14  PRO14       0.0310
     20  CG        11.9530   56.9540   48.0370 C.3    14  PRO14       0.0237
     21  CD        12.4080   55.5460   47.7940 C.3    14  PRO14       0.0939
     22  N         12.5610   57.2740   43.4390 N.am   15  VAL15      -0.1964
     23  CA        13.4350   57.4010   42.2850 C.3    15  VAL15       0.1712
     24  C         14.2350   58.6870   42.4960 C.2    15  VAL15       0.2459
     25  O         13.6510   59.7490   42.7150 O.2    15  VAL15      -0.2730
     26  CB        12.6240   57.4920   40.9680 C.3    15  VAL15       0.0289
     27  CG1       13.5590   57.5930   39.7730 C.3    15  VAL15       0.0023
     28  CG2       11.7190   56.2750   40.8220 C.3    15  VAL15       0.0023
     29  N         15.5800   58.6040   42.4560 N.am   16  GLY16      -0.2699
     30  CA        16.4240   59.7660   42.7000 C.3    16  GLY16       0.1793
     31  C         16.2870   60.9120   41.7070 C.2    16  GLY16       0.2462
     32  O         15.1910   61.1840   41.2220 O.2    16  GLY16      -0.2730
     33  CN        16.1220   57.2340   42.2570 C.3    16  GLY16       0.0939
     34  CX1       17.4540   57.4420   41.6040 C.3    16  GLY16       0.0199
     35  CX2       18.2170   56.2130   41.2930 C.3    16  GLY16       0.0018
     36  CX3       18.6350   57.0790   42.4210 C.3    16  GLY16       0.0018
     37  N         17.3930   61.6070   41.3850 N.am   17  PRO17      -0.2727
     38  CA        17.4190   62.7400   40.4470 C.3    17  PRO17       0.1402
     39  C         17.0550   62.4120   38.9900 C.2    17  PRO17       0.2269
     40  O         17.9690   62.1490   38.1760 O.2    17  PRO17      -0.2865
     41  CB        18.8540   63.2540   40.5830 C.3    17  PRO17       0.0296
     42  CG        19.6320   62.0080   40.9030 C.3    17  PRO17       0.0237
     43  CD        18.7440   61.3450   41.9230 C.3    17  PRO17       0.0939
@<TRIPOS>BOND
     1    40    39    2
     2    39    38    1
     3    27    26    1
     4    38    41    1
     5    38    37    1
     6    41    42    1
     7    28    26    1
     8    42    43    1
     9    26    23    1
    10    32    31    2
    11    35    34    1
    12    35    36    1
    13    37    31   am
    14    37    43    1
    15    34    33    1
    16    34    36    1
    17    31    30    1
    18    33    29    1
    19    23    24    1
    20    23    22    1
    21    29    24   am
    22    29    30    1
    23    24    25    2
    24    22    17   am
    25     5     6    1
    26     5     2    1
    27    17    18    2
    28    17    16    1
    29     6     7    1
    30    11    10    2
    31    13    14    1
    32    13    12    1
    33    16    15    1
    34    16    19    1
    35     2     3    1
    36     2     1    1
    37    14     8    1
    38    10    15   am
    39    10     9    1
    40     7     1    1
    41     3     8   am
    42     3     4    2
    43     8     9    1
    44    15    21    1
    45    12     9    1
    46    19    20    1
    47    21    20    1
