@<TRIPOS>MOLECULE
3seq_APC_A_1.pdb
 31 33 0 0 0
SMALL
GASTEIGER

@<TRIPOS>ATOM
      1  PG        18.2380  -66.8200   51.4970 P.3   680  APC680      0.5389
      2  O1G       19.4210  -66.0420   50.9570 O.2   680  APC680     -0.2220
      3  O2G       16.9050  -66.2180   51.0840 O.3   680  APC680     -0.1143
      4  O3G       18.3490  -67.2140   52.9650 O.3   680  APC680     -0.1143
      5  PB        17.2170  -69.2160   50.2330 P.3   680  APC680      0.3895
      6  O1B       17.0780  -70.2250   51.3510 O.3   680  APC680     -0.1388
      7  O2B       17.6330  -69.6510   48.8320 O.2   680  APC680     -0.2544
      8  O3B       18.4030  -68.2160   50.6980 O.3   680  APC680     -0.2026
      9  PA        14.1680  -69.4990   50.0650 P.3   680  APC680      0.3820
     10  O1A       14.5320  -70.9450   49.7620 O.3   680  APC680     -0.1392
     11  O2A       13.1500  -68.8740   49.1470 O.2   680  APC680     -0.2548
     12  C3A       15.6080  -68.3850   50.0450 C.3   680  APC680      0.2357
     13  O5'       13.5550  -69.4970   51.5640 O.3   680  APC680     -0.2896
     14  C5'       13.2270  -68.2830   52.2440 C.3   680  APC680      0.1836
     15  C4'       13.3530  -68.4330   53.7650 C.3   680  APC680      0.1822
     16  O4'       12.5910  -69.5460   54.2580 O.3   680  APC680     -0.3135
     17  C3'       14.7890  -68.6150   54.2590 C.3   680  APC680      0.2184
     18  O3'       15.4550  -67.3610   54.5010 O.3   680  APC680     -0.2174
     19  C2'       14.6010  -69.4390   55.5230 C.3   680  APC680      0.2570
     20  O2'       14.4940  -68.6080   56.6810 O.3   680  APC680     -0.2130
     21  C1'       13.3100  -70.2250   55.2920 C.3   680  APC680      0.3186
     22  N9        13.7530  -71.5270   54.7360 N.pl3 680  APC680     -0.1439
     23  C8        13.6720  -71.9070   53.4430 C.3   680  APC680      0.3377
     24  N7        14.2210  -73.1330   53.2910 N.2   680  APC680     -0.2095
     25  C5        14.6580  -73.5070   54.5160 C.2   680  APC680      0.2526
     26  C6        15.3430  -74.7240   55.0370 C.2   680  APC680      0.4393
     27  N6        15.6550  -75.7650   54.1960 N.pl3 680  APC680      0.2180
     28  N1        15.6410  -74.7490   56.3670 N.2   680  APC680      0.0021
     29  C2        15.3340  -73.7170   57.1800 C.3   680  APC680      0.5254
     30  N3        14.7160  -72.6080   56.7310 N.2   680  APC680     -0.0055
     31  C4        14.3700  -72.4870   55.4200 C.2   680  APC680      0.3518
@<TRIPOS>BOND
     1     7     5    2
     2    11     9    2
     3    10     9    1
     4    12     9    1
     5    12     5    1
     6     9    13    1
     7     5     8    1
     8     5     6    1
     9     8     1    1
    10     2     1    2
    11     3     1    1
    12     1     4    1
    13    13    14    1
    14    14    15    1
    15    24    23    1
    16    24    25    2
    17    23    22    1
    18    15    16    1
    19    15    17    1
    20    27    26    1
    21    16    21    1
    22    17    18    1
    23    17    19    1
    24    25    26    1
    25    25    31    1
    26    22    21    1
    27    22    31    1
    28    26    28    2
    29    21    19    1
    30    31    30    2
    31    19    20    1
    32    28    29    1
    33    30    29    1
