@<TRIPOS>MOLECULE
3seq_NXX_A_1.pdb
 44 48 0 0 0
SMALL
GASTEIGER

@<TRIPOS>ATOM
      1  O7N       12.2940  -65.8210   48.7960 O.co2 681  NXX681     -0.2405
      2  C7N       12.2040  -66.7270   47.9240 C.2   681  NXX681      0.3890
      3  O8N       13.2150  -67.1550   47.3090 O.co2 681  NXX681     -0.2405
      4  C3N       10.8410  -67.3050   47.6100 C.2   681  NXX681      0.0940
      5  C4N       10.1180  -67.9170   48.6300 C.2   681  NXX681      0.0050
      6  C5N        8.8700  -68.4460   48.3430 C.2   681  NXX681     -0.0044
      7  C6N        8.3790  -68.3510   47.0430 C.3   681  NXX681      0.1195
      8  C2N       10.2960  -67.2530   46.3180 C.2   681  NXX681      0.0699
      9  N1N        9.0820  -67.7710   46.0590 N.pl3 681  NXX681     -0.2787
     10  C1M        8.4860  -67.7170   44.7160 C.3   681  NXX681      0.2263
     11  C2M        8.2250  -69.1560   44.3020 C.3   681  NXX681      0.2309
     12  O2M        8.8480  -69.4180   43.0460 O.3   681  NXX681     -0.2158
     13  C3M        6.7200  -69.2820   44.1590 C.3   681  NXX681      0.2158
     14  O3M        6.3950  -69.9950   42.9610 O.3   681  NXX681     -0.2175
     15  O4M        7.2200  -67.0300   44.7330 O.3   681  NXX681     -0.3327
     16  C4M        6.2000  -67.8460   44.1410 C.3   681  NXX681      0.1799
     17  C5M        4.8670  -67.6790   44.8810 C.3   681  NXX681      0.1813
     18  O5M        3.7800  -67.7280   43.9320 O.3   681  NXX681     -0.3112
     19  PN         2.5910  -66.6350   44.0810 P.3   681  NXX681      0.2189
     20  O1N        3.1880  -65.3240   43.5770 O.3   681  NXX681     -0.4371
     21  O2N        1.2730  -67.1010   43.4850 O.2   681  NXX681     -0.5170
     22  O3A        2.6220  -66.7010   45.7140 O.3   681  NXX681     -0.2703
     23  PA         1.4920  -66.4820   46.8700 P.3   681  NXX681      0.2189
     24  O1A        0.6260  -67.7000   47.0500 O.2   681  NXX681     -0.5170
     25  O2A        2.2730  -66.0130   48.0890 O.3   681  NXX681     -0.4371
     26  O5B        0.4930  -65.3320   46.3400 O.3   681  NXX681     -0.3112
     27  C5B       -0.6110  -65.6690   45.5170 C.3   681  NXX681      0.1813
     28  C4B       -1.8150  -65.8000   46.4400 C.3   681  NXX681      0.1821
     29  C3B       -2.9200  -66.5520   45.7230 C.3   681  NXX681      0.2184
     30  O3B       -3.6430  -67.3780   46.6700 O.3   681  NXX681     -0.2174
     31  C2B       -3.7210  -65.4310   45.0730 C.3   681  NXX681      0.2570
     32  O2P       -5.0750  -65.8460   44.8500 O.3   681  NXX681     -0.2130
     33  C1B       -3.5790  -64.2890   46.0760 C.3   681  NXX681      0.3186
     34  O4B       -2.3360  -64.5170   46.7730 O.3   681  NXX681     -0.3135
     35  N9A       -3.5910  -62.9060   45.4810 N.pl3 681  NXX681     -0.1439
     36  C8A       -3.0840  -62.5440   44.2850 C.3   681  NXX681      0.3377
     37  N7A       -3.2710  -61.2140   44.0840 N.2   681  NXX681     -0.2095
     38  C5A       -3.9130  -60.7470   45.1770 C.2   681  NXX681      0.2526
     39  C4A       -4.1120  -61.7960   46.0570 C.2   681  NXX681      0.3518
     40  C6A       -4.4100  -59.4130   45.5760 C.2   681  NXX681      0.4393
     41  N6A       -4.2300  -58.3580   44.7380 N.pl3 681  NXX681      0.2180
     42  N1A       -5.0460  -59.2920   46.7700 N.2   681  NXX681      0.0021
     43  C2A       -5.2100  -60.3500   47.5770 C.3   681  NXX681      0.5254
     44  N3A       -4.7470  -61.5620   47.2280 N.2   681  NXX681     -0.0055
@<TRIPOS>BOND
     1    14    13    1
     2    12    11    1
     3    21    19    2
     4    20    19    1
     5    18    19    1
     6    18    17    1
     7    19    22    1
     8    37    36    1
     9    37    38    2
    10    16    13    1
    11    16    15    1
    12    16    17    1
    13    13    11    1
    14    36    35    1
    15    11    10    1
    16    10    15    1
    17    10     9    1
    18    41    40    1
    19    32    31    1
    20    31    29    1
    21    31    33    1
    22    38    40    1
    23    38    39    1
    24    35    39    1
    25    35    33    1
    26    27    26    1
    27    27    28    1
    28    40    42    2
    29    22    23    1
    30    29    28    1
    31    29    30    1
    32    39    44    2
    33     9     8    1
    34     9     7    1
    35    33    34    1
    36     8     4    2
    37    26    23    1
    38    28    34    1
    39    42    43    1
    40    23    24    2
    41    23    25    1
    42     7     6    1
    43    44    43    1
    44     3     2   ar
    45     4     2    1
    46     4     5    1
    47     2     1   ar
    48     6     5    2
