@<TRIPOS>MOLECULE
3ser_MAL_A_1.pdb
 23 24 0 0 0
SMALL
GASTEIGER

@<TRIPOS>ATOM
      1  C1        -7.8300  -20.2030  -25.4680 C.3   5044  MAL5044     0.2695
      2  C2        -8.6930  -21.4470  -25.3880 C.3   5044  MAL5044     0.2406
      3  C3        -9.6720  -21.4530  -26.5540 C.3   5044  MAL5044     0.2198
      4  C4       -10.5060  -20.1750  -26.5100 C.3   5044  MAL5044     0.2144
      5  C5        -9.5880  -18.9590  -26.4890 C.3   5044  MAL5044     0.1835
      6  C6       -10.4160  -17.6960  -26.3020 C.3   5044  MAL5044     0.2142
      7  O1        -7.1540  -20.2410  -26.6990 O.3   5044  MAL5044    -0.3257
      8  O2        -7.8830  -22.5910  -25.4700 O.3   5044  MAL5044    -0.2149
      9  O3       -10.4850  -22.6020  -26.4770 O.3   5044  MAL5044    -0.2174
     10  O4       -11.3740  -20.0840  -27.6230 O.3   5044  MAL5044    -0.2176
     11  O5        -8.6540  -19.0570  -25.4300 O.3   5044  MAL5044    -0.3256
     12  O6        -9.6330  -16.5480  -26.5580 O.3   5044  MAL5044    -0.2176
     13  C1'       -3.2570  -19.6880  -27.8660 C.3   5044  MAL5044     0.3023
     14  C2'       -3.4960  -20.8570  -26.9180 C.3   5044  MAL5044     0.2433
     15  C3'       -4.9750  -21.1990  -26.8160 C.3   5044  MAL5044     0.2168
     16  C4'       -5.7880  -19.9120  -26.7400 C.3   5044  MAL5044     0.1804
     17  C5'       -5.5900  -19.0960  -28.0120 C.3   5044  MAL5044     0.1804
     18  C6'       -5.6910  -17.5920  -27.7880 C.3   5044  MAL5044     0.2141
     19  O1'       -2.2220  -20.0770  -28.7280 O.3   5044  MAL5044    -0.1869
     20  O2'       -2.7950  -21.9880  -27.3790 O.3   5044  MAL5044    -0.2148
     21  O3'       -5.1830  -22.0290  -25.6900 O.3   5044  MAL5044    -0.2175
     22  O5'       -4.3780  -19.4230  -28.6770 O.3   5044  MAL5044    -0.3237
     23  O6'       -5.9980  -16.9700  -29.0180 O.3   5044  MAL5044    -0.2176
@<TRIPOS>BOND
     1    23    18    1
     2    19    13    1
     3    22    17    1
     4    22    13    1
     5    17    18    1
     6    17    16    1
     7    13    14    1
     8    10     4    1
     9    20    14    1
    10    14    15    1
    11    15    16    1
    12    15    21    1
    13    16     7    1
    14     7     1    1
    15    12     6    1
    16     3     4    1
    17     3     9    1
    18     3     2    1
    19     4     5    1
    20     5     6    1
    21     5    11    1
    22     8     2    1
    23     1    11    1
    24     1     2    1
