@<TRIPOS>MOLECULE
3ses_MAL_A_1.pdb
 23 24 0 0 0
SMALL
GASTEIGER

@<TRIPOS>ATOM
      1  C1         7.9970    6.7480  -20.0450 C.3   5044  MAL5044     0.2695
      2  C2         8.8740    5.8270  -19.2140 C.3   5044  MAL5044     0.2406
      3  C3         8.1240    5.4470  -17.9460 C.3   5044  MAL5044     0.2198
      4  C4         7.7710    6.7180  -17.1880 C.3   5044  MAL5044     0.2144
      5  C5         6.9810    7.6690  -18.0900 C.3   5044  MAL5044     0.1835
      6  C6         6.7060    8.9930  -17.3810 C.3   5044  MAL5044     0.2142
      7  O1         6.8220    6.0350  -20.3860 O.3   5044  MAL5044    -0.3257
      8  O2         9.1830    4.6610  -19.9580 O.3   5044  MAL5044    -0.2149
      9  O3         8.9440    4.6250  -17.1460 O.3   5044  MAL5044    -0.2174
     10  O4         7.0300    6.4030  -16.0190 O.3   5044  MAL5044    -0.2176
     11  O5         7.6880    7.9200  -19.2980 O.3   5044  MAL5044    -0.3256
     12  O6         5.8020    9.7830  -18.1310 O.3   5044  MAL5044    -0.2176
     13  C1'        4.6610    5.3280  -23.8700 C.3   5044  MAL5044     0.3023
     14  C2'        6.1540    4.9640  -23.8720 C.3   5044  MAL5044     0.2433
     15  C3'        6.7650    4.9420  -22.4820 C.3   5044  MAL5044     0.2168
     16  C4'        6.3570    6.1840  -21.7090 C.3   5044  MAL5044     0.1804
     17  C5'        4.8390    6.3740  -21.7260 C.3   5044  MAL5044     0.1804
     18  C6'        4.4770    7.6820  -21.0200 C.3   5044  MAL5044     0.2141
     19  O1'        3.9150    4.2500  -23.3920 O.3   5044  MAL5044    -0.1869
     20  O2'        6.3420    3.6740  -24.4110 O.3   5044  MAL5044    -0.2148
     21  O3'        8.1810    4.8950  -22.5960 O.3   5044  MAL5044    -0.2175
     22  O5'        4.3580    6.4480  -23.0610 O.3   5044  MAL5044    -0.3237
     23  O6'        3.0940    7.7180  -20.7090 O.3   5044  MAL5044    -0.2176
@<TRIPOS>BOND
     1    20    14    1
     2    14    13    1
     3    14    15    1
     4    13    19    1
     5    13    22    1
     6    22    17    1
     7    21    15    1
     8    15    16    1
     9    17    16    1
    10    17    18    1
    11    16     7    1
    12    18    23    1
    13     7     1    1
    14     1    11    1
    15     1     2    1
    16     8     2    1
    17    11     5    1
    18     2     3    1
    19    12     6    1
    20     5     6    1
    21     5     4    1
    22     3     4    1
    23     3     9    1
    24     4    10    1
