@<TRIPOS>MOLECULE
3set_MAL_A_1.pdb
 23 24 0 0 0
SMALL
GASTEIGER

@<TRIPOS>ATOM
      1  C1         7.5670    6.2930  -20.4010 C.3   5044  MAL5044     0.2695
      2  C2         8.4580    5.3430  -19.6200 C.3   5044  MAL5044     0.2406
      3  C3         7.7510    4.9320  -18.3370 C.3   5044  MAL5044     0.2198
      4  C4         7.3750    6.1850  -17.5560 C.3   5044  MAL5044     0.2144
      5  C5         6.5490    7.1260  -18.4250 C.3   5044  MAL5044     0.1835
      6  C6         6.2350    8.4200  -17.6780 C.3   5044  MAL5044     0.2142
      7  O1         6.3940    5.6030  -20.7650 O.3   5044  MAL5044    -0.3257
      8  O2         8.7220    4.2070  -20.4090 O.3   5044  MAL5044    -0.2149
      9  O3         8.6010    4.1060  -17.5710 O.3   5044  MAL5044    -0.2174
     10  O4         6.6300    5.8390  -16.4170 O.3   5044  MAL5044    -0.2176
     11  O5         7.2460    7.4260  -19.6200 O.3   5044  MAL5044    -0.3256
     12  O6         5.3390    9.2060  -18.4380 O.3   5044  MAL5044    -0.2176
     13  C1'        4.1720    4.9250  -24.1700 C.3   5044  MAL5044     0.3023
     14  C2'        5.6690    4.6470  -24.2700 C.3   5044  MAL5044     0.2433
     15  C3'        6.3200    4.5650  -22.8990 C.3   5044  MAL5044     0.2168
     16  C4'        5.9450    5.7900  -22.0790 C.3   5044  MAL5044     0.1804
     17  C5'        4.4300    5.9940  -22.0630 C.3   5044  MAL5044     0.1804
     18  C6'        4.0800    7.3020  -21.3560 C.3   5044  MAL5044     0.2141
     19  O1'        3.5060    3.8090  -23.6280 O.3   5044  MAL5044    -0.1869
     20  O2'        5.8420    3.4090  -24.9110 O.3   5044  MAL5044    -0.2148
     21  O3'        7.7320    4.4610  -23.0150 O.3   5044  MAL5044    -0.2175
     22  O5'        3.9230    6.0610  -23.3790 O.3   5044  MAL5044    -0.3237
     23  O6'        2.6990    7.3380  -21.0470 O.3   5044  MAL5044    -0.2176
@<TRIPOS>BOND
     1    20    14    1
     2    14    13    1
     3    14    15    1
     4    13    19    1
     5    13    22    1
     6    22    17    1
     7    21    15    1
     8    15    16    1
     9    16    17    1
    10    16     7    1
    11    17    18    1
    12    18    23    1
    13     7     1    1
    14     8     2    1
    15     1     2    1
    16     1    11    1
    17     2     3    1
    18    11     5    1
    19    12     6    1
    20     5     6    1
    21     5     4    1
    22     3     9    1
    23     3     4    1
    24     4    10    1
