@<TRIPOS>MOLECULE
3seu_MAL_A_1.pdb
 23 24 0 0 0
SMALL
GASTEIGER

@<TRIPOS>ATOM
      1  C1        14.5930   -9.3550    7.0460 C.3   5044  MAL5044     0.2695
      2  C2        15.3110   -9.5020    8.3820 C.3   5044  MAL5044     0.2406
      3  C3        16.0650   -8.2160    8.6870 C.3   5044  MAL5044     0.2198
      4  C4        17.0370   -7.9510    7.5480 C.3   5044  MAL5044     0.2144
      5  C5        16.3000   -7.9070    6.2120 C.3   5044  MAL5044     0.1835
      6  C6        17.3200   -7.7860    5.0840 C.3   5044  MAL5044     0.2142
      7  O1        13.6460   -8.3110    7.1310 O.3   5044  MAL5044    -0.3257
      8  O2        14.3770   -9.7720    9.4010 O.3   5044  MAL5044    -0.2149
      9  O3        16.7640   -8.3410    9.9070 O.3   5044  MAL5044    -0.2174
     10  O4        17.7160   -6.7270    7.7480 O.3   5044  MAL5044    -0.2176
     11  O5        15.5290   -9.0780    6.0200 O.3   5044  MAL5044    -0.3256
     12  O6        16.6840   -7.4230    3.8780 O.3   5044  MAL5044    -0.2176
     13  C1'        9.5380   -8.1040    6.1980 C.3   5044  MAL5044     0.3023
     14  C2'       10.0040   -9.1450    7.2240 C.3   5044  MAL5044     0.2433
     15  C3'       11.4310   -8.9510    7.7250 C.3   5044  MAL5044     0.2168
     16  C4'       12.3640   -8.5630    6.5910 C.3   5044  MAL5044     0.1804
     17  C5'       11.8340   -7.3170    5.8960 C.3   5044  MAL5044     0.1804
     18  C6'       12.7710   -6.9200    4.7510 C.3   5044  MAL5044     0.2141
     19  O1'        8.8130   -7.0800    6.8430 O.3   5044  MAL5044    -0.1869
     20  O2'        9.1350   -9.0990    8.3380 O.3   5044  MAL5044    -0.2148
     21  O3'       11.8880  -10.1490    8.3230 O.3   5044  MAL5044    -0.2175
     22  O5'       10.5520   -7.5660    5.3530 O.3   5044  MAL5044    -0.3237
     23  O6'       12.5120   -5.5910    4.3410 O.3   5044  MAL5044    -0.2176
@<TRIPOS>BOND
     1    12     6    1
     2    23    18    1
     3    18    17    1
     4     6     5    1
     5    22    17    1
     6    22    13    1
     7    17    16    1
     8    11     5    1
     9    11     1    1
    10    13    19    1
    11    13    14    1
    12     5     4    1
    13    16     7    1
    14    16    15    1
    15     1     7    1
    16     1     2    1
    17    14    15    1
    18    14    20    1
    19     4    10    1
    20     4     3    1
    21    15    21    1
    22     2     3    1
    23     2     8    1
    24     3     9    1
