@<TRIPOS>MOLECULE
3sev_MAL_A_1.pdb
 23 24 0 0 0
SMALL
GASTEIGER

@<TRIPOS>ATOM
      1  C1         0.8710   40.2720   18.4010 C.3   5044  MAL5044     0.2695
      2  C2         1.9900   41.0660   17.7170 C.3   5044  MAL5044     0.2406
      3  C3         1.4900   42.5350   17.6610 C.3   5044  MAL5044     0.2198
      4  C4         0.1760   42.7060   16.9010 C.3   5044  MAL5044     0.2144
      5  C5        -0.8100   41.7750   17.5570 C.3   5044  MAL5044     0.1835
      6  C6        -2.1860   41.9020   16.9100 C.3   5044  MAL5044     0.2142
      7  O1         0.6180   40.7050   19.7780 O.3   5044  MAL5044    -0.3257
      8  O2         3.1830   41.0570   18.5570 O.3   5044  MAL5044    -0.2149
      9  O3         2.5100   43.4010   17.3130 O.3   5044  MAL5044    -0.2174
     10  O4        -0.2380   44.0440   17.0350 O.3   5044  MAL5044    -0.2176
     11  O5        -0.2420   40.4570   17.5710 O.3   5044  MAL5044    -0.3256
     12  O6        -3.1350   41.1170   17.5700 O.3   5044  MAL5044    -0.2176
     13  C1'        0.4370   38.7330   23.6730 C.3   5044  MAL5044     0.3023
     14  C2'        1.6920   38.7370   22.8230 C.3   5044  MAL5044     0.2433
     15  C3'        1.7740   39.7360   21.6510 C.3   5044  MAL5044     0.2168
     16  C4'        0.4880   39.8110   20.8750 C.3   5044  MAL5044     0.1804
     17  C5'       -0.6060   40.1450   21.8720 C.3   5044  MAL5044     0.1804
     18  C6'       -1.9470   40.0750   21.1480 C.3   5044  MAL5044     0.2141
     19  O1'        0.5610   39.6820   24.7030 O.3   5044  MAL5044    -0.1869
     20  O2'        2.8330   38.8940   23.5760 O.3   5044  MAL5044    -0.2148
     21  O3'        2.6880   39.1720   20.7550 O.3   5044  MAL5044    -0.2175
     22  O5'       -0.6880   39.1250   22.9020 O.3   5044  MAL5044    -0.3237
     23  O6'       -2.6920   41.2380   21.5130 O.3   5044  MAL5044    -0.2176
@<TRIPOS>BOND
     1     4    10    1
     2     4     5    1
     3     4     3    1
     4     6     5    1
     5     6    12    1
     6     9     3    1
     7     5    11    1
     8    11     1    1
     9     3     2    1
    10     2     1    1
    11     2     8    1
    12     1     7    1
    13     7    16    1
    14    21    15    1
    15    16    15    1
    16    16    17    1
    17    18    23    1
    18    18    17    1
    19    15    14    1
    20    17    22    1
    21    14    20    1
    22    14    13    1
    23    22    13    1
    24    13    19    1
