@<TRIPOS>MOLECULE
3sew_MAL_A_1.pdb
 23 24 0 0 0
SMALL
GASTEIGER

@<TRIPOS>ATOM
      1  C1        23.8380   -9.6870  -16.0140 C.3   5044  MAL5044     0.2695
      2  C2        24.5080   -8.4880  -15.3500 C.3   5044  MAL5044     0.2406
      3  C3        25.8290   -8.1580  -16.0350 C.3   5044  MAL5044     0.2198
      4  C4        26.7130   -9.4010  -16.0460 C.3   5044  MAL5044     0.2144
      5  C5        25.9580  -10.5510  -16.7130 C.3   5044  MAL5044     0.1835
      6  C6        26.7790  -11.8400  -16.7000 C.3   5044  MAL5044     0.2142
      7  O1        23.4250   -9.3530  -17.3220 O.3   5044  MAL5044    -0.3257
      8  O2        23.6420   -7.3710  -15.3940 O.3   5044  MAL5044    -0.2149
      9  O3        26.4670   -7.1040  -15.3490 O.3   5044  MAL5044    -0.2174
     10  O4        27.9180   -9.1450  -16.7430 O.3   5044  MAL5044    -0.2176
     11  O5        24.7300  -10.7900  -16.0550 O.3   5044  MAL5044    -0.3256
     12  O6        26.2520  -12.7520  -17.6430 O.3   5044  MAL5044    -0.2176
     13  C1'       20.1060   -9.1590  -19.6710 C.3   5044  MAL5044     0.3023
     14  C2'       19.8740   -8.7220  -18.2310 C.3   5044  MAL5044     0.2433
     15  C3'       21.2080   -8.5350  -17.5200 C.3   5044  MAL5044     0.2168
     16  C4'       22.1260   -9.7380  -17.7070 C.3   5044  MAL5044     0.1804
     17  C5'       22.1660  -10.2010  -19.1630 C.3   5044  MAL5044     0.1804
     18  C6'       22.9130  -11.5310  -19.2750 C.3   5044  MAL5044     0.2141
     19  O1'       20.8210   -8.1580  -20.3570 O.3   5044  MAL5044    -0.1869
     20  O2'       19.1720   -7.4930  -18.1990 O.3   5044  MAL5044    -0.2148
     21  O3'       20.9750   -8.3310  -16.1440 O.3   5044  MAL5044    -0.2175
     22  O5'       20.8540  -10.3560  -19.6620 O.3   5044  MAL5044    -0.3237
     23  O6'       23.2880  -11.7990  -20.6150 O.3   5044  MAL5044    -0.2176
@<TRIPOS>BOND
     1    23    18    1
     2    19    13    1
     3    13    22    1
     4    13    14    1
     5    22    17    1
     6    18    17    1
     7    17    16    1
     8    14    20    1
     9    14    15    1
    10    16    15    1
    11    16     7    1
    12    12     6    1
    13    15    21    1
    14     7     1    1
    15    10     4    1
    16     5     6    1
    17     5    11    1
    18     5     4    1
    19    11     1    1
    20     4     3    1
    21     3     2    1
    22     3     9    1
    23     1     2    1
    24     8     2    1
