@<TRIPOS>MOLECULE
3sex_MAL_A_1.pdb
 23 24 0 0 0
SMALL
GASTEIGER

@<TRIPOS>ATOM
      1  C1        19.8090    4.3650   16.8200 C.3   5044  MAL5044     0.2695
      2  C2        20.6280    3.7710   15.6840 C.3   5044  MAL5044     0.2406
      3  C3        21.0470    4.8970   14.7410 C.3   5044  MAL5044     0.2198
      4  C4        19.7910    5.5980   14.2360 C.3   5044  MAL5044     0.2144
      5  C5        18.8880    6.0290   15.3850 C.3   5044  MAL5044     0.1835
      6  C6        17.5390    6.5590   14.8760 C.3   5044  MAL5044     0.2142
      7  O1        20.5810    5.3190   17.5220 O.3   5044  MAL5044    -0.3257
      8  O2        21.7490    3.1450   16.2420 O.3   5044  MAL5044    -0.2149
      9  O3        21.8000    4.4330   13.6300 O.3   5044  MAL5044    -0.2174
     10  O4        20.1990    6.7310   13.4850 O.3   5044  MAL5044    -0.2176
     11  O5        18.6440    4.9570   16.2800 O.3   5044  MAL5044    -0.3256
     12  O6        16.8970    7.3210   15.8920 O.3   5044  MAL5044    -0.2176
     13  C1'       21.5870    6.0430   21.5230 C.3   5044  MAL5044     0.3023
     14  C2'       21.8200    4.6300   20.9760 C.3   5044  MAL5044     0.2433
     15  C3'       21.7910    4.6090   19.4610 C.3   5044  MAL5044     0.2168
     16  C4'       20.5390    5.2910   18.9360 C.3   5044  MAL5044     0.1804
     17  C5'       20.4410    6.7080   19.5010 C.3   5044  MAL5044     0.1804
     18  C6'       19.1310    7.3610   19.0540 C.3   5044  MAL5044     0.2141
     19  O1'       22.7490    6.7980   21.3310 O.3   5044  MAL5044    -0.1869
     20  O2'       23.0830    4.1140   21.3920 O.3   5044  MAL5044    -0.2148
     21  O3'       21.8060    3.2690   19.0420 O.3   5044  MAL5044    -0.2175
     22  O5'       20.4820    6.7100   20.9210 O.3   5044  MAL5044    -0.3237
     23  O6'       19.1540    8.7490   19.3400 O.3   5044  MAL5044    -0.2176
@<TRIPOS>BOND
     1    10     4    1
     2     9     3    1
     3     4     3    1
     4     4     5    1
     5     3     2    1
     6     6     5    1
     7     6    12    1
     8     5    11    1
     9     2     8    1
    10     2     1    1
    11    11     1    1
    12     1     7    1
    13     7    16    1
    14    16    15    1
    15    16    17    1
    16    21    15    1
    17    18    23    1
    18    18    17    1
    19    15    14    1
    20    17    22    1
    21    22    13    1
    22    14    20    1
    23    14    13    1
    24    19    13    1
