@<TRIPOS>MOLECULE
3sey_MAL_A_1.pdb
 23 24 0 0 0
SMALL
GASTEIGER

@<TRIPOS>ATOM
      1  C1        11.6790    1.8020   19.2490 C.3   5044  MAL5044     0.2695
      2  C2        12.8720    1.8230   18.2940 C.3   5044  MAL5044     0.2406
      3  C3        13.6750    3.0780   18.5640 C.3   5044  MAL5044     0.2198
      4  C4        12.7660    4.2810   18.3610 C.3   5044  MAL5044     0.2144
      5  C5        11.4820    4.1800   19.2030 C.3   5044  MAL5044     0.1835
      6  C6        10.4890    5.2880   18.8410 C.3   5044  MAL5044     0.2142
      7  O1        12.1110    1.8220   20.6020 O.3   5044  MAL5044    -0.3257
      8  O2        13.6930    0.6900   18.4890 O.3   5044  MAL5044    -0.2149
      9  O3        14.7700    3.1460   17.6810 O.3   5044  MAL5044    -0.2174
     10  O4        13.5100    5.4300   18.7140 O.3   5044  MAL5044    -0.2176
     11  O5        10.8440    2.9210   19.0220 O.3   5044  MAL5044    -0.3256
     12  O6         9.5440    5.3990   19.8830 O.3   5044  MAL5044    -0.2176
     13  C1'       11.3830   -0.5850   23.9640 C.3   5044  MAL5044     0.3023
     14  C2'       11.7130   -1.3170   22.6650 C.3   5044  MAL5044     0.2433
     15  C3'       12.3000   -0.3930   21.6060 C.3   5044  MAL5044     0.2168
     16  C4'       11.4770    0.9020   21.4780 C.3   5044  MAL5044     0.1804
     17  C5'       11.2710    1.5650   22.8420 C.3   5044  MAL5044     0.1804
     18  C6'       10.2810    2.7270   22.7070 C.3   5044  MAL5044     0.2141
     19  O1'       12.5660   -0.3650   24.6690 O.3   5044  MAL5044    -0.1869
     20  O2'       12.6630   -2.3240   22.9400 O.3   5044  MAL5044    -0.2148
     21  O3'       12.3220   -1.1310   20.4060 O.3   5044  MAL5044    -0.2175
     22  O5'       10.7090    0.6470   23.7550 O.3   5044  MAL5044    -0.3237
     23  O6'       10.4630    3.6470   23.7670 O.3   5044  MAL5044    -0.2176
@<TRIPOS>BOND
     1     9     3    1
     2     2     8    1
     3     2     3    1
     4     2     1    1
     5     4     3    1
     6     4    10    1
     7     4     5    1
     8     6     5    1
     9     6    12    1
    10    11     5    1
    11    11     1    1
    12     1     7    1
    13    21    15    1
    14     7    16    1
    15    16    15    1
    16    16    17    1
    17    15    14    1
    18    14    20    1
    19    14    13    1
    20    18    17    1
    21    18    23    1
    22    17    22    1
    23    22    13    1
    24    13    19    1
