@<TRIPOS>MOLECULE
3sez_ATP_A_1.pdb
 31 33 0 0 0
SMALL
GASTEIGER

@<TRIPOS>ATOM
      1  PG        17.5910  -68.6910   47.9870 P.3   680  ATP680      0.5373
      2  O1G       16.9390  -70.0200   47.6750 O.3   680  ATP680     -0.1143
      3  O2G       17.2280  -67.5810   47.0130 O.2   680  ATP680     -0.2221
      4  O3G       19.0690  -68.8010   48.3030 O.3   680  ATP680     -0.1143
      5  PB        17.2190  -68.8600   50.8420 P.3   680  ATP680      0.2277
      6  O1B       18.0740  -67.8650   51.6460 O.3   680  ATP680     -0.4368
      7  O2B       17.6350  -70.2930   50.6250 O.2   680  ATP680     -0.5168
      8  O3B       16.9170  -68.2030   49.3840 O.3   680  ATP680     -0.2258
      9  PA        14.4320  -69.5760   50.9330 P.3   680  ATP680      0.2189
     10  O1A       14.6950  -71.0000   50.4930 O.3   680  ATP680     -0.4371
     11  O2A       13.7750  -68.6160   49.9690 O.2   680  ATP680     -0.5170
     12  O3A       15.7670  -68.8850   51.5430 O.3   680  ATP680     -0.2700
     13  O5'       13.5620  -69.6240   52.2870 O.3   680  ATP680     -0.3112
     14  C5'       13.1350  -68.4210   52.9260 C.3   680  ATP680      0.1813
     15  C4'       13.3310  -68.5640   54.4330 C.3   680  ATP680      0.1821
     16  O4'       12.5780  -69.6730   54.9590 O.3   680  ATP680     -0.3135
     17  C3'       14.7720  -68.8800   54.8330 C.3   680  ATP680      0.2184
     18  O3'       15.6450  -67.7390   54.8170 O.3   680  ATP680     -0.2174
     19  C2'       14.5680  -69.5300   56.1940 C.3   680  ATP680      0.2570
     20  O2'       14.1450  -68.5890   57.1950 O.3   680  ATP680     -0.2130
     21  C1'       13.3960  -70.4420   55.8620 C.3   680  ATP680      0.3186
     22  N9        13.8990  -71.6900   55.2080 N.pl3 680  ATP680     -0.1439
     23  C8        13.7780  -72.0200   53.9060 C.3   680  ATP680      0.3377
     24  N7        14.3620  -73.2210   53.6740 N.2   680  ATP680     -0.2095
     25  C5        14.8470  -73.6580   54.8650 C.2   680  ATP680      0.2526
     26  C6        15.5330  -74.8230   55.2560 C.2   680  ATP680      0.4393
     27  N6        15.8530  -75.8220   54.3450 N.pl3 680  ATP680      0.2180
     28  N1        15.8720  -74.9260   56.5790 N.2   680  ATP680      0.0021
     29  C2        15.5800  -73.9630   57.4820 C.3   680  ATP680      0.5254
     30  N3        14.9210  -72.8560   57.1260 N.2   680  ATP680     -0.0055
     31  C4        14.5480  -72.6850   55.8270 C.2   680  ATP680      0.3518
@<TRIPOS>BOND
     1     3     1    2
     2     2     1    1
     3     1     4    1
     4     1     8    1
     5     8     5    1
     6    11     9    2
     7    10     9    1
     8     7     5    2
     9     5    12    1
    10     5     6    1
    11     9    12    1
    12     9    13    1
    13    13    14    1
    14    14    15    1
    15    24    23    1
    16    24    25    2
    17    23    22    1
    18    27    26    1
    19    15    17    1
    20    15    16    1
    21    18    17    1
    22    17    19    1
    23    25    26    1
    24    25    31    1
    25    16    21    1
    26    22    31    1
    27    22    21    1
    28    26    28    2
    29    31    30    2
    30    21    19    1
    31    19    20    1
    32    28    29    1
    33    30    29    1
