@<TRIPOS>MOLECULE
3sez_NXX_A_1.pdb
 44 48 0 0 0
SMALL
GASTEIGER

@<TRIPOS>ATOM
      1  O7N       12.4340  -66.2180   48.7850 O.co2 681  NXX681     -0.2405
      2  C7N       12.2540  -67.3050   48.1710 C.2   681  NXX681      0.3890
      3  O8N       13.1840  -68.0540   47.7380 O.co2 681  NXX681     -0.2405
      4  C3N       10.8360  -67.7180   47.9280 C.2   681  NXX681      0.0940
      5  C4N       10.0480  -68.1560   48.9920 C.2   681  NXX681      0.0050
      6  C5N        8.7450  -68.5420   48.7230 C.2   681  NXX681     -0.0044
      7  C6N        8.2810  -68.4740   47.4070 C.3   681  NXX681      0.1195
      8  C2N       10.3300  -67.6780   46.6280 C.2   681  NXX681      0.0699
      9  N1N        9.0680  -68.0600   46.3930 N.pl3 681  NXX681     -0.2787
     10  C1M        8.5270  -68.0150   45.0330 C.3   681  NXX681      0.2263
     11  C2M        7.9770  -69.3940   44.6990 C.3   681  NXX681      0.2309
     12  O2M        8.6570  -69.9560   43.5800 O.3   681  NXX681     -0.2158
     13  C3M        6.5330  -69.1900   44.3120 C.3   681  NXX681      0.2158
     14  O3M        6.3460  -69.4880   42.9250 O.3   681  NXX681     -0.2175
     15  O4M        7.4400  -67.0970   45.0370 O.3   681  NXX681     -0.3327
     16  C4M        6.2660  -67.7110   44.5070 C.3   681  NXX681      0.1799
     17  C5M        5.0580  -67.5010   45.4190 C.3   681  NXX681      0.1813
     18  O5M        3.9140  -67.7870   44.6090 O.3   681  NXX681     -0.3112
     19  PN         2.5890  -66.9030   44.7590 P.3   681  NXX681      0.2189
     20  O1N        3.0870  -65.4660   44.7640 O.3   681  NXX681     -0.4371
     21  O2N        1.6610  -67.3980   43.6680 O.2   681  NXX681     -0.5170
     22  O3A        2.1060  -67.4370   46.2260 O.3   681  NXX681     -0.2703
     23  PA         1.4220  -66.6080   47.4370 P.3   681  NXX681      0.2189
     24  O1A        0.3720  -67.4100   48.1930 O.2   681  NXX681     -0.5170
     25  O2A        2.5460  -66.0420   48.2900 O.3   681  NXX681     -0.4371
     26  O5B        0.5770  -65.4660   46.6610 O.3   681  NXX681     -0.3112
     27  C5B       -0.5070  -65.7940   45.7940 C.3   681  NXX681      0.1813
     28  C4B       -1.7740  -65.9740   46.6360 C.3   681  NXX681      0.1821
     29  C3B       -2.9200  -66.5440   45.8140 C.3   681  NXX681      0.2184
     30  O3B       -3.7870  -67.3430   46.6420 O.3   681  NXX681     -0.2174
     31  C2B       -3.6710  -65.3290   45.3230 C.3   681  NXX681      0.2570
     32  O2P       -5.0450  -65.6670   45.0300 O.3   681  NXX681     -0.2130
     33  C1B       -3.5070  -64.3930   46.5130 C.3   681  NXX681      0.3186
     34  O4B       -2.2440  -64.7270   47.1340 O.3   681  NXX681     -0.3135
     35  N9A       -3.5510  -62.9630   46.0680 N.pl3 681  NXX681     -0.1439
     36  C8A       -3.0060  -62.5280   44.9210 C.3   681  NXX681      0.3377
     37  N7A       -3.2090  -61.2050   44.7950 N.2   681  NXX681     -0.2095
     38  C5A       -3.9020  -60.8180   45.8770 C.2   681  NXX681      0.2526
     39  C4A       -4.1350  -61.9090   46.6870 C.2   681  NXX681      0.3518
     40  C6A       -4.4400  -59.5150   46.2920 C.2   681  NXX681      0.4393
     41  N6A       -4.2000  -58.4700   45.4690 N.pl3 681  NXX681      0.2180
     42  N1A       -5.1520  -59.4370   47.4500 N.2   681  NXX681      0.0021
     43  C2A       -5.3450  -60.5340   48.2040 C.3   681  NXX681      0.5254
     44  N3A       -4.8460  -61.7310   47.8300 N.2   681  NXX681     -0.0055
@<TRIPOS>BOND
     1    14    13    1
     2    12    11    1
     3    21    19    2
     4    13    16    1
     5    13    11    1
     6    16    15    1
     7    16    17    1
     8    18    19    1
     9    18    17    1
    10    11    10    1
    11    19    20    1
    12    19    22    1
    13    37    36    1
    14    37    38    2
    15    36    35    1
    16    32    31    1
    17    10    15    1
    18    10     9    1
    19    31    29    1
    20    31    33    1
    21    41    40    1
    22    27    28    1
    23    27    26    1
    24    29    28    1
    25    29    30    1
    26    38    40    1
    27    38    39    1
    28    35    33    1
    29    35    39    1
    30    22    23    1
    31    40    42    2
    32     9     8    1
    33     9     7    1
    34    33    34    1
    35     8     4    2
    36    28    34    1
    37    26    23    1
    38    39    44    2
    39     7     6    1
    40    23    24    2
    41    23    25    1
    42    42    43    1
    43     3     2   ar
    44    44    43    1
    45     4     2    1
    46     4     5    1
    47     2     1   ar
    48     6     5    2
