@<TRIPOS>MOLECULE
3sf0_AMP_A_1.pdb
 23 25 0 0 0
SMALL
GASTEIGER

@<TRIPOS>ATOM
      1  P         41.5470  -13.2300   -9.5620 P.3   264  AMP264      0.5327
      2  O1P       40.6780  -14.4600   -9.7310 O.3   264  AMP264     -0.1145
      3  O2P       41.2960  -12.1060  -10.5140 O.2   264  AMP264     -0.2224
      4  O3P       41.4250  -12.7960   -8.1200 O.3   264  AMP264     -0.1145
      5  O5'       43.0690  -13.6370   -9.7560 O.3   264  AMP264     -0.2675
      6  C5'       43.8210  -14.1760   -8.7120 C.3   264  AMP264      0.1860
      7  C4'       45.0180  -14.8850   -9.2530 C.3   264  AMP264      0.1823
      8  O4'       46.0610  -13.9240   -9.5490 O.3   264  AMP264     -0.3135
      9  C3'       45.6630  -15.8530   -8.3000 C.3   264  AMP264      0.2184
     10  O3'       44.9930  -17.0960   -8.2670 O.3   264  AMP264     -0.2174
     11  C2'       47.0920  -15.9290   -8.8200 C.3   264  AMP264      0.2570
     12  O2'       47.1650  -16.7710   -9.9570 O.3   264  AMP264     -0.2130
     13  C1'       47.3150  -14.4920   -9.2900 C.3   264  AMP264      0.3186
     14  N9        48.0060  -13.6790   -8.2790 N.pl3 264  AMP264     -0.1439
     15  C8        47.9880  -13.8130   -6.9350 C.3   264  AMP264      0.3377
     16  N7        48.7780  -12.8720   -6.3520 N.2   264  AMP264     -0.2095
     17  C5        49.3140  -12.1430   -7.3520 C.2   264  AMP264      0.2526
     18  C6        50.2600  -11.0250   -7.4710 C.2   264  AMP264      0.4393
     19  N6        50.8000  -10.4770   -6.3630 N.pl3 264  AMP264      0.2180
     20  N1        50.5380  -10.5740   -8.7120 N.2   264  AMP264      0.0021
     21  C2        50.0110  -11.1130   -9.8240 C.3   264  AMP264      0.5254
     22  N3        49.1690  -12.1540   -9.7950 N.2   264  AMP264     -0.0055
     23  C4        48.8010  -12.6820   -8.6100 C.2   264  AMP264      0.3518
@<TRIPOS>BOND
     1     3     1    2
     2    12    11    1
     3    21    22    1
     4    21    20    1
     5    22    23    2
     6     5     1    1
     7     5     6    1
     8     2     1    1
     9     1     4    1
    10     8    13    1
    11     8     7    1
    12    13    11    1
    13    13    14    1
    14     7     6    1
    15     7     9    1
    16    11     9    1
    17    20    18    2
    18    23    14    1
    19    23    17    1
    20     9    10    1
    21    14    15    1
    22    18    17    1
    23    18    19    1
    24    17    16    2
    25    15    16    1
