@<TRIPOS>MOLECULE
3sfc_S53_A_1.pdb
 39 44 0 0 0
SMALL
GASTEIGER

@<TRIPOS>ATOM
      1  N1        -8.2010  -25.4440   -4.6860 N.ar  330  S53330     -0.2464
      2  C2        -9.0140  -24.4920   -4.1550 C.ar  330  S53330      0.0795
      3  C3        -8.6120  -23.8740   -2.9430 C.ar  330  S53330      0.0808
      4  C4        -7.4050  -24.2630   -2.3440 C.ar  330  S53330      0.0278
      5  C5        -6.6020  -25.2550   -2.9200 C.ar  330  S53330      0.0224
      6  C6        -7.0360  -25.8340   -4.1200 C.ar  330  S53330      0.0986
      7  N9        -9.1480  -22.9110   -2.1400 N.ar  330  S53330     -0.2766
      8  C10       -8.3500  -22.6660   -1.1110 C.ar  330  S53330      0.2194
      9  C11       -7.2740  -23.5190   -1.1680 C.ar  330  S53330      0.1071
     10  C12      -10.3080  -22.2320   -2.2960 C.ar  330  S53330      0.0667
     11  C13      -10.3720  -20.8430   -2.5530 C.ar  330  S53330      0.0176
     12  C14      -11.5780  -20.1550   -2.7080 C.ar  330  S53330      0.0015
     13  C15      -12.7820  -20.8470   -2.6150 C.ar  330  S53330      0.0001
     14  C16      -12.7650  -22.2190   -2.3580 C.ar  330  S53330      0.0015
     15  C17      -11.5500  -22.8900   -2.1960 C.ar  330  S53330      0.0176
     16  C23      -10.2580  -24.1710   -4.9650 C.3   330  S53330      0.0735
     17  C24      -10.1650  -22.7490   -5.5300 C.ar  330  S53330     -0.0162
     18  C27      -11.3380  -22.0070   -5.7340 C.ar  330  S53330     -0.0039
     19  C28      -11.2690  -20.6960   -6.2410 C.ar  330  S53330     -0.0003
     20  C29      -10.0230  -20.1060   -6.5540 C.ar  330  S53330     -0.0000
     21  C30       -8.8530  -20.8460   -6.3540 C.ar  330  S53330     -0.0003
     22  C31       -8.9300  -22.1510   -5.8500 C.ar  330  S53330     -0.0039
     23  O37       -8.6470  -21.7510   -0.1340 O.3   330  S53330     -0.4375
     24  C38       -8.3410  -21.9200    1.1770 C.ar  330  S53330      0.1453
     25  C39       -8.8610  -23.0160    1.8550 C.ar  330  S53330      0.0668
     26  C40       -8.5390  -23.2050    3.1920 C.ar  330  S53330      0.1432
     27  C41       -7.7000  -22.3050    3.8450 C.ar  330  S53330      0.0295
     28  C42       -7.1830  -21.2030    3.1590 C.ar  330  S53330      0.0011
     29  C43       -7.5050  -21.0120    1.8140 C.ar  330  S53330      0.0129
     30  C47       -6.9490  -19.8250    1.0610 C.3   330  S53330      0.0342
     31  F51       -9.0430  -24.2690    3.8290 F     330  S53330     -0.2041
     32  C52       -6.0580  -23.5950   -0.3070 C.2   330  S53330      0.2537
     33  N53       -5.6620  -24.6380    0.4180 N.am  330  S53330     -0.2730
     34  O54       -5.3880  -22.5700   -0.3210 O.2   330  S53330     -0.2697
     35  C55       -6.4070  -25.8980    0.4710 C.3   330  S53330      0.1125
     36  C56       -6.6750  -26.1630    1.9420 C.3   330  S53330      0.1102
     37  N57       -5.4490  -26.1350    2.7110 N.3   330  S53330     -0.2144
     38  C58       -4.6400  -24.9410    2.6530 C.3   330  S53330      0.1102
     39  C59       -4.4090  -24.5430    1.2000 C.3   330  S53330      0.1125
@<TRIPOS>BOND
     1    20    21   ar
     2    20    19   ar
     3    21    22   ar
     4    19    18   ar
     5    22    17   ar
     6    18    17   ar
     7    17    16    1
     8    16     2    1
     9     1     2   ar
    10     1     6   ar
    11     2     3   ar
    12     6     5   ar
    13     3     4   ar
    14     3     7   ar
    15     5     4   ar
    16    12    13   ar
    17    12    11   ar
    18    13    14   ar
    19    11    10   ar
    20    14    15   ar
    21     4     9   ar
    22    10    15   ar
    23    10     7    1
    24     7     8   ar
    25     9     8   ar
    26     9    32    1
    27     8    23    1
    28    34    32    2
    29    32    33   am
    30    23    24    1
    31    33    35    1
    32    33    39    1
    33    35    36    1
    34    30    29    1
    35    24    29   ar
    36    24    25   ar
    37    39    38    1
    38    29    28   ar
    39    25    26   ar
    40    36    37    1
    41    38    37    1
    42    28    27   ar
    43    26    31    1
    44    26    27   ar
