@<TRIPOS>MOLECULE
3sfd_HEM_C_1.pdb
 43 50 0 0 0
SMALL
GASTEIGER

@<TRIPOS>ATOM
      1  CHA       72.7790   68.3010   81.8580 C.2   1305  HEM1305     0.0000
      2  CHB       68.5660   65.8700   81.3500 C.2   1305  HEM1305     0.0000
      3  CHC       68.7800   66.7680   76.5220 C.2   1305  HEM1305     0.0000
      4  CHD       72.0320   70.3350   77.5030 C.2   1305  HEM1305     0.0000
      5  C1A       71.5790   67.5170   82.2070 C.2   1305  HEM1305     0.0000
      6  C2A       71.2950   66.9810   83.5630 C.2   1305  HEM1305     0.0000
      7  C3A       70.0210   66.2620   83.3470 C.2   1305  HEM1305     0.0000
      8  C4A       69.7610   66.4440   81.9910 C.2   1305  HEM1305     0.0000
      9  CMA       69.1970   65.5000   84.3560 C.3   1305  HEM1305     0.0000
     10  CAA       72.0860   67.1640   84.8390 C.3   1305  HEM1305     0.0000
     11  CBA       72.9790   65.9790   85.1670 C.3   1305  HEM1305     0.0000
     12  CGA       73.8300   66.3410   86.3590 C.2   1305  HEM1305     0.0000
     13  O1A       75.0590   66.5030   86.1890 O.co2 1305  HEM1305     0.0000
     14  O2A       73.2680   66.4630   87.4680 O.co2 1305  HEM1305     0.0000
     15  C1B       68.2330   65.8210   79.9110 C.ar  1305  HEM1305     0.0000
     16  C2B       67.1500   65.0920   79.4290 C.ar  1305  HEM1305     0.0000
     17  C3B       67.2310   65.3760   77.9910 C.ar  1305  HEM1305     0.0000
     18  C4B       68.3140   66.2220   77.8150 C.ar  1305  HEM1305     0.0000
     19  CMB       66.1520   64.2350   80.1760 C.3   1305  HEM1305     0.0000
     20  CAB       66.2990   64.8530   76.9660 C.2   1305  HEM1305     0.0000
     21  CBB       66.7600   64.2340   75.9010 C.2   1305  HEM1305     0.0000
     22  C1C       69.6240   67.9680   76.3130 C.2   1305  HEM1305     0.0000
     23  C2C       69.6970   68.7180   75.0220 C.2   1305  HEM1305     0.0000
     24  C3C       70.6740   69.7680   75.3550 C.2   1305  HEM1305     0.0000
     25  C4C       71.0570   69.5120   76.7610 C.2   1305  HEM1305     0.0000
     26  CMC       68.9710   68.4810   73.7230 C.3   1305  HEM1305     0.0000
     27  CAC       71.1710   70.8580   74.4730 C.2   1305  HEM1305     0.0000
     28  CBC       70.5430   72.0230   74.4590 C.2   1305  HEM1305     0.0000
     29  C1D       72.6190   70.0600   78.8290 C.ar  1305  HEM1305     0.0000
     30  C2D       73.6640   70.7880   79.3900 C.ar  1305  HEM1305     0.0000
     31  C3D       73.8800   70.2090   80.6350 C.ar  1305  HEM1305     0.0000
     32  C4D       72.9330   69.1970   80.7030 C.ar  1305  HEM1305     0.0000
     33  CMD       74.3970   71.9490   78.7700 C.3   1305  HEM1305     0.0000
     34  CAD       74.8950   70.5850   81.6960 C.3   1305  HEM1305     0.0000
     35  CBD       76.0290   69.5690   81.7820 C.3   1305  HEM1305     0.0000
     36  CGD       76.4430   69.3210   83.2200 C.2   1305  HEM1305     0.0000
     37  O1D       76.4260   70.2690   84.0400 O.co2 1305  HEM1305     0.0000
     38  O2D       76.8060   68.1660   83.5380 O.co2 1305  HEM1305     0.0000
     39  NA        70.6630   67.1690   81.2870 N.2   1305  HEM1305     0.0000
     40  NB        68.9410   66.4930   78.9720 N.ar  1305  HEM1305     0.0000
     41  NC        70.4310   68.4410   77.2950 N.2   1305  HEM1305     0.0000
     42  ND        72.1620   69.0800   79.6140 N.ar  1305  HEM1305     0.0000
     43 FE         70.6210   67.7080   79.2510 Fe    1305  HEM1305     0.0000
@<TRIPOS>BOND
     1    26    23    1
     2    28    27    2
     3    27    24    1
     4    23    24    2
     5    23    22    1
     6    24    25    1
     7    21    20    2
     8    22     3    2
     9    22    41    1
    10     3    18    1
    11    25    41    2
    12    25     4    1
    13    20    17    1
    14    41    43    1
    15     4    29    2
    16    18    17   ar
    17    18    40   ar
    18    17    16   ar
    19    33    30    1
    20    29    30   ar
    21    29    42   ar
    22    40    43    1
    23    40    15   ar
    24    43    42    1
    25    43    39    1
    26    30    31   ar
    27    16    15   ar
    28    16    19    1
    29    42    32   ar
    30    15     2    1
    31    31    32   ar
    32    31    34    1
    33    32     1    2
    34    39     8    1
    35    39     5    2
    36     2     8    2
    37    34    35    1
    38    35    36    1
    39     1     5    1
    40     8     7    1
    41     5     6    1
    42    36    38   ar
    43    36    37   ar
    44     7     6    2
    45     7     9    1
    46     6    10    1
    47    10    11    1
    48    11    12    1
    49    13    12   ar
    50    12    14   ar
