@<TRIPOS>MOLECULE
3sfd_PCI_D_1.pdb
 12 12 0 0 0
SMALL
GASTEIGER

@<TRIPOS>ATOM
      1  O1        84.7180   68.3010   86.0400 O.3     1  PCI1       -0.2847
      2  C1        84.5140   66.9580   85.9510 C.ar    1  PCI1        0.2182
      3  C2        85.5740   66.0730   85.9120 C.ar    1  PCI1        0.1087
      4 CL1        87.2470   66.6820   85.9760 Cl      1  PCI1       -0.0780
      5  C3        85.3570   64.7130   85.8290 C.ar    1  PCI1        0.0827
      6 CL2        86.7130   63.5530   85.7810 Cl      1  PCI1       -0.0803
      7  C4        84.0830   64.2140   85.7780 C.ar    1  PCI1        0.0806
      8 CL3        83.8380   62.4330   85.6740 Cl      1  PCI1       -0.0804
      9  C5        83.0210   65.0950   85.8140 C.ar    1  PCI1        0.0827
     10 CL4        81.3570   64.4530   85.7470 Cl      1  PCI1       -0.0803
     11  C6        83.2310   66.4620   85.9010 C.ar    1  PCI1        0.1087
     12 CL5        81.8390   67.5910   85.9510 Cl      1  PCI1       -0.0780
@<TRIPOS>BOND
     1     8     7    1
     2    10     9    1
     3     7     9   ar
     4     7     5   ar
     5     6     5    1
     6     9    11   ar
     7     5     3   ar
     8    11     2   ar
     9    11    12    1
    10     3     2   ar
    11     3     4    1
    12     2     1    1
