@<TRIPOS>MOLECULE
3sfe_TMG_C_1.pdb
 14 16 0 0 0
SMALL
GASTEIGER

@<TRIPOS>ATOM
      1  C2        85.2100   65.0860   86.1900 C.ar    1  TMG1        0.1741
      2  N7        84.1680   65.9500   86.1360 N.2     1  TMG1       -0.3363
      3  C9        83.0910   65.1490   86.1240 C.1     1  TMG1        0.1527
      4  C10       81.6970   65.6790   86.0650 C.2     1  TMG1        0.1504
      5  C14       81.5020   67.0530   86.0270 C.3     1  TMG1        0.1171
      6  S13       79.7750   67.1510   85.9730 S.3     1  TMG1       -0.1069
      7  C12       79.4330   65.4450   86.0040 C.3     1  TMG1        0.1839
      8  N11       80.6390   64.8130   86.0540 N.2     1  TMG1       -0.2499
      9  N8        83.3560   63.8330   86.1670 N.2     1  TMG1       -0.3363
     10  C6        84.7040   63.7710   86.2100 C.ar    1  TMG1        0.1741
     11  C5        85.5730   62.6810   86.2660 C.ar    1  TMG1        0.0357
     12  C4        86.9490   62.9040   86.3010 C.ar    1  TMG1        0.0028
     13  C3        87.4540   64.2080   86.2780 C.ar    1  TMG1        0.0028
     14  C1        86.5890   65.3020   86.2230 C.ar    1  TMG1        0.0357
@<TRIPOS>BOND
     1     6     7    1
     2     6     5    1
     3     7     8    1
     4     5     4    1
     5     8     4    2
     6     4     3    1
     7     3     2    2
     8     3     9    2
     9     2     1    2
    10     9    10    2
    11     1    10   ar
    12     1    14   ar
    13    10    11   ar
    14    14    13   ar
    15    11    12   ar
    16    13    12   ar
