@<TRIPOS>MOLECULE
3sfe_HEM_C_1.pdb
 43 50 0 0 0
SMALL
GASTEIGER

@<TRIPOS>ATOM
      1  CHA       73.2760   68.1550   81.9010 C.2   1305  HEM1305     0.0000
      2  CHB       68.9410   65.9370   81.5270 C.2   1305  HEM1305     0.0000
      3  CHC       69.1640   66.8820   76.7060 C.2   1305  HEM1305     0.0000
      4  CHD       72.1460   70.6300   77.8680 C.2   1305  HEM1305     0.0000
      5  C1A       72.0880   67.3700   82.2810 C.2   1305  HEM1305     0.0000
      6  C2A       71.9010   66.7430   83.6060 C.2   1305  HEM1305     0.0000
      7  C3A       70.5880   66.0760   83.4390 C.2   1305  HEM1305     0.0000
      8  C4A       70.2140   66.3850   82.1330 C.2   1305  HEM1305     0.0000
      9  CMA       69.8160   65.2550   84.4360 C.3   1305  HEM1305     0.0000
     10  CAA       72.8800   66.7810   84.7620 C.3   1305  HEM1305     0.0000
     11  CBA       72.3720   67.4430   86.0320 C.3   1305  HEM1305     0.0000
     12  CGA       73.0490   66.7110   87.1690 C.2   1305  HEM1305     0.0000
     13  O1A       74.2980   66.7630   87.2610 O.co2 1305  HEM1305     0.0000
     14  O2A       72.3280   66.0670   87.9620 O.co2 1305  HEM1305     0.0000
     15  C1B       68.6030   65.8700   80.0840 C.ar  1305  HEM1305     0.0000
     16  C2B       67.5560   65.1100   79.5710 C.ar  1305  HEM1305     0.0000
     17  C3B       67.6490   65.4140   78.1320 C.ar  1305  HEM1305     0.0000
     18  C4B       68.6950   66.3020   77.9860 C.ar  1305  HEM1305     0.0000
     19  CMB       66.5840   64.2050   80.2890 C.3   1305  HEM1305     0.0000
     20  CAB       66.7760   64.8850   77.0600 C.2   1305  HEM1305     0.0000
     21  CBB       65.5480   65.3580   76.9440 C.2   1305  HEM1305     0.0000
     22  C1C       69.9260   68.1440   76.5370 C.2   1305  HEM1305     0.0000
     23  C2C       69.9600   68.9420   75.2730 C.2   1305  HEM1305     0.0000
     24  C3C       70.8580   70.0490   75.6510 C.2   1305  HEM1305     0.0000
     25  C4C       71.2520   69.7680   77.0560 C.2   1305  HEM1305     0.0000
     26  CMC       69.2660   68.7000   73.9570 C.3   1305  HEM1305     0.0000
     27  CAC       71.2870   71.1920   74.7960 C.2   1305  HEM1305     0.0000
     28  CBC       70.8640   72.4230   75.0370 C.2   1305  HEM1305     0.0000
     29  C1D       72.8550   70.2460   79.1090 C.ar  1305  HEM1305     0.0000
     30  C2D       73.9400   70.9240   79.6550 C.ar  1305  HEM1305     0.0000
     31  C3D       74.2640   70.2170   80.8090 C.ar  1305  HEM1305     0.0000
     32  C4D       73.3320   69.1920   80.8540 C.ar  1305  HEM1305     0.0000
     33  CMD       74.6230   72.1540   79.1090 C.3   1305  HEM1305     0.0000
     34  CAD       75.3680   70.5100   81.8040 C.3   1305  HEM1305     0.0000
     35  CBD       76.3710   69.3690   81.9190 C.3   1305  HEM1305     0.0000
     36  CGD       76.7970   69.2350   83.3600 C.2   1305  HEM1305     0.0000
     37  O1D       76.9330   70.2650   84.0540 O.co2 1305  HEM1305     0.0000
     38  O2D       77.0060   68.0900   83.8080 O.co2 1305  HEM1305     0.0000
     39  NA        71.0790   67.1460   81.4320 N.2   1305  HEM1305     0.0000
     40  NB        69.2860   66.5830   79.1600 N.ar  1305  HEM1305     0.0000
     41  NC        70.6840   68.6420   77.5450 N.2   1305  HEM1305     0.0000
     42  ND        72.4740   69.1890   79.8280 N.ar  1305  HEM1305     0.0000
     43 FE         70.9140   67.8530   79.4680 Fe    1305  HEM1305     0.0000
@<TRIPOS>BOND
     1    26    23    1
     2    27    28    2
     3    27    24    1
     4    23    24    2
     5    23    22    1
     6    24    25    1
     7    22     3    2
     8    22    41    1
     9     3    18    1
    10    21    20    2
    11    25    41    2
    12    25     4    1
    13    20    17    1
    14    41    43    1
    15     4    29    2
    16    18    17   ar
    17    18    40   ar
    18    17    16   ar
    19    29    30   ar
    20    29    42   ar
    21    33    30    1
    22    40    43    1
    23    40    15   ar
    24    43    42    1
    25    43    39    1
    26    16    15   ar
    27    16    19    1
    28    30    31   ar
    29    42    32   ar
    30    15     2    1
    31    31    32   ar
    32    31    34    1
    33    32     1    2
    34    39     8    1
    35    39     5    2
    36     2     8    2
    37    34    35    1
    38     1     5    1
    39    35    36    1
    40     8     7    1
    41     5     6    1
    42    36    38   ar
    43    36    37   ar
    44     7     6    2
    45     7     9    1
    46     6    10    1
    47    10    11    1
    48    11    12    1
    49    12    13   ar
    50    12    14   ar
