@<TRIPOS>MOLECULE
3sff_0DI_A_1.pdb
 28 30 0 0 0
SMALL
GASTEIGER

@<TRIPOS>ATOM
      1  C1        10.0800   13.0350  -25.9630 C.3   378  0DI378      0.1152
      2  F1        14.3950   10.5630  -23.7870 F     378  0DI378     -0.2042
      3  N1        10.9380   14.2270  -26.2280 N.am  378  0DI378     -0.2725
      4  O1         6.7760   15.7730  -24.1880 O.2   378  0DI378     -0.2733
      5 CL1         7.2110   17.2190  -19.4190 Cl    378  0DI378     -0.0823
      6  C2         9.2970   13.1780  -24.6410 C.3   378  0DI378      0.1150
      7  F2        13.3450   12.9500  -28.6500 F     378  0DI378     -0.2040
      8  N2         8.6060   14.5030  -24.5790 N.am  378  0DI378     -0.2749
      9  O2        12.9590   15.2490  -26.5970 O.2   378  0DI378     -0.2698
     10  C3         9.4820   15.6600  -24.9240 C.3   378  0DI378      0.1150
     11  N3         4.9310   13.7720  -23.8810 N.3   378  0DI378     -0.1228
     12  C4        10.1730   15.4920  -26.2970 C.3   378  0DI378      0.1152
     13  C5         7.3000   14.6490  -24.2020 C.2   378  0DI378      0.2435
     14  C6         6.3740   13.4740  -23.7800 C.3   378  0DI378      0.1721
     15  C7         6.7920   12.9300  -22.3850 C.3   378  0DI378      0.0547
     16  C8         6.2650   13.7250  -21.2040 C.ar  378  0DI378     -0.0194
     17  C9         6.9330   14.9270  -20.8290 C.ar  378  0DI378      0.0072
     18  C10        6.4290   15.7180  -19.7710 C.ar  378  0DI378      0.0574
     19  C11        5.3370   15.2550  -19.0020 C.ar  378  0DI378      0.0114
     20  C12        4.7060   14.0400  -19.3400 C.ar  378  0DI378      0.0005
     21  C13        5.1450   13.2810  -20.4550 C.ar  378  0DI378     -0.0042
     22  C14       12.3020   14.2300  -26.3640 C.2   378  0DI378      0.2514
     23  C15       13.0870   12.9520  -26.2770 C.ar  378  0DI378      0.0832
     24  C16       13.5980   12.3670  -27.4580 C.ar  378  0DI378      0.1446
     25  C17       14.3640   11.1780  -27.4120 C.ar  378  0DI378      0.0321
     26  C18       14.5960   10.5650  -26.1670 C.ar  378  0DI378      0.0319
     27  C19       14.1160   11.1570  -24.9750 C.ar  378  0DI378      0.1404
     28  C20       13.3590   12.3550  -25.0150 C.ar  378  0DI378      0.0364
@<TRIPOS>BOND
     1     7    24    1
     2    24    25   ar
     3    24    23   ar
     4    25    26   ar
     5     9    22    2
     6    22    23    1
     7    22     3   am
     8    12     3    1
     9    12    10    1
    10    23    28   ar
    11     3     1    1
    12    26    27   ar
    13     1     6    1
    14    28    27   ar
    15    27     2    1
    16    10     8    1
    17     6     8    1
    18     8    13   am
    19    13     4    2
    20    13    14    1
    21    11    14    1
    22    14    15    1
    23    15    16    1
    24    16    17   ar
    25    16    21   ar
    26    17    18   ar
    27    21    20   ar
    28    18     5    1
    29    18    19   ar
    30    20    19   ar
