@<TRIPOS>MOLECULE
3sfg_2TU_A_1.pdb
 17 18 0 0 0
SMALL
GASTEIGER

@<TRIPOS>ATOM
      1  N1        45.6260    0.8660   25.8400 N.am  601  2TU601     -0.2026
      2  C2        45.3410    2.2300   25.9460 C.1   601  2TU601      0.1140
      3  S2        46.4400    3.3370   25.1870 S.2   601  2TU601      0.0411
      4  N3        44.2350    2.6250   26.6130 N.2   601  2TU601     -0.2744
      5  C4        43.4120    1.7070   27.1830 C.1   601  2TU601      0.2157
      6  O4        42.3900    2.0860   27.8100 O.2   601  2TU601     -0.2086
      7  C5        43.7000    0.3430   27.0750 C.2   601  2TU601      0.1240
      8  C6        44.8330   -0.0650   26.3820 C.2   601  2TU601      0.0906
      9  C1'       46.8290    0.5220   25.0860 C.3   601  2TU601      0.2382
     10  C2'       47.5130   -0.7510   25.5630 C.3   601  2TU601      0.2319
     11  O2'       48.3410   -0.5030   26.6820 O.3   601  2TU601     -0.2157
     12  C3'       48.2480   -1.1930   24.2900 C.3   601  2TU601      0.2159
     13  O3'       49.4750   -0.4760   24.1710 O.3   601  2TU601     -0.2175
     14  C4'       47.2960   -0.7540   23.1720 C.3   601  2TU601      0.1829
     15  O4'       46.4590    0.2890   23.7400 O.3   601  2TU601     -0.3319
     16  C5'       46.4120   -1.8440   22.6020 C.3   601  2TU601      0.2142
     17  O5'       45.4070   -1.3140   21.7380 O.3   601  2TU601     -0.2176
@<TRIPOS>BOND
     1    17    16    1
     2    16    14    1
     3    14    15    1
     4    14    12    1
     5    15     9    1
     6    13    12    1
     7    12    10    1
     8     9    10    1
     9     9     1    1
    10     3     2    2
    11    10    11    1
    12     1     2    1
    13     1     8    1
    14     2     4    2
    15     8     7    2
    16     4     5    2
    17     7     5    1
    18     5     6    2
