@<TRIPOS>MOLECULE
3sfh_1DI_A_1.pdb
 22 24 0 0 0
SMALL
GASTEIGER

@<TRIPOS>ATOM
      1  N1         5.5700   13.6050  -23.3180 N.3   501  1DI501     -0.1225
      2  C2         7.0170   13.2910  -23.3000 C.3   501  1DI501      0.1751
      3  C3         7.5530   13.0630  -21.8310 C.3   501  1DI501      0.0558
      4  C4         7.2840   14.2250  -20.8380 C.ar  501  1DI501     -0.0096
      5  C5         8.2980   15.2690  -20.6970 C.ar  501  1DI501     -0.0025
      6  C6         8.1010   16.3730  -19.7980 C.ar  501  1DI501      0.0111
      7  C7         6.8900   16.4540  -19.0240 C.ar  501  1DI501      0.0585
      8 CL8         6.6460   17.7860  -17.9390 Cl    501  1DI501     -0.0822
      9  C9         5.8760   15.4320  -19.1430 C.ar  501  1DI501      0.0225
     10  C10        6.0530   14.3170  -20.0380 C.ar  501  1DI501      0.0546
     11 CL11        4.7600   13.1270  -20.1140 Cl    501  1DI501     -0.0825
     12  C12        7.8940   14.3550  -24.0070 C.2   501  1DI501      0.2591
     13  O13        7.4220   15.4900  -23.9730 O.2   501  1DI501     -0.2700
     14  N14        9.1370   14.1280  -24.6390 N.ar  501  1DI501     -0.2740
     15  C15        9.7200   12.7590  -24.7040 C.ar  501  1DI501      0.0827
     16  C16       10.9330   13.0230  -25.5750 C.ar  501  1DI501      0.0191
     17  C17       11.8820   12.0660  -26.0890 C.ar  501  1DI501      0.0015
     18  C18       12.9790   12.5360  -26.9130 C.ar  501  1DI501      0.0000
     19  C19       13.1170   13.9480  -27.2150 C.ar  501  1DI501      0.0000
     20  C20       12.1560   14.9040  -26.6920 C.ar  501  1DI501      0.0015
     21  C21       11.0650   14.4180  -25.8690 C.ar  501  1DI501      0.0191
     22  C22        9.9540   15.2270  -25.2190 C.ar  501  1DI501      0.0827
@<TRIPOS>BOND
     1    19    18   ar
     2    19    20   ar
     3    18    17   ar
     4    20    21   ar
     5    17    16   ar
     6    21    16   ar
     7    21    22   ar
     8    16    15   ar
     9    22    14   ar
    10    15    14   ar
    11    14    12   am
    12    12    13    2
    13    12     2    1
    14     1     2    1
    15     2     3    1
    16     3     4    1
    17     4     5   ar
    18     4    10   ar
    19     5     6   ar
    20    11    10    1
    21    10     9   ar
    22     6     7   ar
    23     9     7   ar
    24     7     8    1
