@<TRIPOS>MOLECULE
3sfi_3SF_A_1.pdb
 25 27 0 0 0
SMALL
GASTEIGER

@<TRIPOS>ATOM
      1  C         30.3770  -16.7380   -7.5340 C.3   217  3SF217      0.3978
      2  F         30.9880  -16.1930   -8.5540 F     217  3SF217     -0.1700
      3  N         27.6800  -11.7420   -5.5940 N.am  217  3SF217     -0.2795
      4  O         27.8130  -12.8650   -7.4260 O.2   217  3SF217     -0.2749
      5  S         27.3750   -3.3250   -3.2040 S.2   217  3SF217     -0.0549
      6  C1        30.2630  -15.7730   -6.3940 C.3   217  3SF217      0.1038
      7  F1        31.0810  -17.7350   -7.0670 F     217  3SF217     -0.1700
      8  N1        26.9720   -6.3700   -2.6320 N.2   217  3SF217     -0.0052
      9  O1        26.7870   -7.7040   -2.7920 O.2   217  3SF217     -0.3155
     10  C2        29.1210  -14.8470   -6.7100 C.3   217  3SF217      0.0183
     11  F2        29.1990  -17.1750   -7.9360 F     217  3SF217     -0.1700
     12  N2        26.9490   -6.9290   -4.7970 N.2   217  3SF217     -0.3107
     13  C3        28.9790  -13.8040   -5.6260 C.3   217  3SF217      0.0856
     14  N3        27.3060   -4.1520   -5.5870 N.ar  217  3SF217     -0.2258
     15  C4        28.1340  -12.7520   -6.2760 C.2   217  3SF217      0.2256
     16  C5        28.1250  -11.5100   -4.1950 C.3   217  3SF217      0.0939
     17  C6        27.8190  -10.1100   -3.6630 C.3   217  3SF217      0.0320
     18  C7        26.6580   -9.4290   -4.3560 C.3   217  3SF217      0.0960
     19  C8        26.9090   -9.5000   -5.8530 C.3   217  3SF217      0.0320
     20  C9        26.6780  -10.9240   -6.2720 C.3   217  3SF217      0.0939
     21  C10       26.7850   -8.0180   -4.0090 C.2   217  3SF217      0.2934
     22  C11       27.0540   -5.9320   -3.9120 C.1   217  3SF217      0.1510
     23  C12       27.2310   -4.6070   -4.3150 C.ar  217  3SF217      0.1876
     24  C13       27.4850   -2.7770   -5.6310 C.ar  217  3SF217      0.1073
     25  C14       27.5520   -2.0900   -4.4220 C.ar  217  3SF217      0.0582
@<TRIPOS>BOND
     1     2     1    1
     2    11     1    1
     3     1     7    1
     4     1     6    1
     5     4    15    2
     6    10     6    1
     7    10    13    1
     8    15    13    1
     9    15     3   am
    10    20    19    1
    11    20     3    1
    12    19    18    1
    13    24    14   ar
    14    24    25   ar
    15     3    16    1
    16    14    23   ar
    17    12    21    2
    18    12    22    2
    19    25     5   ar
    20    18    21    1
    21    18    17    1
    22    23    22    1
    23    23     5   ar
    24    16    17    1
    25    21     9    1
    26    22     8    2
    27     9     8    1
