@<TRIPOS>MOLECULE
3sfk_D67_A_1.pdb
 25 27 0 0 0
SMALL
GASTEIGER

@<TRIPOS>ATOM
      1  C1        -5.0580  -30.3610  -14.4130 C.ar  1001  D671001     0.0443
      2  F1        -8.8230  -30.3040  -11.6160 F     1001  D671001    -0.1659
      3  N1        -4.2810  -28.2420  -15.2840 N.pl3 1001  D671001    -0.0079
      4  C2        -5.2020  -28.9870  -14.6290 C.ar  1001  D671001     0.1832
      5  F2        -7.7100  -32.1390  -11.8280 F     1001  D671001    -0.1659
      6  N2        -2.3190  -27.9840  -16.4880 N.pl3 1001  D671001     0.0358
      7  C3        -6.3190  -28.3160  -14.1350 C.ar  1001  D671001     0.0443
      8  F3        -9.1460  -31.5200  -13.3380 F     1001  D671001    -0.1659
      9  N3        -1.8020  -26.9930  -15.6540 N.2   1001  D671001    -0.0029
     10  C4        -7.3030  -29.0100  -13.4440 C.ar  1001  D671001     0.0075
     11  F4        -0.1140  -25.0500  -14.8450 F     1001  D671001    -0.1873
     12  N4        -0.4140  -27.5280  -17.4060 N.2   1001  D671001    -0.2486
     13  C5        -7.1650  -30.3790  -13.2330 C.ar  1001  D671001     0.0717
     14  F5         0.7000  -24.9680  -16.8180 F     1001  D671001    -0.1873
     15  N5        -1.8180  -29.2250  -18.4350 N.2   1001  D671001    -0.3114
     16  C6        -6.0440  -31.0580  -13.7200 C.ar  1001  D671001     0.0075
     17  C7        -3.4990  -28.6030  -16.3290 C.2   1001  D671001     0.3568
     18  C8        -3.8680  -29.5710  -17.2710 C.2   1001  D671001     0.1192
     19  C9        -2.9980  -29.8740  -18.3230 C.2   1001  D671001     0.1324
     20  C10       -3.3600  -30.9140  -19.3440 C.3   1001  D671001     0.0678
     21  C11       -1.5210  -28.2920  -17.5020 C.1   1001  D671001     0.3368
     22  C12       -0.6320  -26.7790  -16.2980 C.1   1001  D671001     0.1786
     23  C13        0.3790  -25.7730  -15.8260 C.3   1001  D671001     0.3486
     24  C14        1.6080  -26.5020  -15.3140 C.3   1001  D671001     0.0897
     25  C16       -8.2370  -31.1120  -12.4780 C.3   1001  D671001     0.4186
@<TRIPOS>BOND
     1    20    19    1
     2    15    19    2
     3    15    21    2
     4    19    18    1
     5    21    12    2
     6    21     6    1
     7    12    22    2
     8    18    17    2
     9    14    23    1
    10     6    17    1
    11     6     9    1
    12    17     3    1
    13    22    23    1
    14    22     9    2
    15    23    24    1
    16    23    11    1
    17     3     4    1
    18     4     1   ar
    19     4     7   ar
    20     1    16   ar
    21     7    10   ar
    22    16    13   ar
    23    10    13   ar
    24     8    25    1
    25    13    25    1
    26    25     5    1
    27    25     2    1
