@<TRIPOS>MOLECULE
3sfk_FMN_A_1.pdb
 31 33 0 0 0
SMALL
GASTEIGER

@<TRIPOS>ATOM
      1  N1         2.8670  -21.6420   -4.5640 N.2   1002  FMN1002    -0.2887
      2  C2         2.3750  -20.6250   -3.7780 C.1   1002  FMN1002     0.3669
      3  O2         2.6110  -20.6250   -2.5810 O.2   1002  FMN1002    -0.1744
      4  N3         1.6280  -19.6050   -4.3260 N.2   1002  FMN1002    -0.2300
      5  C4         1.3720  -19.5940   -5.6780 C.1   1002  FMN1002     0.2513
      6  O4         0.7010  -18.6770   -6.1560 O.2   1002  FMN1002    -0.2057
      7  C4A        1.8680  -20.6160   -6.4790 C.2   1002  FMN1002     0.2706
      8  N5         1.6200  -20.6240   -7.8360 N.2   1002  FMN1002    -0.3841
      9  C5A        2.1040  -21.6400   -8.6340 C.2   1002  FMN1002     0.1452
     10  C6         1.8350  -21.6340   -9.9980 C.2   1002  FMN1002     0.0252
     11  C7         2.3220  -22.6550  -10.8150 C.2   1002  FMN1002    -0.0375
     12  C7M        2.0230  -22.6130  -12.2870 C.3   1002  FMN1002     0.0268
     13  C8         3.0800  -23.6870  -10.2580 C.3   1002  FMN1002     0.0417
     14  C8M        3.6230  -24.8040  -11.0960 C.3   1002  FMN1002     0.0091
     15  C9         3.3440  -23.6890   -8.8920 C.2   1002  FMN1002    -0.0049
     16  C9A        2.8590  -22.6670   -8.0700 C.2   1002  FMN1002     0.0795
     17  N10        3.1110  -22.6590   -6.7010 N.pl3 1002  FMN1002    -0.2545
     18  C10        2.6180  -21.6370   -5.9160 C.2   1002  FMN1002     0.2449
     19  C1'        3.9260  -23.7430   -6.0540 C.3   1002  FMN1002     0.1336
     20  C2'        3.0190  -24.8870   -5.6290 C.3   1002  FMN1002     0.2048
     21  O2'        2.1230  -24.3970   -4.6580 O.3   1002  FMN1002    -0.2185
     22  C3'        3.8130  -26.0800   -5.0910 C.3   1002  FMN1002     0.2165
     23  O3'        4.2650  -25.8140   -3.7800 O.3   1002  FMN1002    -0.2175
     24  C4'        4.9860  -26.4410   -5.9990 C.3   1002  FMN1002     0.2147
     25  O4'        4.5050  -26.5880   -7.3110 O.3   1002  FMN1002    -0.2176
     26  C5'        5.6780  -27.7400   -5.6090 C.3   1002  FMN1002     0.1892
     27  O5'        4.7510  -28.7990   -5.6260 O.3   1002  FMN1002    -0.2674
     28  P          4.6280  -29.8380   -6.8490 P.3   1002  FMN1002     0.5327
     29  O1P        3.8090  -29.1690   -7.9240 O.2   1002  FMN1002    -0.2224
     30  O2P        3.9560  -31.1040   -6.3550 O.3   1002  FMN1002    -0.1145
     31  O3P        5.9890  -30.1840   -7.4010 O.3   1002  FMN1002    -0.1145
@<TRIPOS>BOND
     1    12    11    1
     2    14    13    1
     3    11    13    1
     4    11    10    2
     5    13    15    1
     6    10     9    1
     7    15    16    2
     8     9    16    1
     9     9     8    2
    10    16    17    1
    11    29    28    2
    12     8     7    2
    13    31    28    1
    14    25    24    1
    15    28    30    1
    16    28    27    1
    17    17    19    1
    18    17    18    1
    19     7    18    1
    20     7     5    1
    21     6     5    2
    22    19    20    1
    23    24    26    1
    24    24    22    1
    25    18     1    2
    26     5     4    2
    27    20    22    1
    28    20    21    1
    29    27    26    1
    30    22    23    1
    31     1     2    2
    32     4     2    2
    33     2     3    2
