@<TRIPOS>MOLECULE
3sfs_GNP_W_1.pdb
 32 34 0 0 0
SMALL
GASTEIGER

@<TRIPOS>ATOM
      1  PG      -186.6030   34.1020    3.4040 P.3   843  GNP843      0.4884
      2  O1G     -185.7190   32.8920    3.0790 O.3   843  GNP843     -0.1240
      3  O2G     -187.9110   34.1110    2.6350 O.2   843  GNP843     -0.2331
      4  O3G     -186.7080   34.1490    4.9280 O.3   843  GNP843     -0.1240
      5  N3B     -185.8020   35.4500    2.9940 N.3   843  GNP843     -0.0163
      6  PB      -186.1760   36.9280    3.4780 P.3   843  GNP843      0.4669
      7  O1B     -187.4820   37.4410    3.0310 O.2   843  GNP843     -0.2351
      8  O2B     -185.8720   37.0050    4.9550 O.3   843  GNP843     -0.1253
      9  O3A     -185.1120   37.8710    2.8470 O.3   843  GNP843     -0.2360
     10  PA      -183.8950   38.2120    3.7350 P.3   843  GNP843      0.2220
     11  O1A     -183.3790   36.8630    4.1790 O.2   843  GNP843     -0.5170
     12  O2A     -184.1790   39.2190    4.7380 O.3   843  GNP843     -0.4370
     13  O5'     -182.9560   38.8250    2.7050 O.3   843  GNP843     -0.3111
     14  C5'     -183.0150   38.2620    1.4140 C.3   843  GNP843      0.1813
     15  C4'     -182.1560   39.1840    0.6200 C.3   843  GNP843      0.1799
     16  O4'     -182.9870   40.3260    0.3490 O.3   843  GNP843     -0.3326
     17  C3'     -181.0820   39.7110    1.5630 C.3   843  GNP843      0.2158
     18  O3'     -179.8900   38.9330    1.4580 O.3   843  GNP843     -0.2175
     19  C2'     -180.9170   41.1650    1.1610 C.3   843  GNP843      0.2310
     20  O2'     -179.6680   41.3480    0.5000 O.3   843  GNP843     -0.2158
     21  C1'     -182.1110   41.4170    0.2360 C.3   843  GNP843      0.2293
     22  N9      -182.8450   42.6000    0.6170 N.pl3 843  GNP843     -0.2354
     23  C8      -183.7200   42.7270    1.6640 C.3   843  GNP843      0.2246
     24  N7      -184.2150   43.9430    1.7860 N.2   843  GNP843     -0.2322
     25  C5      -183.6030   44.6210    0.7330 C.2   843  GNP843      0.2182
     26  C6      -183.7420   45.9420    0.3480 C.1   843  GNP843      0.2372
     27  O6      -184.4660   46.7790    0.8890 O.2   843  GNP843     -0.2069
     28  N1      -182.9470   46.2430   -0.7490 N.2   843  GNP843     -0.2485
     29  C2      -182.1200   45.3550   -1.3940 C.1   843  GNP843      0.2531
     30  N2      -181.4200   45.8040   -2.4370 N.pl3 843  GNP843     -0.0226
     31  N3      -181.9790   44.0950   -1.0520 N.2   843  GNP843     -0.3074
     32  C4      -182.7550   43.8210    0.0150 C.2   843  GNP843      0.2300
@<TRIPOS>BOND
     1    30    29    1
     2    29    31    2
     3    29    28    2
     4    31    32    2
     5    28    26    2
     6    32    22    1
     7    32    25    1
     8    21    16    1
     9    21    22    1
    10    21    19    1
    11    26    25    1
    12    26    27    2
    13    16    15    1
    14    20    19    1
    15    22    23    1
    16    15    14    1
    17    15    17    1
    18    25    24    2
    19    19    17    1
    20    14    13    1
    21    18    17    1
    22    23    24    1
    23     3     1    2
    24    13    10    1
    25     9     6    1
    26     9    10    1
    27     5     1    1
    28     5     6    1
    29     7     6    2
    30     2     1    1
    31     1     4    1
    32     6     8    1
    33    10    11    2
    34    10    12    1
