@<TRIPOS>MOLECULE
3sfu_RBV_A_1.pdb
 17 18 0 0 0
SMALL
GASTEIGER

@<TRIPOS>ATOM
      1  N1       -45.6960    0.3030  -26.9010 N.pl3 601  RBV601     -0.1720
      2  N2       -44.8930    1.3930  -27.0120 N.2   601  RBV601     -0.1198
      3  C3       -43.6580    0.9540  -27.3270 C.1   601  RBV601      0.1072
      4  N3       -42.1480    2.9280  -26.7050 N.am  601  RBV601     -0.0743
      5  O3       -41.7200    1.6410  -28.5880 O.2   601  RBV601     -0.2552
      6  N4       -43.7090   -0.4110  -27.3970 N.2   601  RBV601     -0.1909
      7  C5       -44.9940   -0.7950  -27.1310 C.3   601  RBV601      0.2500
      8  C6       -42.4290    1.8260  -27.5760 C.2   601  RBV601      0.3485
      9  C1'      -47.1070    0.3500  -26.6070 C.3   601  RBV601      0.2437
     10  C2'      -47.8300   -0.8930  -27.0890 C.3   601  RBV601      0.2323
     11  O2'      -49.1600   -0.5330  -27.3950 O.3   601  RBV601     -0.2157
     12  C3'      -47.7900   -1.7610  -25.8500 C.3   601  RBV601      0.2160
     13  O3'      -48.7740   -2.7840  -25.8450 O.3   601  RBV601     -0.2175
     14  C4'      -47.9720   -0.7490  -24.7300 C.3   601  RBV601      0.1829
     15  O4'      -47.2740    0.4250  -25.2100 O.3   601  RBV601     -0.3316
     16  C5'      -47.4180   -1.1410  -23.3890 C.3   601  RBV601      0.2142
     17  O5'      -46.0550   -0.7550  -23.2580 O.3   601  RBV601     -0.2176
@<TRIPOS>BOND
     1     5     8    2
     2     8     3    1
     3     8     4   am
     4     6     3    2
     5     6     7    1
     6    11    10    1
     7     3     2    2
     8     7     1    1
     9    10     9    1
    10    10    12    1
    11     2     1    1
    12     1     9    1
    13     9    15    1
    14    12    13    1
    15    12    14    1
    16    15    14    1
    17    14    16    1
    18    16    17    1
