@<TRIPOS>MOLECULE
3sfv_GDP_A_1.pdb
 28 30 0 0 0
SMALL
GASTEIGER

@<TRIPOS>ATOM
      1  PB       124.9570   44.6870   12.4980 P.3   200  GDP200      0.5373
      2  O1B      124.9650   43.9560   13.8310 O.3   200  GDP200     -0.1143
      3  O2B      126.1880   45.5710   12.4050 O.3   200  GDP200     -0.1143
      4  O3B      124.9260   43.6990   11.3630 O.2   200  GDP200     -0.2221
      5  O3A      123.5960   45.5430   12.4710 O.3   200  GDP200     -0.2261
      6  PA       123.4780   47.1110   12.1270 P.3   200  GDP200      0.2231
      7  O1A      124.2320   48.0000   13.0700 O.3   200  GDP200     -0.4370
      8  O2A      123.8010   47.4140   10.6870 O.2   200  GDP200     -0.5169
      9  O5'      121.9010   47.2940   12.4230 O.3   200  GDP200     -0.3111
     10  C5'      120.9240   46.5490   11.6850 C.3   200  GDP200      0.1813
     11  C4'      119.6910   47.4220   11.5000 C.3   200  GDP200      0.1799
     12  O4'      118.9540   47.5450   12.7180 O.3   200  GDP200     -0.3326
     13  C3'      120.1750   48.8120   11.1270 C.3   200  GDP200      0.2158
     14  O3'      119.7840   49.1390    9.7980 O.3   200  GDP200     -0.2175
     15  C2'      119.5360   49.7670   12.1040 C.3   200  GDP200      0.2310
     16  O2'      118.8230   50.7970   11.4120 O.3   200  GDP200     -0.2158
     17  C1'      118.6520   48.9200   12.9990 C.3   200  GDP200      0.2293
     18  N9       119.0150   49.2080   14.4080 N.pl3 200  GDP200     -0.2354
     19  C8       120.2480   49.0720   14.9590 C.3   200  GDP200      0.2246
     20  N7       120.2290   49.4140   16.2750 N.2   200  GDP200     -0.2322
     21  C5       118.9490   49.7570   16.5820 C.2   200  GDP200      0.2182
     22  C6       118.2120   50.2320   17.7780 C.1   200  GDP200      0.2372
     23  O6       118.7870   50.3730   18.8850 O.2   200  GDP200     -0.2069
     24  N1       116.8890   50.4720   17.6560 N.2   200  GDP200     -0.2485
     25  C2       116.2250   50.3380   16.4880 C.1   200  GDP200      0.2531
     26  N2       114.8900   50.6180   16.4260 N.pl3 200  GDP200     -0.0226
     27  N3       116.8330   49.9170   15.3580 N.2   200  GDP200     -0.3074
     28  C4       118.1690   49.6220   15.3480 C.2   200  GDP200      0.2300
@<TRIPOS>BOND
     1    14    13    1
     2     8     6    2
     3    13    11    1
     4    13    15    1
     5     4     1    2
     6    16    15    1
     7    11    10    1
     8    11    12    1
     9    10     9    1
    10    15    17    1
    11     6     9    1
    12     6     5    1
    13     6     7    1
    14     3     1    1
    15     5     1    1
    16     1     2    1
    17    12    17    1
    18    17    18    1
    19    18    19    1
    20    18    28    1
    21    19    20    1
    22    28    27    2
    23    28    21    1
    24    27    25    2
    25    20    21    2
    26    26    25    1
    27    25    24    2
    28    21    22    1
    29    24    22    2
    30    22    23    2
