@<TRIPOS>MOLECULE
3sfx_JAN_B_1.pdb
 34 38 0 0 0
SMALL
GASTEIGER

@<TRIPOS>ATOM
      1  C1        36.2940  -32.0930   -2.6350 C.3   526  JAN526      0.1318
      2  N1        36.7180  -32.3180   -4.0630 N.ar  526  JAN526     -0.3087
      3  C2        36.7850  -31.3620   -4.9870 C.ar  526  JAN526      0.1784
      4  N2        37.2010  -31.9210   -6.1200 N.ar  526  JAN526     -0.2226
      5  C3        37.3660  -33.2130   -5.9010 C.ar  526  JAN526      0.1154
      6  C4        37.0710  -33.4640   -4.6250 C.ar  526  JAN526      0.0813
      7  C5        37.1460  -34.8630   -3.9540 C.3   526  JAN526      0.1489
      8  C6        35.7190  -35.3930   -3.5930 C.ar  526  JAN526      0.0025
      9  C7        34.6050  -35.0690   -4.3810 C.ar  526  JAN526     -0.0014
     10  C8        33.3240  -35.5770   -4.1000 C.ar  526  JAN526      0.0111
     11  C9        33.1390  -36.4450   -3.0150 C.ar  526  JAN526      0.0577
     12 CL1        31.5590  -37.0920   -2.6410 Cl    526  JAN526     -0.0822
     13  C10       34.2440  -36.7980   -2.2260 C.ar  526  JAN526      0.0111
     14  C11       35.5200  -36.2860   -2.5220 C.ar  526  JAN526     -0.0014
     15  N3        38.1310  -34.7190   -2.8470 N.3   526  JAN526     -0.1193
     16  C12       37.6970  -35.8030   -5.0660 C.ar  526  JAN526      0.0026
     17  C13       36.9380  -36.8630   -5.5750 C.ar  526  JAN526     -0.0008
     18  C14       37.4280  -37.6780   -6.6090 C.ar  526  JAN526      0.0158
     19  C15       38.9720  -35.5520   -5.6130 C.ar  526  JAN526     -0.0008
     20  C16       39.4750  -36.3440   -6.6440 C.ar  526  JAN526      0.0170
     21  C17       38.7110  -37.4050   -7.1420 C.ar  526  JAN526      0.0625
     22  N4        39.2460  -38.2030   -8.1860 N.ar  526  JAN526     -0.2935
     23  C18       40.6030  -37.9340   -8.7560 C.3   526  JAN526      0.1335
     24  C19       38.5020  -39.2570   -8.6960 C.ar  526  JAN526      0.2610
     25  O1        38.9660  -39.9490   -9.6040 O.2   526  JAN526     -0.2670
     26  C20       37.2440  -39.5210   -8.1700 C.ar  526  JAN526      0.0608
     27  C21       36.6770  -38.7600   -7.1330 C.ar  526  JAN526      0.0061
     28  C22       35.3880  -39.1660   -6.6980 C.ar  526  JAN526      0.0010
     29  C23       34.2820  -38.3270   -6.7120 C.ar  526  JAN526      0.0114
     30  C24       33.0450  -38.8090   -6.2900 C.ar  526  JAN526      0.0577
     31 CL2        31.7010  -37.7470   -6.3540 Cl    526  JAN526     -0.0822
     32  C25       32.8620  -40.1250   -5.8350 C.ar  526  JAN526      0.0114
     33  C26       33.9620  -40.9850   -5.8050 C.ar  526  JAN526      0.0009
     34  C27       35.2050  -40.4840   -6.2330 C.ar  526  JAN526      0.0001
@<TRIPOS>BOND
     1    25    24    2
     2    23    22    1
     3    24    22   ar
     4    24    26   ar
     5    22    21   ar
     6    26    27   ar
     7    21    20   ar
     8    21    18   ar
     9    27    28    1
    10    27    18   ar
    11    29    28   ar
    12    29    30   ar
    13    28    34   ar
    14    20    19   ar
    15    18    17   ar
    16    31    30    1
    17    30    32   ar
    18    34    33   ar
    19     4     5   ar
    20     4     3   ar
    21     5     6   ar
    22    32    33   ar
    23    19    16   ar
    24    17    16   ar
    25    16     7    1
    26     3     2   ar
    27     6     2   ar
    28     6     7    1
    29     9    10   ar
    30     9     8   ar
    31    10    11   ar
    32     2     1    1
    33     7     8    1
    34     7    15    1
    35     8    14   ar
    36    11    12    1
    37    11    13   ar
    38    14    13   ar
