@<TRIPOS>MOLECULE
3sfx_FII_B_1.pdb
 24 23 0 0 0
SMALL
GASTEIGER

@<TRIPOS>ATOM
      1  C1        27.7810  -37.6740   -4.6760 C.3   525  FII525      0.0260
      2  C2        27.7570  -36.1580   -4.4680 C.2   525  FII525     -0.0478
      3  C6        26.6270  -35.3220   -5.0720 C.3   525  FII525      0.0260
      4  C10       28.7610  -35.5420   -3.7310 C.2   525  FII525     -0.0342
      5  C11       28.8620  -34.1810   -3.4660 C.3   525  FII525      0.0297
      6  C12       30.0070  -33.5510   -4.2610 C.3   525  FII525      0.0263
      7  C15       30.9730  -32.8080   -3.3370 C.2   525  FII525     -0.0478
      8  C18       31.7720  -31.6150   -3.8650 C.3   525  FII525      0.0260
      9  C22       31.1240  -33.2160   -2.0170 C.2   525  FII525     -0.0342
     10  C23       31.9620  -32.6340   -1.0720 C.3   525  FII525      0.0297
     11  C24       33.1880  -33.5120   -0.8120 C.3   525  FII525      0.0264
     12  C27       34.1830  -32.8040    0.1100 C.2   525  FII525     -0.0453
     13  C30       33.7160  -31.6460    0.9950 C.3   525  FII525      0.0261
     14  C34       35.5110  -33.2130    0.1450 C.2   525  FII525     -0.0002
     15  C35       36.5150  -32.6610    0.9320 C.3   525  FII525      0.1990
     16  O36       37.5910  -32.2260    0.0960 O.3   525  FII525     -0.2391
     17  N42       37.6770  -30.8690    0.1360 N.am  525  FII525     -0.0618
     18  C43       38.8670  -30.2770    0.1150 C.2   525  FII525      0.2747
     19  O44       39.9360  -30.8840    0.0620 O.2   525  FII525     -0.2705
     20  C45       38.8300  -28.7490    0.1640 C.3   525  FII525      0.1477
     21  P46       37.7680  -28.0810   -1.1490 P.3   525  FII525      0.1265
     22  O49       36.3140  -27.8840   -0.4650 O.3   525  FII525     -0.3568
     23  O50       38.3180  -26.5840   -1.4260 O.3   525  FII525     -0.3568
     24  O51       37.7350  -28.9270   -2.3630 O.2   525  FII525     -0.4596
@<TRIPOS>BOND
     1     3     2    1
     2     1     2    1
     3     2     4    2
     4     6     5    1
     5     6     7    1
     6     8     7    1
     7     4     5    1
     8     7     9    2
     9    24    21    2
    10     9    10    1
    11    23    21    1
    12    21    22    1
    13    21    20    1
    14    10    11    1
    15    11    12    1
    16    19    18    2
    17    16    17    1
    18    16    15    1
    19    12    14    2
    20    12    13    1
    21    18    17   am
    22    18    20    1
    23    14    15    1
