@<TRIPOS>MOLECULE
3sfx_3FX_B_1.pdb
 15 15 0 0 0
SMALL
GASTEIGER

@<TRIPOS>ATOM
      1  OAA       30.1800  -18.3930  -36.2740 O.3   522  3FX522     -0.3074
      2  OAB       29.6030  -20.7340  -35.9570 O.3   522  3FX522     -0.3074
      3  OAC       32.0360  -22.2720  -34.8980 O.3   522  3FX522     -0.2198
      4  OAD       30.4900  -19.4200  -34.0880 O.3   522  3FX522     -0.3074
      5  CAE       38.4610  -24.4000  -36.4820 C.3   522  3FX522      0.0001
      6  CAF       37.7640  -23.4300  -37.4470 C.3   522  3FX522      0.0014
      7  CAG       38.3990  -23.8460  -35.0300 C.3   522  3FX522      0.0014
      8  CAH       36.2910  -23.2290  -37.0220 C.3   522  3FX522      0.0174
      9  CAI       36.9370  -23.6660  -34.5910 C.3   522  3FX522      0.0174
     10  CAJ       34.2670  -21.3370  -35.5470 C.3   522  3FX522      0.1231
     11  CAK       32.2720  -20.0030  -35.9920 C.3   522  3FX522      0.1395
     12  NAL       34.8320  -22.6020  -35.0900 N.3   522  3FX522     -0.2167
     13  CAM       32.7760  -21.4310  -35.8260 C.3   522  3FX522      0.1890
     14  CAN       36.2150  -22.7120  -35.5440 C.3   522  3FX522      0.0729
     15  SAO       30.5490  -19.6490  -35.5610 S.3   522  3FX522     -0.1934
@<TRIPOS>BOND
     1     6     8    1
     2     6     5    1
     3     8    14    1
     4     5     7    1
     5     1    15    1
     6    11    13    1
     7    11    15    1
     8     2    15    1
     9    13    10    1
    10    13     3    1
    11    15     4    1
    12    10    12    1
    13    14    12    1
    14    14     9    1
    15     7     9    1
