@<TRIPOS>MOLECULE
3sfy_3FY_B_1.pdb
 35 38 0 0 0
SMALL
GASTEIGER

@<TRIPOS>ATOM
      1  CAA       30.7550  -38.1170   -5.7680 C.3   525  3FY525      0.0307
      2  CAB       37.0290  -37.9300    1.6730 C.3   525  3FY525      0.0916
      3  CAC       39.8240  -32.6090   -4.0590 C.3   525  3FY525      0.1318
      4  OAD       34.2700  -34.4410   -2.7180 O.2   525  3FY525     -0.1516
      5  OAE       32.8200  -36.0450   -1.6210 O.2   525  3FY525     -0.1516
      6 BRAF       37.7760  -39.3430  -10.7830 Br    525  3FY525     -0.0490
      7  CAG       33.0950  -41.1000   -5.8410 C.ar  525  3FY525     -0.0003
      8  CAH       34.1130  -40.6880   -4.9810 C.ar  525  3FY525     -0.0003
      9  CAI       32.0030  -40.2700   -6.0930 C.ar  525  3FY525     -0.0045
     10  CAJ       36.6830  -38.6120   -8.2110 C.ar  525  3FY525      0.0080
     11  CAK       38.5300  -37.2540   -8.8980 C.ar  525  3FY525      0.0080
     12  CAL       34.0310  -39.4450   -4.3720 C.ar  525  3FY525     -0.0032
     13  CAM       36.5760  -37.8780   -7.0290 C.ar  525  3FY525      0.0150
     14  CAN       38.4280  -36.5040   -7.7150 C.ar  525  3FY525      0.0150
     15  CAO       37.2810  -33.1800   -6.5310 C.ar  525  3FY525      0.1150
     16  CAP       38.3300  -31.4850   -5.7260 C.ar  525  3FY525      0.1784
     17  CAQ       37.2970  -36.0320    0.0380 C.3   525  3FY525      0.2025
     18  CAR       35.4400  -37.1630   -0.1460 C.3   525  3FY525      0.1408
     19  CAS       36.4810  -36.5380   -4.4820 C.3   525  3FY525      0.1103
     20  CAT       35.0040  -36.1860   -4.6550 C.3   525  3FY525      0.1176
     21  CAU       32.9220  -37.2410   -3.9280 C.3   525  3FY525      0.1219
     22  CAV       38.3650  -35.1030   -5.1940 C.3   525  3FY525      0.1368
     23  NAW       37.4230  -31.8550   -6.5950 N.ar  525  3FY525     -0.2226
     24  NAX       36.5900  -35.4940   -0.9590 N.2   525  3FY525     -0.2362
     25  CAY       31.9370  -39.0230   -5.4840 C.ar  525  3FY525     -0.0244
     26  CAZ       37.6620  -38.3180   -9.1610 C.ar  525  3FY525      0.0346
     27  CBA       37.4380  -36.8000   -6.7530 C.ar  525  3FY525      0.0482
     28  CBB       32.9420  -38.6010   -4.6170 C.ar  525  3FY525     -0.0084
     29  CBC       38.1230  -33.6540   -5.6210 C.ar  525  3FY525      0.0778
     30  CBD       35.4560  -36.1940   -1.0650 C.2   525  3FY525      0.1931
     31  NBE       37.3520  -36.1080   -5.5870 N.pl3 525  3FY525     -0.3009
     32  NBF       34.2900  -36.8540   -3.5430 N.3   525  3FY525     -0.1482
     33  NBG       36.5850  -37.0450    0.5300 N.3   525  3FY525     -0.2443
     34  NBH       38.7660  -32.5910   -5.1410 N.ar  525  3FY525     -0.3089
     35  SBI       34.1680  -35.8600   -2.2550 S.O2  525  3FY525      0.0774
@<TRIPOS>BOND
     1     6    26    1
     2    26    11   ar
     3    26    10   ar
     4    11    14   ar
     5    10    13   ar
     6    14    27   ar
     7    13    27   ar
     8    27    31    1
     9    23    15   ar
    10    23    16   ar
    11    15    29   ar
    12     9     7   ar
    13     9    25   ar
    14     7     8   ar
    15     1    25    1
    16    16    34   ar
    17    29    22    1
    18    29    34   ar
    19    31    22    1
    20    31    19    1
    21    25    28   ar
    22    34     3    1
    23     8    12   ar
    24    20    19    1
    25    20    32    1
    26    28    12   ar
    27    28    21    1
    28    21    32    1
    29    32    35    1
    30     4    35    2
    31    35     5    2
    32    35    30    1
    33    30    24    2
    34    30    18    1
    35    24    17    1
    36    18    33    1
    37    17    33    1
    38    33     2    1
