@<TRIPOS>MOLECULE
3sfy_3FX_B_1.pdb
 15 15 0 0 0
SMALL
GASTEIGER

@<TRIPOS>ATOM
      1  OAA       29.7570  -18.1160  -36.2310 O.3   522  3FX522     -0.3074
      2  OAB       29.2580  -20.4580  -35.8730 O.3   522  3FX522     -0.3074
      3  OAC       31.7020  -21.9120  -34.7370 O.3   522  3FX522     -0.2198
      4  OAD       30.1590  -19.0590  -34.0490 O.3   522  3FX522     -0.3074
      5  CAE       38.1930  -24.0180  -36.4350 C.3   522  3FX522      0.0001
      6  CAF       37.4740  -23.0390  -37.3860 C.3   522  3FX522      0.0014
      7  CAG       38.0790  -23.5400  -34.9790 C.3   522  3FX522      0.0014
      8  CAH       36.0280  -22.7450  -36.9420 C.3   522  3FX522      0.0174
      9  CAI       36.5910  -23.4510  -34.5870 C.3   522  3FX522      0.0174
     10  CAJ       33.9120  -21.0140  -35.4280 C.3   522  3FX522      0.1231
     11  CAK       31.8950  -19.7190  -35.9540 C.3   522  3FX522      0.1395
     12  NAL       34.5100  -22.2950  -35.0190 N.3   522  3FX522     -0.2167
     13  CAM       32.4230  -21.1360  -35.7200 C.3   522  3FX522      0.1890
     14  CAN       35.9160  -22.3710  -35.4330 C.3   522  3FX522      0.0729
     15  SAO       30.1850  -19.3270  -35.5030 S.3   522  3FX522     -0.1934
@<TRIPOS>BOND
     1     6     8    1
     2     6     5    1
     3     8    14    1
     4     5     7    1
     5     1    15    1
     6    11    13    1
     7    11    15    1
     8     2    15    1
     9    13    10    1
    10    13     3    1
    11    15     4    1
    12    14    12    1
    13    14     9    1
    14    10    12    1
    15     7     9    1
