@<TRIPOS>MOLECULE
3sfy_FII_B_1.pdb
 24 23 0 0 0
SMALL
GASTEIGER

@<TRIPOS>ATOM
      1  C1        27.0930  -37.2930   -4.4790 C.3   526  FII526      0.0260
      2  C2        27.2120  -35.7700   -4.4040 C.2   526  FII526     -0.0478
      3  C6        26.1770  -34.8860   -5.1030 C.3   526  FII526      0.0260
      4  C10       28.2600  -35.1890   -3.7000 C.2   526  FII526     -0.0342
      5  C11       28.4870  -33.8250   -3.5510 C.3   526  FII526      0.0297
      6  C12       29.6640  -33.3680   -4.4150 C.3   526  FII526      0.0263
      7  C15       30.6680  -32.5590   -3.5910 C.2   526  FII526     -0.0478
      8  C18       31.6100  -31.5740   -4.2860 C.3   526  FII526      0.0260
      9  C22       30.7230  -32.7180   -2.2120 C.2   526  FII526     -0.0342
     10  C23       31.5810  -32.0500   -1.3460 C.3   526  FII526      0.0297
     11  C24       32.3950  -33.0390   -0.5090 C.3   526  FII526      0.0264
     12  C27       33.3840  -32.3050    0.3990 C.2   526  FII526     -0.0453
     13  C30       32.9290  -31.0800    1.1930 C.3   526  FII526      0.0261
     14  C34       34.6960  -32.7520    0.5010 C.2   526  FII526     -0.0002
     15  C35       35.6940  -32.1820    1.2840 C.3   526  FII526      0.1990
     16  O36       36.9680  -32.4120    0.6750 O.3   526  FII526     -0.2391
     17  N42       37.0900  -31.6300   -0.4310 N.am  526  FII526     -0.0618
     18  C43       37.7910  -30.5020   -0.3730 C.2   526  FII526      0.2747
     19  O44       38.3570  -30.0950    0.6400 O.2   526  FII526     -0.2705
     20  C45       37.8540  -29.7120   -1.6820 C.3   526  FII526      0.1477
     21  P46       37.5890  -27.9400   -1.3860 P.3   526  FII526      0.1265
     22  O49       36.5720  -27.8630   -0.1290 O.3   526  FII526     -0.3568
     23  O50       39.0030  -27.3830   -0.8270 O.3   526  FII526     -0.3568
     24  O51       37.1020  -27.2120   -2.5790 O.2   526  FII526     -0.4596
@<TRIPOS>BOND
     1     3     2    1
     2     1     2    1
     3     6     7    1
     4     6     5    1
     5     2     4    2
     6     8     7    1
     7     4     5    1
     8     7     9    2
     9    24    21    2
    10     9    10    1
    11    20    21    1
    12    20    18    1
    13    21    23    1
    14    21    22    1
    15    10    11    1
    16    11    12    1
    17    17    18   am
    18    17    16    1
    19    18    19    2
    20    12    14    2
    21    12    13    1
    22    14    15    1
    23    16    15    1
