@<TRIPOS>MOLECULE
3sfz_ADP_A_1.pdb
 27 29 0 0 0
SMALL
GASTEIGER

@<TRIPOS>ATOM
      1  PB        -0.3260   34.5950  -17.8120 P.3   1250  ADP1250     0.5373
      2  O1B       -0.6120   35.5470  -18.8790 O.2   1250  ADP1250    -0.2221
      3  O2B        1.1590   34.8670  -17.2970 O.3   1250  ADP1250    -0.1143
      4  O3B       -0.4530   33.0750  -18.3400 O.3   1250  ADP1250    -0.1143
      5  PA        -2.8900   34.5520  -17.0360 P.3   1250  ADP1250     0.2231
      6  O1A       -3.3610   35.4560  -18.1020 O.2   1250  ADP1250    -0.5169
      7  O2A       -3.0630   33.0210  -17.4880 O.3   1250  ADP1250    -0.4370
      8  O3A       -1.3360   34.8340  -16.6200 O.3   1250  ADP1250    -0.2261
      9  O5'       -3.6570   34.8350  -15.6570 O.3   1250  ADP1250    -0.3111
     10  C5'       -5.0520   34.6230  -15.7270 C.3   1250  ADP1250     0.1813
     11  C4'       -5.5340   34.9150  -14.3060 C.3   1250  ADP1250     0.1821
     12  O4'       -5.2160   36.2680  -13.8910 O.3   1250  ADP1250    -0.3135
     13  C3'       -7.0320   34.7160  -14.1410 C.3   1250  ADP1250     0.2184
     14  O3'       -7.2720   33.7240  -13.1560 O.3   1250  ADP1250    -0.2174
     15  C2'       -7.6100   36.0880  -13.7580 C.3   1250  ADP1250     0.2570
     16  O2'       -8.2730   36.0700  -12.4800 O.3   1250  ADP1250    -0.2130
     17  C1'       -6.4310   37.0550  -13.7560 C.3   1250  ADP1250     0.3186
     18  N9        -6.5900   37.9930  -14.8740 N.pl3 1250  ADP1250    -0.1439
     19  C8        -5.7370   38.1580  -15.9310 C.3   1250  ADP1250     0.3377
     20  N7        -6.1810   39.0690  -16.7410 N.2   1250  ADP1250    -0.2095
     21  C5        -7.3460   39.5550  -16.2660 C.2   1250  ADP1250     0.2526
     22  C6        -8.2730   40.5400  -16.7090 C.2   1250  ADP1250     0.4393
     23  N6        -8.0390   41.2330  -17.8930 N.pl3 1250  ADP1250     0.2180
     24  N1        -9.3810   40.7790  -15.9490 N.2   1250  ADP1250     0.0021
     25  C2        -9.6070   40.1040  -14.8070 C.3   1250  ADP1250     0.5254
     26  N3        -8.7560   39.1670  -14.3620 N.2   1250  ADP1250    -0.0055
     27  C4        -7.6290   38.8680  -15.0520 C.2   1250  ADP1250     0.3518
@<TRIPOS>BOND
     1     2     1    2
     2     4     1    1
     3     6     5    2
     4    23    22    1
     5     1     3    1
     6     1     8    1
     7     7     5    1
     8     5     8    1
     9     5     9    1
    10    20    21    2
    11    20    19    1
    12    22    21    1
    13    22    24    2
    14    21    27    1
    15    24    25    1
    16    19    18    1
    17    10     9    1
    18    10    11    1
    19    27    18    1
    20    27    26    2
    21    18    17    1
    22    25    26    1
    23    11    13    1
    24    11    12    1
    25    13    15    1
    26    13    14    1
    27    12    17    1
    28    15    17    1
    29    15    16    1
