@<TRIPOS>MOLECULE
3sg0_173_A_1.pdb
 11 11 0 0 0
SMALL
GASTEIGER

@<TRIPOS>ATOM
      1  O1B       22.6290  -13.0360   -4.5340 O.co2 384  173384     -0.2369
      2  C1        21.6550  -12.6270   -3.9600 C.2   384  173384      0.4260
      3  O1A       21.4610  -12.7690   -2.5910 O.co2 384  173384     -0.2369
      4  C2        20.6840  -11.7170   -4.6630 C.2   384  173384      0.2746
      5  O2        19.8740  -11.0980   -4.0400 O.2   384  173384     -0.2795
      6  C1G       20.7430  -11.6790   -6.1580 C.ar  384  173384      0.0457
      7  C2D       20.8510  -12.9900   -6.9300 C.ar  384  173384      0.0034
      8  C2E       20.9380  -12.9700   -8.4420 C.ar  384  173384      0.0001
      9  C3        20.9320  -11.6270   -9.1700 C.ar  384  173384      0.0000
     10  C1E       20.8270  -10.3190   -8.3630 C.ar  384  173384      0.0001
     11  C1D       20.7250  -10.3300   -6.8520 C.ar  384  173384      0.0034
@<TRIPOS>BOND
     1     9     8   ar
     2     9    10   ar
     3     8     7   ar
     4    10    11   ar
     5     7     6   ar
     6    11     6   ar
     7     6     4    1
     8     4     5    2
     9     4     2    1
    10     1     2   ar
    11     2     3   ar
