@<TRIPOS>MOLECULE
3sg9_KAN_A_1.pdb
 33 35 0 0 0
SMALL
GASTEIGER

@<TRIPOS>ATOM
      1  C1         5.2490   23.6730   39.2860 C.3   304  KAN304      0.2695
      2  C2         5.7870   24.5290   40.4360 C.3   304  KAN304      0.2406
      3  C3         5.1780   24.0980   41.7880 C.3   304  KAN304      0.2198
      4  C4         3.6260   23.9880   41.7180 C.3   304  KAN304      0.2133
      5  C5         3.2250   23.0110   40.6010 C.3   304  KAN304      0.1696
      6  C6         1.6920   22.7730   40.3200 C.3   304  KAN304      0.1415
      7  C7         5.8850   19.1830   36.6350 C.3   304  KAN304      0.1231
      8  C8         5.1850   20.4640   36.0410 C.3   304  KAN304      0.1680
      9  C9         5.6330   21.6320   36.9630 C.3   304  KAN304      0.2088
     10  C10        5.3060   21.4040   38.4540 C.3   304  KAN304      0.1680
     11  C11        5.7500   20.0000   38.9860 C.3   304  KAN304      0.1231
     12  C12        5.3060   18.8720   38.0340 C.3   304  KAN304      0.0432
     13  C13        5.0280   21.8850   33.8480 C.3   304  KAN304      0.2684
     14  C14        5.2730   21.6720   32.3120 C.3   304  KAN304      0.2279
     15  C15        6.7190   21.9550   31.7920 C.3   304  KAN304      0.1599
     16  C16        7.7210   22.6790   32.7820 C.3   304  KAN304      0.2017
     17  C17        7.1840   22.7850   34.2230 C.3   304  KAN304      0.1824
     18  C18        8.0900   23.6870   35.0300 C.3   304  KAN304      0.2142
     19  N1         0.8450   23.4870   41.2940 N.3   304  KAN304     -0.1286
     20  N2         5.3060   19.7390   40.3740 N.3   304  KAN304     -0.1302
     21  N3         5.8270   17.9730   35.7750 N.3   304  KAN304     -0.1302
     22  N4         6.5830   22.7030   30.5250 N.3   304  KAN304     -0.1272
     23  O5         3.8350   23.4060   39.3260 O.3   304  KAN304     -0.3268
     24  O6         7.2280   24.4960   40.4100 O.3   304  KAN304     -0.2149
     25  O7         5.6170   24.9960   42.8370 O.3   304  KAN304     -0.2174
     26  O8         3.0360   23.5170   42.9580 O.3   304  KAN304     -0.2176
     27  O9         5.9890   22.4680   39.1860 O.3   304  KAN304     -0.3269
     28  O10        4.9790   22.8130   36.5500 O.3   304  KAN304     -0.2178
     29  O11        5.4610   20.6800   34.5990 O.3   304  KAN304     -0.3269
     30  O12        5.7390   23.0980   34.2870 O.3   304  KAN304     -0.3257
     31  O13        4.9460   20.3300   31.9050 O.3   304  KAN304     -0.2161
     32  O14        9.0140   21.9960   32.8570 O.3   304  KAN304     -0.2188
     33  O15        9.1470   22.8630   35.5080 O.3   304  KAN304     -0.2176
@<TRIPOS>BOND
     1    22    15    1
     2    15    14    1
     3    15    16    1
     4    31    14    1
     5    14    13    1
     6    16    32    1
     7    16    17    1
     8    13    30    1
     9    13    29    1
    10    17    30    1
    11    17    18    1
    12    29     8    1
    13    18    33    1
    14    21     7    1
    15     8     7    1
    16     8     9    1
    17    28     9    1
    18     7    12    1
    19     9    10    1
    20    12    11    1
    21    10    11    1
    22    10    27    1
    23    11    20    1
    24    27     1    1
    25     1    23    1
    26     1     2    1
    27    23     5    1
    28     6     5    1
    29     6    19    1
    30    24     2    1
    31     2     3    1
    32     5     4    1
    33     4     3    1
    34     4    26    1
    35     3    25    1
