@<TRIPOS>MOLECULE
3sga_III_P_1.pdb
 33 35 0 0 0
SMALL
GASTEIGER

@<TRIPOS>ATOM
      1  C        -22.0320   28.3590   21.0140 C.2     5  ACE5        0.2264
      2  O        -22.2410   27.6890   22.0510 O.2     5  ACE5       -0.2748
      3  CH3      -22.7900   29.6120   20.6670 C.3     5  ACE5        0.0948
      4  N        -21.1120   28.0090   20.0940 N.am    6  PRO6       -0.2729
      5  CA       -20.3000   26.8180   20.3450 C.3     6  PRO6        0.1535
      6  C        -19.3200   27.2200   21.4210 C.2     6  PRO6        0.2598
      7  O        -19.0460   28.4370   21.6580 O.2     6  PRO6       -0.2715
      8  CB       -19.7270   26.4450   18.9960 C.3     6  PRO6        0.0310
      9  CG       -19.6780   27.7380   18.2200 C.3     6  PRO6        0.0237
     10  CD       -20.8030   28.6030   18.7790 C.3     6  PRO6        0.0939
     11  N        -18.8340   26.1890   22.0960 N.am    7  ALA7       -0.1964
     12  CA       -17.8480   26.4050   23.1750 C.3     7  ALA7        0.1717
     13  C        -16.8890   25.2160   23.1610 C.2     7  ALA7        0.2496
     14  O        -17.2370   24.1370   22.6900 O.2     7  ALA7       -0.2727
     15  CB       -18.4590   26.5850   24.5260 C.3     7  ALA7        0.0333
     16  N        -15.6990   25.4930   23.6940 N.am    8  PRO8       -0.2490
     17  CA       -14.6490   24.4820   23.7610 C.3     8  PRO8        0.1619
     18  C        -15.0450   23.4280   24.7670 C.2     8  PRO8        0.2605
     19  O        -15.4220   23.8360   25.9140 O.2     8  PRO8       -0.2715
     20  CB       -13.4050   25.2140   24.2500 C.3     8  PRO8        0.0570
     21  CG       -13.8620   26.6050   24.6540 C.2     8  PRO8       -0.0077
     22  CD       -15.2800   26.8110   24.2230 C.2     8  PRO8        0.0634
     23  N        -14.9310   22.1720   24.3840 N.am    9  PHE9       -0.1974
     24  CA       -15.2160   21.0670   25.3200 C.3     9  PHE9        0.1639
     25  C        -13.9030   20.6050   25.9740 C.2     9  PHE9        0.2290
     26  O        -13.9230   19.6030   26.7490 O.2     9  PHE9       -0.2864
     27  CB       -15.9890   19.9620   24.6110 C.3     9  PHE9        0.0560
     28  CG       -17.4130   20.3140   24.2540 C.ar    9  PHE9       -0.0200
     29  CD1      -18.0680   21.3110   24.9960 C.ar    9  PHE9       -0.0042
     30  CD2      -18.0620   19.6540   23.2090 C.ar    9  PHE9       -0.0042
     31  CE1      -19.4000   21.6430   24.6850 C.ar    9  PHE9       -0.0003
     32  CE2      -19.4000   19.9890   22.9030 C.ar    9  PHE9       -0.0003
     33  CZ       -20.0490   20.9940   23.6510 C.ar    9  PHE9       -0.0000
@<TRIPOS>BOND
     1     9    10    1
     2     9     8    1
     3    10     4    1
     4     8     5    1
     5     4     5    1
     6     4     1   am
     7     5     6    1
     8     3     1    1
     9     1     2    2
    10     6     7    2
    11     6    11   am
    12    11    12    1
    13    14    13    2
    14    32    30   ar
    15    32    33   ar
    16    13    12    1
    17    13    16   am
    18    12    15    1
    19    30    28   ar
    20    33    31   ar
    21    16    17    1
    22    16    22    1
    23    17    20    1
    24    17    18    1
    25    22    21    2
    26    20    21    1
    27    28    27    1
    28    28    29   ar
    29    23    18   am
    30    23    24    1
    31    27    24    1
    32    31    29   ar
    33    18    19    2
    34    24    25    1
    35    25    26    2
