@<TRIPOS>MOLECULE
3sgi_AMP_A_1.pdb
 22 24 0 0 0
SMALL
GASTEIGER

@<TRIPOS>ATOM
      1  P         -5.5290   35.3590  -21.9400 P.3   616  AMP616      0.3942
      2  O2P       -6.9940   35.3130  -21.8010 O.3   616  AMP616     -0.1425
      3  O3P       -4.9740   35.1260  -23.2880 O.3   616  AMP616     -0.1425
      4  O5'       -5.1150   34.1100  -21.1080 O.3   616  AMP616     -0.2926
      5  C5'       -5.0130   34.2450  -19.7090 C.3   616  AMP616      0.1831
      6  C4'       -4.0280   33.2080  -19.2520 C.3   616  AMP616      0.1822
      7  O4'       -2.8140   33.4190  -19.9050 O.3   616  AMP616     -0.3135
      8  C3'       -3.6240   33.3810  -17.8510 C.3   616  AMP616      0.2184
      9  O3'       -4.5600   32.6380  -17.1530 O.3   616  AMP616     -0.2174
     10  C2'       -2.3600   32.6190  -17.8210 C.3   616  AMP616      0.2570
     11  O2'       -2.7490   31.2910  -17.5910 O.3   616  AMP616     -0.2130
     12  C1'       -1.8590   32.6590  -19.2260 C.3   616  AMP616      0.3186
     13  N9        -0.5380   33.2970  -19.3040 N.pl3 616  AMP616     -0.1439
     14  C8         0.3550   33.0490  -20.2400 C.3   616  AMP616      0.3377
     15  N7         1.4620   33.7630  -20.0400 N.2   616  AMP616     -0.2095
     16  C5         1.2860   34.4660  -18.9520 C.2   616  AMP616      0.2526
     17  C6         2.0820   35.4260  -18.2250 C.2   616  AMP616      0.4393
     18  N6         3.3090   35.7590  -18.6290 N.pl3 616  AMP616      0.2180
     19  N1         1.5410   35.9620  -17.1470 N.2   616  AMP616      0.0021
     20  C2         0.3250   35.6340  -16.7320 C.3   616  AMP616      0.5254
     21  N3        -0.4440   34.7720  -17.3590 N.2   616  AMP616     -0.0055
     22  C4        -0.0300   34.1650  -18.4640 C.2   616  AMP616      0.3518
@<TRIPOS>BOND
     1     3     1    1
     2     1     2    1
     3     1     4    1
     4     4     5    1
     5    14    15    1
     6    14    13    1
     7    15    16    2
     8     7     6    1
     9     7    12    1
    10     5     6    1
    11    13    12    1
    12    13    22    1
    13     6     8    1
    14    12    10    1
    15    16    22    1
    16    16    17    1
    17    18    17    1
    18    22    21    2
    19    17    19    2
    20     8    10    1
    21     8     9    1
    22    10    11    1
    23    21    20    1
    24    19    20    1
