@<TRIPOS>MOLECULE
3sgj_BMA_A_1.pdb
 11 11 0 0 0
SMALL
GASTEIGER

@<TRIPOS>ATOM
      1  C1       -21.9130  -11.4970   20.1310 C.3   503  BMA503      0.1777
      2  C2       -20.8200  -11.9040   21.0850 C.3   503  BMA503      0.2141
      3  C3       -20.1530  -10.6860   21.7110 C.3   503  BMA503      0.2173
      4  C4       -19.7220   -9.7000   20.6320 C.3   503  BMA503      0.2142
      5  C5       -20.8540   -9.4050   19.6610 C.3   503  BMA503      0.1810
      6  C6       -20.3870   -8.5220   18.5140 C.3   503  BMA503      0.2141
      7  O2       -19.8460  -12.5650   20.2830 O.3   503  BMA503     -0.2176
      8  O3       -18.9760  -11.0930   22.4020 O.3   503  BMA503     -0.2175
      9  O4       -19.3430   -8.4750   21.2560 O.3   503  BMA503     -0.2176
     10  O5       -21.3860  -10.6240   19.1450 O.3   503  BMA503     -0.3481
     11  O6       -21.4600   -8.4990   17.5860 O.3   503  BMA503     -0.2176
@<TRIPOS>BOND
     1    11     6    1
     2     6     5    1
     3    10     5    1
     4    10     1    1
     5     5     4    1
     6     1     2    1
     7     7     2    1
     8     4     9    1
     9     4     3    1
    10     2     3    1
    11     3     8    1
