@<TRIPOS>MOLECULE
3sgk_BMA_A_1.pdb
 11 11 0 0 0
SMALL
GASTEIGER

@<TRIPOS>ATOM
      1  C1        10.9330   12.0610  -20.0560 C.3   1448  BMA1448     0.1777
      2  C2        11.9470   12.5310  -21.0720 C.3   1448  BMA1448     0.2141
      3  C3        12.5840   11.3330  -21.7570 C.3   1448  BMA1448     0.2173
      4  C4        13.1110   10.3050  -20.7550 C.3   1448  BMA1448     0.2142
      5  C5        12.0370    9.9530  -19.7390 C.3   1448  BMA1448     0.1810
      6  C6        12.5440    9.0290  -18.6430 C.3   1448  BMA1448     0.2141
      7  O2        12.9570   13.2390  -20.3630 O.3   1448  BMA1448    -0.2176
      8  O3        13.6610   11.7800  -22.5740 O.3   1448  BMA1448    -0.2175
      9  O4        13.4020    9.1460  -21.5300 O.3   1448  BMA1448    -0.2176
     10  O5        11.5480   11.1490  -19.1390 O.3   1448  BMA1448    -0.3481
     11  O6        11.5240    9.0380  -17.6570 O.3   1448  BMA1448    -0.2176
@<TRIPOS>BOND
     1     8     3    1
     2     3     2    1
     3     3     4    1
     4     9     4    1
     5     2     7    1
     6     2     1    1
     7     4     5    1
     8     1    10    1
     9     5    10    1
    10     5     6    1
    11     6    11    1
