@<TRIPOS>MOLECULE
3sgl_SAM_A_1.pdb
 27 29 0 0 0
SMALL
GASTEIGER

@<TRIPOS>ATOM
      1  N         29.3080  -10.9060   34.7560 N.3   692  SAM692     -0.1208
      2  CA        30.2980  -11.1980   33.6920 C.3   692  SAM692      0.1952
      3  C         29.9380  -12.4550   32.9160 C.2   692  SAM692      0.3819
      4  O         30.7590  -13.0470   32.1970 O.co2 692  SAM692     -0.2441
      5  OXT       28.7730  -12.8440   32.9700 O.co2 692  SAM692     -0.2441
      6  CB        31.7010  -11.2460   34.2650 C.3   692  SAM692      0.0414
      7  CG        32.5310  -10.1910   33.5490 C.3   692  SAM692      0.0503
      8  SD        33.9680   -9.6320   34.4820 S.3   692  SAM692     -0.1761
      9  CE        33.7000  -10.4390   36.0960 C.3   692  SAM692      0.0590
     10  C5'       33.6850   -7.8530   34.7940 C.3   692  SAM692      0.0806
     11  C4'       33.4780   -7.0150   33.5310 C.3   692  SAM692      0.1622
     12  O4'       33.2360   -5.6660   33.8570 O.3   692  SAM692     -0.3153
     13  C3'       34.6570   -6.9850   32.5620 C.3   692  SAM692      0.2168
     14  O3'       34.2680   -7.5600   31.3440 O.3   692  SAM692     -0.2175
     15  C2'       34.9410   -5.5150   32.3510 C.3   692  SAM692      0.2569
     16  O2'       35.2240   -5.2330   31.0160 O.3   692  SAM692     -0.2130
     17  C1'       33.6390   -4.8810   32.7580 C.3   692  SAM692      0.3185
     18  N9        33.8190   -3.5040   33.2120 N.pl3 692  SAM692     -0.1439
     19  C8        34.6850   -3.0680   34.1800 C.3   692  SAM692      0.3377
     20  N7        34.5110   -1.7390   34.3310 N.2   692  SAM692     -0.2095
     21  C5        33.5590   -1.3160   33.4770 C.2   692  SAM692      0.2526
     22  C6        32.9930   -0.0700   33.2370 C.2   692  SAM692      0.4393
     23  N6        33.4000    1.0180   33.8870 N.pl3 692  SAM692      0.2180
     24  N1        31.9830    0.0270   32.3030 N.2   692  SAM692      0.0021
     25  C2        31.5520   -1.0870   31.6240 C.3   692  SAM692      0.5254
     26  N3        32.1250   -2.3020   31.8720 N.2   692  SAM692     -0.0055
     27  C4        33.1010   -2.4230   32.7860 C.2   692  SAM692      0.3518
@<TRIPOS>BOND
     1    16    15    1
     2    14    13    1
     3    25    26    1
     4    25    24    1
     5    26    27    2
     6     4     3   ar
     7    24    22    2
     8    15    13    1
     9    15    17    1
    10    13    11    1
    11    17    18    1
    12    17    12    1
    13    27    18    1
    14    27    21    1
    15     3     5   ar
    16     3     2    1
    17    18    19    1
    18    22    21    1
    19    22    23    1
    20    21    20    2
    21    11    12    1
    22    11    10    1
    23     7     6    1
    24     7     8    1
    25     2     6    1
    26     2     1    1
    27    19    20    1
    28     8    10    1
    29     8     9    1
