@<TRIPOS>MOLECULE
3sgt_P09_B_1.pdb
 27 29 0 0 0
SMALL
GASTEIGER

@<TRIPOS>ATOM
      1  CAA      -13.3630   -4.3790    0.3300 C.3   1001  P091001     0.0307
      2  CAB      -15.1170   -2.1640    1.5530 C.3   1001  P091001     0.0308
      3  OAC      -11.0160    7.9790    7.6780 O.co2 1001  P091001    -0.2406
      4  OAD      -12.2700    4.3590    6.1590 O.2   1001  P091001    -0.2680
      5  OAE      -10.9450    6.9980    5.6770 O.co2 1001  P091001    -0.2406
      6  CAF      -15.2240    8.1420    7.5260 C.ar  1001  P091001     0.0002
      7  CAG      -15.8910    7.0690    6.9320 C.ar  1001  P091001     0.0002
      8  CAH      -13.8370    8.2560    7.4700 C.ar  1001  P091001     0.0067
      9  CAI      -15.1450    6.1150    6.2670 C.ar  1001  P091001     0.0048
     10  CAJ      -11.5760   -2.6340    0.1730 C.ar  1001  P091001    -0.0014
     11  CAK      -12.1750    2.8060    4.0030 C.ar  1001  P091001     0.0197
     12  CAL      -12.7240    4.0460    2.0130 C.ar  1001  P091001     0.0197
     13  CAM      -11.0640   -1.3600    0.3270 C.ar  1001  P091001     0.0371
     14  CAN      -11.6930    1.7480    3.1980 C.ar  1001  P091001     0.0388
     15  CAO      -12.2450    3.0110    1.2200 C.ar  1001  P091001     0.0388
     16  CAP      -13.1700   -0.6100    1.2720 C.ar  1001  P091001     0.0329
     17  NAQ      -13.2160    4.9720    4.1560 N.am  1001  P091001    -0.1754
     18  OAR      -11.2650    0.8610    0.9940 O.3   1001  P091001    -0.4535
     19  CAS      -11.5520    7.3950    6.7190 C.2   1001  P091001     0.3879
     20  CAT      -13.0140    5.0830    5.4680 C.2   1001  P091001     0.2692
     21  CAU      -12.8880   -2.9250    0.5530 C.ar  1001  P091001    -0.0256
     22  CAV      -13.6900   -1.9060    1.0880 C.ar  1001  P091001    -0.0228
     23  CAW      -12.6830    3.9670    3.4090 C.ar  1001  P091001     0.0739
     24  CAX      -11.7550    1.8470    1.8110 C.ar  1001  P091001     0.1454
     25  CAY      -11.8760   -0.3440    0.8710 C.ar  1001  P091001     0.1450
     26  CAZ      -13.0910    7.2660    6.7990 C.ar  1001  P091001     0.0842
     27  CBA      -13.7660    6.2240    6.1820 C.ar  1001  P091001     0.0617
@<TRIPOS>BOND
     1    10    13   ar
     2    10    21   ar
     3    13    25   ar
     4     1    21    1
     5    21    22   ar
     6    25    18    1
     7    25    16   ar
     8    18    24    1
     9    22    16   ar
    10    22     2    1
    11    15    24   ar
    12    15    12   ar
    13    24    14   ar
    14    12    23   ar
    15    14    11   ar
    16    23    11   ar
    17    23    17    1
    18    17    20   am
    19    20     4    2
    20    20    27    1
    21     5    19   ar
    22    27     9   ar
    23    27    26   ar
    24     9     7   ar
    25    19    26    1
    26    19     3   ar
    27    26     8   ar
    28     7     6   ar
    29     8     6   ar
