@<TRIPOS>MOLECULE
3sgu_5FU_A_1.pdb
 22 23 0 0 0
SMALL
GASTEIGER

@<TRIPOS>ATOM
      1  F5       -14.2100   -8.7390    1.7740 F     1000  5FU1000    -0.1891
      2  C5       -14.7140   -9.8700    1.2330 C.2   1000  5FU1000     0.2499
      3  C4       -13.8390  -10.8590    0.8440 C.1   1000  5FU1000     0.2454
      4  O4       -12.5330  -10.7250    1.0620 O.2   1000  5FU1000    -0.2062
      5  N3       -14.2380  -11.9720    0.2220 N.2   1000  5FU1000    -0.2430
      6  C2       -15.5470  -12.0940    0.0250 C.1   1000  5FU1000     0.2846
      7  O2       -15.9170  -13.1730   -0.6390 O.2   1000  5FU1000    -0.1918
      8  C6       -16.0800  -10.0440    1.0190 C.2   1000  5FU1000     0.1222
      9  N1       -16.4560  -11.1950    0.4140 N.am  1000  5FU1000    -0.1744
     10  C1'      -17.8820  -11.5080    0.3220 C.3   1000  5FU1000     0.2401
     11  O4'      -18.0090  -12.7530    1.0780 O.3   1000  5FU1000    -0.3319
     12  C2'      -18.5780  -11.8140   -0.9750 C.3   1000  5FU1000     0.2319
     13  O2'      -19.1200  -10.5570   -1.3530 O.3   1000  5FU1000    -0.2157
     14  C3'      -19.6580  -12.7970   -0.5170 C.3   1000  5FU1000     0.2158
     15  O3'      -20.7460  -12.1370    0.1460 O.3   1000  5FU1000    -0.2175
     16  C4'      -18.9540  -13.6620    0.5080 C.3   1000  5FU1000     0.1801
     17  C5'      -18.3030  -14.8650   -0.1780 C.3   1000  5FU1000     0.1859
     18  O5'      -19.3130  -15.7200   -0.7070 O.3   1000  5FU1000    -0.2675
     19  P        -19.0390  -17.0100   -1.6370 P.3   1000  5FU1000     0.5327
     20  O1P      -20.2180  -17.0760   -2.5800 O.2   1000  5FU1000    -0.2224
     21  O2P      -17.7090  -16.7900   -2.3400 O.3   1000  5FU1000    -0.1145
     22  O3P      -18.9290  -18.1670   -0.6660 O.3   1000  5FU1000    -0.1145
@<TRIPOS>BOND
     1    20    19    2
     2    21    19    1
     3    19    18    1
     4    19    22    1
     5    13    12    1
     6    12    14    1
     7    12    10    1
     8    18    17    1
     9     7     6    2
    10    14    15    1
    11    14    16    1
    12    17    16    1
    13     6     5    2
    14     6     9   am
    15     5     3    2
    16    10     9    1
    17    10    11    1
    18     9     8    1
    19    16    11    1
    20     3     4    2
    21     3     2    1
    22     8     2    2
    23     2     1    1
