@<TRIPOS>MOLECULE
3sgv_2BJ_A_1.pdb
 30 32 0 0 0
SMALL
GASTEIGER

@<TRIPOS>ATOM
      1  C1        20.8670   -3.3880   21.8630 C.ar  2001  2BJ2001     0.0634
      2  N1        17.3620   -2.8070   20.9830 N.pl3 2001  2BJ2001     0.0577
      3  O1        16.3940   -3.3500   20.2760 O.2   2001  2BJ2001    -0.1261
      4  C2        21.1650   -4.5200   21.1500 C.ar  2001  2BJ2001     0.0843
      5  N2        21.9010   -1.3790   22.7600 N.am  2001  2BJ2001    -0.1753
      6  O2        17.0520   -1.6880   21.8220 O.2   2001  2BJ2001    -0.1261
      7  C3        20.1680   -5.0750   20.3480 C.ar  2001  2BJ2001     0.0084
      8  O3        23.4570   -4.3220   20.7780 O.co2 2001  2BJ2001    -0.2406
      9  C4        18.8990   -4.5540   20.3030 C.ar  2001  2BJ2001     0.0243
     10  O4        22.7120   -6.3460   21.1950 O.co2 2001  2BJ2001    -0.2406
     11  C5        18.6110   -3.3950   21.0190 C.ar  2001  2BJ2001     0.1430
     12  O5        22.4280   -3.5220   23.6800 O.2   2001  2BJ2001    -0.2680
     13  C6        19.5910   -2.8470   21.8000 C.ar  2001  2BJ2001     0.0289
     14  O6        23.5970   -0.4890   27.1990 O.3   2001  2BJ2001    -0.4535
     15  C7        22.5520   -5.1190   21.1110 C.2   2001  2BJ2001     0.3879
     16  C8        21.8700   -2.7460   22.8350 C.2   2001  2BJ2001     0.2692
     17  C9        22.4770   -0.5630   23.7090 C.ar  2001  2BJ2001     0.0767
     18  C10       22.7580    0.7800   23.3720 C.ar  2001  2BJ2001     0.0168
     19  C11       23.2530    1.7350   24.2710 C.ar  2001  2BJ2001     0.0045
     20  C12       23.5630    1.3030   25.5680 C.ar  2001  2BJ2001     0.0376
     21  C13       24.4300    0.1670   28.0060 C.ar  2001  2BJ2001     0.1450
     22  C14       23.3800   -0.0540   25.8990 C.ar  2001  2BJ2001     0.1466
     23  C15       22.7980   -0.9830   25.0340 C.ar  2001  2BJ2001     0.0541
     24  C16       25.7680    0.4190   27.6320 C.ar  2001  2BJ2001     0.0371
     25  C17       26.6360    1.1360   28.4950 C.ar  2001  2BJ2001    -0.0014
     26  C18       26.0960    1.5690   29.7260 C.ar  2001  2BJ2001    -0.0256
     27  C19       27.0500    2.3320   30.6900 C.3   2001  2BJ2001     0.0307
     28  C20       24.7810    1.2950   30.0680 C.ar  2001  2BJ2001    -0.0228
     29  C21       24.1410    1.7620   31.4230 C.3   2001  2BJ2001     0.0308
     30  C22       23.9350    0.5840   29.2210 C.ar  2001  2BJ2001     0.0329
@<TRIPOS>BOND
     1     3     2    2
     2     9     7   ar
     3     9    11   ar
     4     7     4   ar
     5     8    15   ar
     6     2    11    1
     7     2     6    2
     8    11    13   ar
     9    15     4    1
    10    15    10   ar
    11     4     1   ar
    12    13     1   ar
    13     1    16    1
    14     5    16   am
    15     5    17    1
    16    16    12    2
    17    18    17   ar
    18    18    19   ar
    19    17    23   ar
    20    19    20   ar
    21    23    22   ar
    22    20    22   ar
    23    22    14    1
    24    14    21    1
    25    24    21   ar
    26    24    25   ar
    27    21    30   ar
    28    25    26   ar
    29    30    28   ar
    30    26    28   ar
    31    26    27    1
    32    28    29    1
