@<TRIPOS>MOLECULE
3sgx_0FW_A_1.pdb
 34 37 0 0 0
SMALL
GASTEIGER

@<TRIPOS>ATOM
      1  OAA      -11.3460   17.8360    1.5230 O.co2 1001  0FW1001    -0.2405
      2  OAB      -10.0410   14.6410    5.8000 O.co2 1001  0FW1001    -0.2405
      3  OAC      -12.0000    6.9280    1.3980 O.2   1001  0FW1001    -0.2680
      4  OAD      -10.4160   17.6800    3.5450 O.co2 1001  0FW1001    -0.2405
      5  OAE      -11.3410   16.3720    5.3350 O.co2 1001  0FW1001    -0.2405
      6  CAF      -14.1450   -1.7410    3.1560 C.ar  1001  0FW1001     0.0000
      7  CAG      -14.8750   -0.7810    3.8570 C.ar  1001  0FW1001     0.0000
      8  CAH      -13.0730   -1.3370    2.3410 C.ar  1001  0FW1001     0.0000
      9  CAI      -14.8860   10.8360    3.1690 C.ar  1001  0FW1001     0.0045
     10  CAJ      -14.8010    9.4410    3.2300 C.ar  1001  0FW1001     0.0168
     11  CAK      -13.7750   11.5820    2.8110 C.ar  1001  0FW1001     0.0376
     12  CAL      -14.5520    0.5660    3.7300 C.ar  1001  0FW1001     0.0000
     13  CAM      -12.7330    0.0220    2.1990 C.ar  1001  0FW1001     0.0000
     14  CAN      -11.4620   13.6770    1.0700 C.ar  1001  0FW1001     0.0377
     15  CAO      -13.1260    4.5420    3.7010 C.ar  1001  0FW1001     0.0046
     16  CAP      -13.0160    4.2490    1.3070 C.ar  1001  0FW1001     0.0046
     17  CAQ      -13.2760    3.1780    3.8730 C.ar  1001  0FW1001     0.0001
     18  CAR      -13.1640    2.8830    1.4990 C.ar  1001  0FW1001     0.0001
     19  CAS      -11.3350   15.0590    1.1990 C.ar  1001  0FW1001     0.0099
     20  CAT      -12.5040    9.5120    2.5830 C.ar  1001  0FW1001     0.0541
     21  CAU      -11.1270   13.4620    3.4350 C.ar  1001  0FW1001     0.0443
     22  NAV      -13.5930    7.3940    2.9840 N.am  1001  0FW1001    -0.1753
     23  OAW      -11.4590   11.5300    2.1490 O.3   1001  0FW1001    -0.4535
     24  CAX      -10.9560   17.1780    2.5180 C.2   1001  0FW1001     0.3880
     25  CAY      -10.7470   15.3340    5.0110 C.2   1001  0FW1001     0.3881
     26  CAZ      -12.8210    6.5760    2.2310 C.2   1001  0FW1001     0.2690
     27  CBA      -13.6190    8.7490    2.9370 C.ar  1001  0FW1001     0.0767
     28  CBB      -12.5870   10.8990    2.5190 C.ar  1001  0FW1001     0.1466
     29  CBC      -11.3730   12.8850    2.2070 C.ar  1001  0FW1001     0.1455
     30  CBD      -12.9920    5.0770    2.4280 C.ar  1001  0FW1001     0.0554
     31  CBE      -13.4800    0.9750    2.9110 C.ar  1001  0FW1001     0.0000
     32  CBF      -13.2710    2.3440    2.7760 C.ar  1001  0FW1001     0.0000
     33  CBG      -11.0960   15.6440    2.4430 C.ar  1001  0FW1001     0.0863
     34  CBH      -10.9870   14.8250    3.5790 C.ar  1001  0FW1001     0.0892
@<TRIPOS>BOND
     1    14    19   ar
     2    14    29   ar
     3    19    33   ar
     4    16    18   ar
     5    16    30   ar
     6     3    26    2
     7    18    32   ar
     8     1    24   ar
     9    23    29    1
    10    23    28    1
    11    13     8   ar
    12    13    31   ar
    13    29    21   ar
    14    26    30    1
    15    26    22   am
    16     8     6   ar
    17    30    15   ar
    18    33    24    1
    19    33    34   ar
    20    24     4   ar
    21    28    20   ar
    22    28    11   ar
    23    20    27   ar
    24    32    31    1
    25    32    17   ar
    26    11     9   ar
    27    31    12   ar
    28    27    22    1
    29    27    10   ar
    30     6     7   ar
    31     9    10   ar
    32    21    34   ar
    33    34    25    1
    34    15    17   ar
    35    12     7   ar
    36    25     5   ar
    37    25     2   ar
