@<TRIPOS>MOLECULE
3sgy_06W_A_1.pdb
 28 30 0 0 0
SMALL
GASTEIGER

@<TRIPOS>ATOM
      1  N1        26.4360   -9.0870   -7.3250 N.2   168  06W168     -0.3105
      2  C2        26.9530   -8.0030   -7.9250 C.1   168  06W168      0.2419
      3  N3        27.9630   -8.1260   -8.7920 N.2   168  06W168     -0.3332
      4  C4        28.4890   -9.3270   -9.0930 C.2   168  06W168      0.1203
      5  C5        27.9660  -10.4610   -8.4780 C.3   168  06W168      0.1831
      6  C6        26.9150  -10.3140   -7.5830 C.2   168  06W168      0.2282
      7  CAA       35.3370  -12.1620   -8.5390 C.ar  168  06W168      0.0207
      8  NAH       26.4730   -6.7950   -7.6620 N.pl3 168  06W168     -0.0232
      9  CAI       29.6410   -9.3610  -10.0850 C.3   168  06W168      0.0569
     10  NAJ       26.3850  -11.3790   -6.9960 N.pl3 168  06W168     -0.0955
     11  CAK       28.5050  -11.7540   -8.7790 C.1   168  06W168     -0.0761
     12  CAL       28.9740  -12.8560   -9.0470 C.1   168  06W168     -0.0868
     13  CAM       29.5430  -14.1740   -9.3810 C.3   168  06W168      0.0864
     14  CAN       29.4350  -14.4520  -10.8930 C.3   168  06W168      0.0187
     15  CAO       31.0190  -14.2820   -8.9580 C.ar  168  06W168     -0.0074
     16  CAP       31.3950  -15.3570   -8.1430 C.ar  168  06W168      0.0336
     17  CAQ       32.7210  -15.5190   -7.7280 C.ar  168  06W168      0.1384
     18  CAR       33.6790  -14.5840   -8.1620 C.ar  168  06W168      0.0369
     19  CAS       33.3260  -13.4940   -8.9770 C.ar  168  06W168      0.0028
     20  CAT       31.9850  -13.3520   -9.3800 C.ar  168  06W168     -0.0031
     21  CAU       34.3150  -12.5850   -9.3980 C.ar  168  06W168      0.0032
     22  CAV       34.3180  -12.0960  -10.7120 C.ar  168  06W168      0.0207
     23  CAW       35.3200  -11.2010  -11.1040 C.ar  168  06W168      0.0989
     24  NAX       36.2700  -10.8200  -10.2500 N.ar  168  06W168     -0.2423
     25  CAY       36.3090  -11.2680   -8.9980 C.ar  168  06W168      0.0989
     26  CAZ       30.9140   -8.9220   -9.3810 C.3   168  06W168      0.0076
     27  OBA       33.0570  -16.5970   -6.9320 O.3   168  06W168     -0.4714
     28  CBB       33.6600  -16.2680   -5.6740 C.3   168  06W168      0.2525
@<TRIPOS>BOND
     1    23    22   ar
     2    23    24   ar
     3    14    13    1
     4    22    21   ar
     5    24    25   ar
     6     9    26    1
     7     9     4    1
     8    21    19    1
     9    21     7   ar
    10    13    12    1
    11    13    15    1
    12    20    19   ar
    13    20    15   ar
    14     4     3    2
    15     4     5    1
    16    12    11    3
    17    25     7   ar
    18    19    18   ar
    19    15    16   ar
    20     3     2    2
    21    11     5    1
    22     5     6    1
    23    18    17   ar
    24    16    17   ar
    25     2     8    1
    26     2     1    2
    27    17    27    1
    28     6     1    2
    29     6    10    1
    30    27    28    1
