@<TRIPOS>MOLECULE
3sgy_NAP_A_1.pdb
 48 52 0 0 0
SMALL
GASTEIGER

@<TRIPOS>ATOM
      1  PA        23.5900  -21.6260   -9.8070 P.3   207  NAP207      0.2189
      2  O1A       22.3970  -21.1600   -9.0510 O.3   207  NAP207     -0.4371
      3  O2A       24.7690  -20.7550   -9.6170 O.2   207  NAP207     -0.5170
      4  O5B       23.9460  -23.1220   -9.3560 O.3   207  NAP207     -0.3112
      5  C5B       22.9710  -24.1270   -9.5190 C.3   207  NAP207      0.1813
      6  C4B       23.4370  -25.3320   -8.7320 C.3   207  NAP207      0.1820
      7  O4B       23.5110  -25.0540   -7.3400 O.3   207  NAP207     -0.3136
      8  C3B       22.4980  -26.5170   -8.8400 C.3   207  NAP207      0.2157
      9  O3B       22.6560  -27.1980  -10.0610 O.3   207  NAP207     -0.2175
     10  C2B       22.9380  -27.3110   -7.6260 C.3   207  NAP207      0.2314
     11  O2B       24.2240  -27.8260   -7.8410 O.3   207  NAP207     -0.2630
     12  C1B       23.1490  -26.2110   -6.6040 C.3   207  NAP207      0.3158
     13  N9A       21.8930  -26.0340   -5.8600 N.pl3 207  NAP207     -0.1439
     14  C8A       20.9810  -25.0200   -6.0080 C.3   207  NAP207      0.3377
     15  N7A       19.9640  -25.2430   -5.1430 N.2   207  NAP207     -0.2095
     16  C5A       20.2140  -26.3840   -4.4490 C.2   207  NAP207      0.2526
     17  C6A       19.5210  -27.0580   -3.4480 C.2   207  NAP207      0.4393
     18  N6A       18.3630  -26.5900   -2.9970 N.pl3 207  NAP207      0.2180
     19  N1A       20.0410  -28.2240   -2.9200 N.2   207  NAP207      0.0021
     20  C2A       21.2510  -28.7120   -3.3800 C.3   207  NAP207      0.5254
     21  N3A       21.9350  -28.0360   -4.3660 N.2   207  NAP207     -0.0055
     22  C4A       21.4250  -26.8940   -4.8960 C.2   207  NAP207      0.3518
     23  O3        23.2610  -21.8430  -11.3800 O.3   207  NAP207     -0.2703
     24  PN        22.3690  -21.0420  -12.4570 P.3   207  NAP207      0.2189
     25  O1N       22.5250  -21.6690  -13.7910 O.2   207  NAP207     -0.5170
     26  O2N       21.0190  -20.9390  -11.8770 O.3   207  NAP207     -0.4371
     27  O5D       23.0620  -19.5870  -12.5340 O.3   207  NAP207     -0.3112
     28  C5D       24.3950  -19.4200  -12.9800 C.3   207  NAP207      0.1813
     29  C4D       24.5130  -18.1240  -13.7790 C.3   207  NAP207      0.1799
     30  O4D       24.2440  -17.0060  -12.9560 O.3   207  NAP207     -0.3327
     31  C3D       25.9010  -17.8820  -14.3590 C.3   207  NAP207      0.2158
     32  O3D       25.7190  -17.4760  -15.6940 O.3   207  NAP207     -0.2175
     33  C2D       26.4920  -16.7200  -13.5740 C.3   207  NAP207      0.2309
     34  O2D       27.2990  -15.8860  -14.3760 O.3   207  NAP207     -0.2158
     35  C1D       25.2370  -15.9940  -13.1320 C.3   207  NAP207      0.2263
     36  N1N       25.3540  -15.1550  -11.9190 N.pl3 207  NAP207     -0.2787
     37  C2N       25.0980  -13.8130  -12.0350 C.3   207  NAP207      0.1244
     38  C3N       25.1560  -12.9590  -10.9200 C.2   207  NAP207      0.0544
     39  C7N       25.0180  -11.4690  -11.1040 C.2   207  NAP207      0.2818
     40  O7N       24.8890  -10.6200   -9.9920 O.2   207  NAP207     -0.2670
     41  N7N       25.0120  -10.9650  -12.3360 N.am  207  NAP207     -0.0839
     42  C4N       25.4680  -13.4980   -9.6690 C.2   207  NAP207      0.0033
     43  C5N       25.7220  -14.8680   -9.5670 C.2   207  NAP207      0.0157
     44  C6N       25.6530  -15.6900  -10.6910 C.2   207  NAP207      0.0633
     45  P2B       24.4740  -29.3420   -8.2740 P.3   207  NAP207      0.5328
     46  O1X       23.9840  -29.4770   -9.6950 O.2   207  NAP207     -0.2224
     47  O2X       25.9580  -29.6180   -8.2230 O.3   207  NAP207     -0.1145
     48  O3X       23.7100  -30.2460   -7.3270 O.3   207  NAP207     -0.1145
@<TRIPOS>BOND
     1    32    31    1
     2    34    33    1
     3    31    29    1
     4    31    33    1
     5    25    24    2
     6    29    28    1
     7    29    30    1
     8    33    35    1
     9    35    30    1
    10    35    36    1
    11    28    27    1
    12    27    24    1
    13    24    26    1
    14    24    23    1
    15    41    39   am
    16    37    36    1
    17    37    38    1
    18    36    44    1
    19    23     1    1
    20    39    38    1
    21    39    40    2
    22    38    42    2
    23    44    43    2
    24     9     8    1
    25     1     3    2
    26     1     4    1
    27     1     2    1
    28    46    45    2
    29    42    43    1
    30     5     4    1
    31     5     6    1
    32     8     6    1
    33     8    10    1
    34     6     7    1
    35    45    47    1
    36    45    11    1
    37    45    48    1
    38    11    10    1
    39    10    12    1
    40     7    12    1
    41    12    13    1
    42    14    13    1
    43    14    15    1
    44    13    22    1
    45    15    16    2
    46    22    16    1
    47    22    21    2
    48    16    17    1
    49    21    20    1
    50    17    18    1
    51    17    19    2
    52    20    19    1
