@<TRIPOS>MOLECULE
3sgz_HO6_A_1.pdb
 16 17 0 0 0
SMALL
GASTEIGER

@<TRIPOS>ATOM
      1  C1        10.8070  -35.0010  -15.9160 C.ar  402  HO6402     -0.0218
      2  N1         6.6050  -30.9900  -20.1050 N.2   402  HO6402     -0.1482
      3  O1         5.8640  -28.5840  -19.0390 O.co2 402  HO6402     -0.2391
      4  S1         7.8330  -31.5340  -16.3240 S.3   402  HO6402     -0.0954
      5  C2        11.3130  -33.6860  -15.9590 C.ar  402  HO6402     -0.0038
      6  N2         7.1460  -32.2080  -20.4000 N.pl3 402  HO6402     -0.0826
      7  O2         6.3620  -29.2210  -17.0180 O.co2 402  HO6402     -0.2391
      8  S2         7.8140  -32.9550  -19.0510 S.3   402  HO6402      0.0118
      9  C3        10.4030  -32.6060  -16.0850 C.ar  402  HO6402      0.0059
     10  C4         9.0140  -32.8600  -16.1700 C.ar  402  HO6402      0.0264
     11  C5         8.5430  -34.1810  -16.1160 C.ar  402  HO6402      0.0059
     12  C6         9.4440  -35.2590  -15.9880 C.ar  402  HO6402     -0.0038
     13  C7         7.1760  -31.7580  -18.0250 C.3   402  HO6402      0.1686
     14  C8         6.7120  -30.7190  -18.6900 C.2   402  HO6402      0.1798
     15  C9         6.2830  -29.4230  -18.2210 C.2   402  HO6402      0.4044
     16  CL        11.8380  -36.3500  -15.7820 C.3   402  HO6402      0.0310
@<TRIPOS>BOND
     1     6     2    1
     2     6     8    1
     3     2    14    2
     4     8    13    1
     5     3    15   ar
     6    14    15    1
     7    14    13    1
     8    15     7   ar
     9    13     4    1
    10     4    10    1
    11    10    11   ar
    12    10     9   ar
    13    11    12   ar
    14     9     5   ar
    15    12     1   ar
    16     5     1   ar
    17     1    16    1
