@<TRIPOS>MOLECULE
3sgz_FMN_A_1.pdb
 31 33 0 0 0
SMALL
GASTEIGER

@<TRIPOS>ATOM
      1  N1         2.9370  -30.8910  -22.2070 N.2   401  FMN401     -0.2890
      2  C2         3.2540  -32.1170  -22.7200 C.1   401  FMN401      0.3669
      3  O2         3.1890  -32.3420  -23.9000 O.2   401  FMN401     -0.1744
      4  N3         3.6120  -33.0770  -21.7400 N.2   401  FMN401     -0.2300
      5  C4         3.6740  -32.8970  -20.3710 C.1   401  FMN401      0.2513
      6  O4         3.9910  -33.8710  -19.6790 O.2   401  FMN401     -0.2057
      7  C4A        3.3230  -31.6050  -19.9740 C.2   401  FMN401      0.2700
      8  N5         3.3250  -31.3960  -18.5940 N.2   401  FMN401     -0.3878
      9  C5A        2.8600  -30.1640  -18.1420 C.2   401  FMN401      0.1320
     10  C6         2.7780  -29.9700  -16.7580 C.2   401  FMN401      0.0250
     11  C7         2.2220  -28.7910  -16.2680 C.2   401  FMN401     -0.0238
     12  C7M        2.1030  -28.6320  -14.7570 C.3   401  FMN401      0.0308
     13  C8         1.7710  -27.7920  -17.1620 C.2   401  FMN401     -0.0280
     14  C8M        1.1170  -26.5260  -16.6670 C.3   401  FMN401      0.0304
     15  C9         1.8830  -27.9420  -18.5390 C.2   401  FMN401     -0.0041
     16  C9A        2.4330  -29.1340  -19.0630 C.3   401  FMN401      0.1497
     17  N10        2.5080  -29.3690  -20.4610 N.pl3 401  FMN401     -0.2691
     18  C10        2.9320  -30.5980  -20.8990 C.2   401  FMN401      0.2416
     19  C1'        2.0920  -28.4100  -21.4280 C.3   401  FMN401      0.1294
     20  C2'        0.5130  -28.4540  -21.5950 C.3   401  FMN401      0.2044
     21  O2'        0.1690  -29.6230  -22.3750 O.3   401  FMN401     -0.2185
     22  C3'       -0.0940  -27.2710  -22.3190 C.3   401  FMN401      0.2164
     23  O3'        0.6170  -27.1680  -23.6440 O.3   401  FMN401     -0.2175
     24  C4'        0.1150  -25.9780  -21.6930 C.3   401  FMN401      0.2147
     25  O4'       -0.1570  -26.0230  -20.2580 O.3   401  FMN401     -0.2176
     26  C5'       -0.6360  -24.7990  -22.3370 C.3   401  FMN401      0.1892
     27  O5'       -2.0950  -24.8710  -22.0400 O.3   401  FMN401     -0.2674
     28  P         -2.7190  -23.9540  -20.8720 P.3   401  FMN401      0.5327
     29  O1P       -2.5200  -22.5130  -21.2490 O.2   401  FMN401     -0.2224
     30  O2P       -2.0440  -24.2570  -19.5620 O.3   401  FMN401     -0.1145
     31  O3P       -4.1370  -24.3400  -20.9210 O.3   401  FMN401     -0.1145
@<TRIPOS>BOND
     1     3     2    2
     2    23    22    1
     3     2     1    2
     4     2     4    2
     5    21    20    1
     6    26    27    1
     7    26    24    1
     8    22    24    1
     9    22    20    1
    10     1    18    2
    11    27    28    1
    12     4     5    2
    13    24    25    1
    14    20    19    1
    15    19    17    1
    16    29    28    2
    17    31    28    1
    18    18    17    1
    19    18     7    1
    20    28    30    1
    21    17    16    1
    22     5     7    1
    23     5     6    2
    24     7     8    2
    25    16    15    1
    26    16     9    1
    27     8     9    2
    28    15    13    2
    29     9    10    1
    30    13    14    1
    31    13    11    1
    32    10    11    2
    33    11    12    1
