@<TRIPOS>MOLECULE
3sh0_SAX_A_1.pdb
 23 23 0 0 0
SMALL
GASTEIGER

@<TRIPOS>ATOM
      1  C1        27.1350   17.7490   26.5250 C.ar  2001  SAX2001     0.1523
      2  O1        27.1020   19.8090   25.2600 O.3   2001  SAX2001    -0.2862
      3  C2        26.4500   18.8700   26.0140 C.ar  2001  SAX2001     0.2050
      4  O2        26.7960   15.6480   27.8830 O.3   2001  SAX2001    -0.4751
      5  C3        25.0880   19.0800   26.2700 C.ar  2001  SAX2001     0.0425
      6  O3        29.4400   16.8890   26.7100 O.co2 2001  SAX2001    -0.2403
      7  C4        24.3730   18.1450   27.0150 C.ar  2001  SAX2001     0.0064
      8  O4        29.0930   18.4850   25.3510 O.co2 2001  SAX2001    -0.2403
      9  C5        25.0210   17.0350   27.5270 C.ar  2001  SAX2001     0.0373
     10  C6        26.3770   16.8190   27.2970 C.ar  2001  SAX2001     0.1480
     11  C7        27.9860   15.4440   28.6580 C.3   2001  SAX2001     0.2054
     12  C8        27.9600   13.9610   28.9960 C.3   2001  SAX2001     0.0473
     13  C9        26.4830   13.6080   29.0180 C.3   2001  SAX2001     0.0038
     14  C10       26.3000   12.2600   29.6880 C.3   2001  SAX2001     0.0001
     15  C11       25.2140   11.5380   28.9330 C.3   2001  SAX2001     0.0000
     16  C12       25.3220   10.0560   29.2460 C.3   2001  SAX2001     0.0000
     17  C13       23.9450    9.4650   29.3780 C.3   2001  SAX2001     0.0000
     18  C14       23.4550    9.7570   30.7800 C.3   2001  SAX2001     0.0000
     19  C15       22.3940    8.7170   31.0870 C.3   2001  SAX2001     0.0000
     20  C16       22.5230    8.3040   32.5420 C.3   2001  SAX2001     0.0000
     21  C17       21.1650    8.3000   33.2120 C.3   2001  SAX2001     0.0000
     22  C18       20.5550    6.9310   33.4690 C.3   2001  SAX2001     0.0000
     23  C19       28.6350   17.6810   26.1830 C.2   2001  SAX2001     0.3938
@<TRIPOS>BOND
     1     2     3    1
     2     8    23   ar
     3     3     5   ar
     4     3     1   ar
     5    23     1    1
     6    23     6   ar
     7     5     7   ar
     8     1    10   ar
     9     7     9   ar
    10    10     9   ar
    11    10     4    1
    12     4    11    1
    13    11    12    1
    14    15    16    1
    15    15    14    1
    16    12    13    1
    17    13    14    1
    18    16    17    1
    19    17    18    1
    20    18    19    1
    21    19    20    1
    22    20    21    1
    23    21    22    1
