@<TRIPOS>MOLECULE
3sh1_MLK_A_1.pdb
 49 56 0 0 0
SMALL
GASTEIGER

@<TRIPOS>ATOM
      1  O8        24.5880  -35.3950   14.3890 O.2   301  MLK301     -0.2741
      2  C8        24.5210  -36.0530   15.4200 C.2   301  MLK301      0.2356
      3  C9        23.4140  -37.0180   15.8060 C.3   301  MLK301      0.0951
      4  C10       24.2210  -38.0370   16.6280 C.3   301  MLK301      0.0865
      5  C12       23.3310  -38.8500   17.5730 C.3   301  MLK301      0.0101
      6  C11       25.1730  -37.0660   17.3000 C.2   301  MLK301      0.2351
      7  O11       25.6250  -37.1470   18.4210 O.2   301  MLK301     -0.2741
      8  N7        25.4330  -36.0850   16.4150 N.am  301  MLK301     -0.2079
      9  C6        26.5440  -35.2100   16.4920 C.ar  301  MLK301      0.0668
     10  C5        27.8330  -35.7470   16.4610 C.ar  301  MLK301      0.0155
     11  C4        28.9570  -34.9460   16.5210 C.ar  301  MLK301      0.0013
     12  C3        28.8090  -33.5720   16.6090 C.ar  301  MLK301      0.0003
     13  C2        27.5510  -33.0040   16.6320 C.ar  301  MLK301      0.0077
     14  C1        26.3970  -33.8000   16.5710 C.ar  301  MLK301      0.0897
     15  C13       25.0640  -33.1420   16.5960 C.2   301  MLK301      0.3424
     16  O13       24.0460  -33.7900   16.7600 O.2   301  MLK301     -0.2448
     17  O14       24.9630  -31.8070   16.4250 O.3   301  MLK301     -0.4454
     18  C15       23.6660  -31.1540   16.3780 C.3   301  MLK301      0.2100
     19  C16       23.9490  -29.6690   16.1690 C.3   301  MLK301      0.0577
     20  C21       24.9120  -29.2450   17.2720 C.3   301  MLK301      0.0075
     21  C20       26.0080  -28.2940   16.7690 C.3   301  MLK301      0.0298
     22  C19       25.5420  -27.3330   15.6830 C.3   301  MLK301      0.1166
     23  O19       24.7980  -26.2600   16.2610 O.3   301  MLK301     -0.3535
     24  C22       25.7290  -25.5150   17.0580 C.3   301  MLK301      0.1740
     25  C18       24.7760  -27.9680   14.5520 C.3   301  MLK301      0.0436
     26  C17       24.5850  -29.4790   14.7680 C.3   301  MLK301      0.0382
     27  C26       23.2890  -27.5150   14.3750 C.3   301  MLK301      0.0926
     28  N23       22.6100  -27.5840   15.6560 N.3   301  MLK301     -0.2715
     29  C24       21.2330  -27.1310   15.4830 C.3   301  MLK301      0.0722
     30  C25       21.0580  -25.6800   15.9320 C.3   301  MLK301      0.0188
     31  C23       22.6410  -28.8730   16.3200 C.3   301  MLK301      0.0757
     32  C30       25.5420  -27.6350   13.2840 C.3   301  MLK301      0.0086
     33  C33       25.6350  -26.1160   13.0770 C.3   301  MLK301      0.0051
     34  C34       25.2550  -25.8660   11.5900 C.3   301  MLK301      0.0546
     35  C35       23.7410  -25.5490   11.5780 C.3   301  MLK301      0.1201
     36  O35       23.4150  -24.6460   10.5190 O.3   301  MLK301     -0.3534
     37  C37       23.0840  -23.3940   11.1300 C.3   301  MLK301      0.1740
     38  C36       22.8270  -26.7710   11.6150 C.3   301  MLK301      0.0627
     39  C31       24.9320  -28.2120   11.9790 C.3   301  MLK301      0.0580
     40  C38       25.4640  -27.2310   10.8930 C.3   301  MLK301      0.1200
     41  O38       24.7530  -27.3460    9.6700 O.3   301  MLK301     -0.3534
     42  C39       25.6550  -26.9200    8.6500 C.3   301  MLK301      0.1740
     43  C32       23.4100  -28.1450   11.9370 C.3   301  MLK301      0.1601
     44  O32       22.9260  -29.0990   10.9550 O.3   301  MLK301     -0.2228
     45  C27       22.8100  -28.5560   13.3110 C.3   301  MLK301      0.1900
     46  O27       21.3890  -28.7050   13.1720 O.3   301  MLK301     -0.2192
     47  C28       23.4430  -29.8900   13.7990 C.3   301  MLK301      0.1469
     48  O28       23.9230  -30.7580   12.7760 O.3   301  MLK301     -0.3509
     49  C29       24.8600  -31.6570   13.3880 C.3   301  MLK301      0.1741
@<TRIPOS>BOND
     1    42    41    1
     2    41    40    1
     3    36    37    1
     4    36    35    1
     5    40    34    1
     6    40    39    1
     7    44    43    1
     8    35    34    1
     9    35    38    1
    10    34    33    1
    11    38    43    1
    12    43    39    1
    13    43    45    1
    14    39    32    1
    15    48    49    1
    16    48    47    1
    17    33    32    1
    18    46    45    1
    19    32    25    1
    20    45    47    1
    21    45    27    1
    22    47    26    1
    23    27    25    1
    24    27    28    1
    25     1     2    2
    26    25    26    1
    27    25    22    1
    28    26    19    1
    29     2     3    1
    30     2     8   am
    31    29    28    1
    32    29    30    1
    33    28    31    1
    34    22    23    1
    35    22    21    1
    36     3     4    1
    37    19    31    1
    38    19    18    1
    39    19    20    1
    40    23    24    1
    41    18    17    1
    42     8     9    1
    43     8     6   am
    44    17    15    1
    45    10     9   ar
    46    10    11   ar
    47     9    14   ar
    48    11    12   ar
    49    14    15    1
    50    14    13   ar
    51    15    16    2
    52    12    13   ar
    53     4     6    1
    54     4     5    1
    55    21    20    1
    56     6     7    2
