@<TRIPOS>MOLECULE
3sh2_NAP_A_1.pdb
 48 52 0 0 0
SMALL
GASTEIGER

@<TRIPOS>ATOM
      1  PA         1.3680  -32.3090    6.4770 P.3   207  NAP207      0.2189
      2  O1A        1.4320  -30.9390    5.9210 O.3   207  NAP207     -0.4371
      3  O2A        0.3160  -33.1200    5.8340 O.2   207  NAP207     -0.5170
      4  O5B        2.7940  -33.0230    6.3550 O.3   207  NAP207     -0.3112
      5  C5B        3.4700  -32.9910    5.1290 C.3   207  NAP207      0.1813
      6  C4B        4.2800  -34.2620    5.0110 C.3   207  NAP207      0.1820
      7  O4B        4.3630  -34.6220    3.6450 O.3   207  NAP207     -0.3136
      8  C3B        5.6970  -34.0460    5.5120 C.3   207  NAP207      0.2157
      9  O3B        5.8530  -34.5440    6.8220 O.3   207  NAP207     -0.2175
     10  C2B        6.5280  -34.8200    4.5170 C.3   207  NAP207      0.2314
     11  O2B        6.5780  -36.1470    4.9970 O.3   207  NAP207     -0.2630
     12  C1B        5.7110  -34.7410    3.2370 C.3   207  NAP207      0.3158
     13  N9A        6.1140  -33.5520    2.4490 N.pl3 207  NAP207     -0.1439
     14  C8A        5.6420  -32.2690    2.5890 C.3   207  NAP207      0.3377
     15  N7A        6.2560  -31.4680    1.6930 N.2   207  NAP207     -0.2095
     16  C5A        7.1170  -32.2180    0.9740 C.2   207  NAP207      0.2526
     17  C6A        7.9870  -31.9020   -0.0640 C.2   207  NAP207      0.4393
     18  N6A        8.0620  -30.6510   -0.5100 N.pl3 207  NAP207      0.2180
     19  N1A        8.7680  -32.8940   -0.6290 N.2   207  NAP207      0.0021
     20  C2A        8.6840  -34.1930   -0.1590 C.3   207  NAP207      0.5254
     21  N3A        7.8150  -34.4990    0.8740 N.2   207  NAP207     -0.0055
     22  C4A        7.0410  -33.5300    1.4340 C.2   207  NAP207      0.3518
     23  O3         1.1760  -32.2770    8.0660 O.3   207  NAP207     -0.2703
     24  PN         1.6050  -31.1940    9.1690 P.3   207  NAP207      0.2189
     25  O1N        2.0310  -31.9390   10.3780 O.3   207  NAP207     -0.4371
     26  O2N        2.4960  -30.1920    8.5360 O.2   207  NAP207     -0.5170
     27  O5D        0.1820  -30.5130    9.4780 O.3   207  NAP207     -0.3112
     28  C5D       -0.9540  -31.3300    9.6560 C.3   207  NAP207      0.1813
     29  C4D       -1.8190  -30.7240   10.7490 C.3   207  NAP207      0.1799
     30  O4D       -2.6020  -29.6880   10.1960 O.3   207  NAP207     -0.3327
     31  C3D       -2.7630  -31.7380   11.3660 C.3   207  NAP207      0.2158
     32  O3D       -2.6820  -31.6140   12.7670 O.3   207  NAP207     -0.2175
     33  C2D       -4.1420  -31.3490   10.8720 C.3   207  NAP207      0.2309
     34  O2D       -5.0950  -31.4160   11.9070 O.3   207  NAP207     -0.2158
     35  C1D       -3.9820  -29.9110   10.4060 C.3   207  NAP207      0.2263
     36  N1N       -4.7280  -29.6030    9.1680 N.pl3 207  NAP207     -0.2787
     37  C2N       -5.7150  -28.6570    9.2340 C.3   207  NAP207      0.1244
     38  C3N       -6.4500  -28.3090    8.1040 C.2   207  NAP207      0.0544
     39  C7N       -7.3990  -27.1480    8.1680 C.2   207  NAP207      0.2818
     40  O7N       -7.7410  -26.4680    6.9850 O.2   207  NAP207     -0.2670
     41  N7N       -7.8990  -26.7790    9.3460 N.am  207  NAP207     -0.0839
     42  C4N       -6.1660  -28.9320    6.8900 C.2   207  NAP207      0.0033
     43  C5N       -5.1570  -29.8920    6.8250 C.2   207  NAP207      0.0157
     44  C6N       -4.4380  -30.2190    7.9760 C.2   207  NAP207      0.0633
     45  P2B        7.1710  -37.4180    4.2050 P.3   207  NAP207      0.5328
     46  O1X        8.1160  -38.1180    5.1530 O.3   207  NAP207     -0.1145
     47  O2X        6.0400  -38.3490    3.8460 O.3   207  NAP207     -0.1145
     48  O3X        7.9110  -37.0040    2.9520 O.2   207  NAP207     -0.2224
@<TRIPOS>BOND
     1    19    20    1
     2    19    17    2
     3    18    17    1
     4    20    21    1
     5    17    16    1
     6    21    22    2
     7    16    22    1
     8    16    15    2
     9    22    13    1
    10    15    14    1
    11    13    14    1
    12    13    12    1
    13    48    45    2
    14    12     7    1
    15    12    10    1
    16     7     6    1
    17    47    45    1
    18    45    11    1
    19    45    46    1
    20    10    11    1
    21    10     8    1
    22     6     5    1
    23     6     8    1
    24     5     4    1
    25     8     9    1
    26     3     1    2
    27     2     1    1
    28     4     1    1
    29     1    23    1
    30    43    42    1
    31    43    44    2
    32    42    38    2
    33    40    39    2
    34    44    36    1
    35    23    24    1
    36    38    39    1
    37    38    37    1
    38    39    41   am
    39    26    24    2
    40    36    37    1
    41    36    35    1
    42    24    27    1
    43    24    25    1
    44    27    28    1
    45    28    29    1
    46    30    35    1
    47    30    29    1
    48    35    33    1
    49    29    31    1
    50    33    31    1
    51    33    34    1
    52    31    32    1
