@<TRIPOS>MOLECULE
3sh2_5DR_A_1.pdb
 27 29 0 0 0
SMALL
GASTEIGER

@<TRIPOS>ATOM
      1  N1       -10.0250  -26.6590    4.4060 N.2   168  5DR168     -0.3105
      2  C2       -11.1900  -26.3490    4.9980 C.1   168  5DR168      0.2419
      3  N3       -11.7480  -27.1870    5.8870 N.2   168  5DR168     -0.3332
      4  C4       -11.1700  -28.3540    6.2240 C.2   168  5DR168      0.1203
      5  C5        -9.9560  -28.6940    5.6190 C.3   168  5DR168      0.1831
      6  C6        -9.3940  -27.8110    4.6950 C.2   168  5DR168      0.2282
      7  CAA      -12.6740  -30.3380    6.5530 C.3   168  5DR168      0.0076
      8  CAB       -7.2940  -33.3160   10.1770 C.3   168  5DR168      0.2525
      9  NAC      -11.8030  -25.2080    4.7040 N.pl3 168  5DR168     -0.0232
     10  NAD       -8.2380  -28.0950    4.0990 N.pl3 168  5DR168     -0.0955
     11  CAE       -8.7410  -30.9910    6.2220 C.1   168  5DR168     -0.0853
     12  CAF       -9.3000  -29.9310    5.9430 C.1   168  5DR168     -0.0760
     13  CAG      -14.9930  -35.0660    5.8210 C.ar  168  5DR168      0.0000
     14  CAH      -13.9360  -34.8180    4.9450 C.ar  168  5DR168     -0.0000
     15  CAI      -14.7640  -35.1000    7.1970 C.ar  168  5DR168     -0.0000
     16  CAJ      -12.6500  -34.6050    5.4450 C.ar  168  5DR168     -0.0000
     17  CAK      -13.4780  -34.8840    7.6960 C.ar  168  5DR168     -0.0000
     18  CAL      -10.6840  -35.1620    8.4300 C.ar  168  5DR168      0.0031
     19  CAM       -9.4020  -34.9710    8.9390 C.ar  168  5DR168      0.0366
     20  CAN      -10.2490  -33.4970    6.7420 C.ar  168  5DR168     -0.0003
     21  CAO      -11.9040  -29.2170    7.2500 C.3   168  5DR168      0.0569
     22  CAP       -8.0570  -32.2540    6.5450 C.3   168  5DR168      0.1053
     23  OAS       -7.2860  -33.8660    8.8580 O.3   168  5DR168     -0.4717
     24  CAV      -12.4100  -34.6320    6.8240 C.ar  168  5DR168     -0.0000
     25  CAW      -11.1190  -34.4250    7.3280 C.ar  168  5DR168     -0.0001
     26  CAX       -8.9580  -33.2890    7.2450 C.ar  168  5DR168      0.0248
     27  CAZ       -8.5440  -34.0380    8.3530 C.ar  168  5DR168      0.1356
@<TRIPOS>BOND
     1    10     6    1
     2     1     6    2
     3     1     2    2
     4     6     5    1
     5     9     2    1
     6    14    16   ar
     7    14    13   ar
     8     2     3    2
     9    16    24   ar
    10     5    12    1
    11     5     4    1
    12    13    15   ar
    13     3     4    2
    14    12    11    3
    15    11    22    1
    16     4    21    1
    17    22    26    1
    18     7    21    1
    19    20    26   ar
    20    20    25   ar
    21    24    25    1
    22    24    17   ar
    23    15    17   ar
    24    26    27   ar
    25    25    18   ar
    26    27    23    1
    27    27    19   ar
    28    18    19   ar
    29    23     8    1
