@<TRIPOS>MOLECULE
3sh3_XMM_A_1.pdb
 23 25 0 0 0
SMALL
GASTEIGER

@<TRIPOS>ATOM
      1  O2        -3.7180  -22.9110   21.6010 O.3   242  XMM242     -0.2149
      2  C2        -4.1500  -23.0720   22.9430 C.3   242  XMM242      0.2406
      3  C3        -5.2360  -22.2170   23.2530 C.3   242  XMM242      0.2198
      4  O3        -4.9700  -20.8610   22.9610 O.3   242  XMM242     -0.2174
      5  C4        -6.4900  -22.6930   22.6830 C.3   242  XMM242      0.2144
      6  O4        -7.5880  -21.8900   23.0720 O.3   242  XMM242     -0.2176
      7  C5        -6.7130  -24.1130   22.8050 C.3   242  XMM242      0.1835
      8  O5        -5.5790  -24.9170   22.6900 O.3   242  XMM242     -0.3256
      9  C6        -7.8810  -24.6190   21.9480 C.3   242  XMM242      0.2142
     10  O6        -7.6360  -24.7940   20.5800 O.3   242  XMM242     -0.2176
     11  C1        -4.4230  -24.4100   23.3150 C.3   242  XMM242      0.2697
     12  O1        -4.5050  -24.5450   24.7320 O.3   242  XMM242     -0.3244
     13  C7        -5.0060  -25.8370   25.0350 C.3   242  XMM242      0.1662
     14  C8        -4.2120  -26.7520   25.6280 C.2   242  XMM242      0.0311
     15  C9        -5.0920  -27.7630   26.2260 C.2   242  XMM242      0.0573
     16  N1        -6.4100  -27.3620   25.9490 N.2   242  XMM242     -0.2716
     17  C11       -6.4010  -26.0540   25.5490 C.3   242  XMM242      0.1592
     18  C10       -2.7500  -26.8870   25.7250 C.2   242  XMM242      0.0630
     19 CL         -1.7470  -25.6040   24.9880 Cl    242  XMM242     -0.0820
     20  C13       -2.1700  -27.9780   26.3940 C.2   242  XMM242      0.0410
     21 BR         -0.2240  -28.1430   26.4990 Br    242  XMM242     -0.0485
     22  C14       -3.0580  -29.0080   27.0070 C.2   242  XMM242     -0.0123
     23  C12       -4.5130  -28.8730   26.9050 C.3   242  XMM242      0.0716
@<TRIPOS>BOND
     1    10     9    1
     2     1     2    1
     3     9     7    1
     4     5     7    1
     5     5     6    1
     6     5     3    1
     7     8     7    1
     8     8    11    1
     9     2     3    1
    10     2    11    1
    11     4     3    1
    12    11    12    1
    13    12    13    1
    14    19    18    1
    15    13    17    1
    16    13    14    1
    17    17    16    1
    18    14    18    2
    19    14    15    1
    20    18    20    1
    21    16    15    2
    22    15    23    1
    23    20    21    1
    24    20    22    2
    25    23    22    1
