@<TRIPOS>MOLECULE
3sh7_BB0_A_1.pdb
 16 17 0 0 0
SMALL
GASTEIGER

@<TRIPOS>ATOM
      1  NAB       -9.2250   -6.9940  -12.1820 N.pl3   2  BB02       -0.3041
      2  CAF       -2.5520   -2.8840  -11.5680 C.2     2  BB02        0.1735
      3  CAG       -3.9190   -3.4970  -11.6800 C.ar    2  BB02        0.0347
      4  CAH       -5.0370   -2.6590  -11.6540 C.ar    2  BB02        0.0028
      5  CAI       -6.3180   -3.1910  -11.7510 C.ar    2  BB02        0.0001
      6  CAJ       -6.4820   -4.5680  -11.8690 C.ar    2  BB02        0.0012
      7  CAK       -5.3670   -5.4130  -11.8930 C.ar    2  BB02        0.0002
      8  CAL       -4.0800   -4.8820  -11.7990 C.ar    2  BB02        0.0028
      9  CAM       -7.7670   -5.0960  -11.9670 C.ar    2  BB02        0.0145
     10  CAN       -7.9590   -6.4770  -12.0850 C.ar    2  BB02        0.0479
     11  CAO       -6.8350   -7.3130  -12.1050 C.ar    2  BB02        0.0145
     12  CAP       -5.5470   -6.7850  -12.0120 C.ar    2  BB02        0.0013
     13  CAQ      -10.3950   -6.1220  -12.1650 C.3     2  BB02        0.1122
     14  CAR       -9.4610   -8.4250  -12.3020 C.3     2  BB02        0.1122
     15  CAS       -1.3720   -3.7690  -11.2800 C.3     2  BB02        0.0773
     16  OAU       -2.4290   -1.6700  -11.7000 O.2     2  BB02       -0.2913
@<TRIPOS>BOND
     1    14     1    1
     2     1    13    1
     3     1    10    1
     4    11    10   ar
     5    11    12   ar
     6    10     9   ar
     7    12     7   ar
     8     9     6   ar
     9     7     6   ar
    10     7     8   ar
    11     6     5   ar
    12     8     3   ar
    13     5     4   ar
    14    16     2    2
    15     3     4   ar
    16     3     2    1
    17     2    15    1
