@<TRIPOS>MOLECULE
3sh8_CED_A_1.pdb
 22 23 0 0 0
SMALL
GASTEIGER

@<TRIPOS>ATOM
      1  S1        -4.9170   -9.2460   -8.0260 S.3     1  CED1       -0.0877
      2  C2        -6.3020  -10.1580   -7.8780 C.2     1  CED1        0.0302
      3  C3        -6.2990  -11.5040   -8.0050 C.2     1  CED1        0.0081
      4  C3'       -7.4350  -12.1110   -7.6990 C.3     1  CED1        0.0333
      5  C4        -5.2260  -12.2150   -8.4320 C.2     1  CED1        0.1531
      6  C4'       -5.1320  -13.5630   -8.3880 C.2     1  CED1        0.4044
      7  O4A       -4.1020  -14.1250   -8.8170 O.co2   1  CED1       -0.2389
      8  O4B       -6.0480  -14.2710   -7.9220 O.co2   1  CED1       -0.2389
      9  N5        -4.1510  -11.6130   -8.9660 N.2     1  CED1       -0.2525
     10  C6        -3.8090  -10.1880   -9.0100 C.3     1  CED1        0.1821
     11  C7        -3.8120   -9.7980  -10.5010 C.3     1  CED1        0.1923
     12  C8        -3.5470  -11.0260  -11.3290 C.2     1  CED1        0.2316
     13  O9        -4.4090  -11.5960  -11.9760 O.2     1  CED1       -0.2863
     14  N10       -5.0440   -9.2200  -11.0250 N.am    1  CED1       -0.1959
     15  C11       -5.1850   -7.9160  -11.2470 C.2     1  CED1        0.2468
     16  O12       -4.3230   -7.0930  -10.9850 O.2     1  CED1       -0.2729
     17  C13       -6.5010   -7.4810  -11.8480 C.3     1  CED1        0.1196
     18  C14       -7.6300   -7.6200  -10.8580 C.ar    1  CED1        0.0165
     19  C15       -7.8360   -6.9820   -9.8060 C.ar    1  CED1        0.0032
     20  C16       -8.8980   -7.2700   -8.9580 C.ar    1  CED1        0.0072
     21  C17       -9.8300   -8.2060   -9.4830 C.ar    1  CED1        0.0351
     22  S19       -8.9560   -8.6730  -10.8950 S.2     1  CED1       -0.0903
@<TRIPOS>BOND
     1    13    12    2
     2    17    15    1
     3    17    18    1
     4    12    11    1
     5    15    14   am
     6    15    16    2
     7    14    11    1
     8    22    18   ar
     9    22    21   ar
    10    18    19   ar
    11    11    10    1
    12    19    20   ar
    13    21    20   ar
    14    10     9    1
    15    10     1    1
    16     9     5    2
    17     7     6   ar
    18     5     6    1
    19     5     3    1
    20     6     8   ar
    21     1     2    1
    22     3     2    2
    23     3     4    1
