@<TRIPOS>MOLECULE
3sh9_BB0_A_1.pdb
 16 17 0 0 0
SMALL
GASTEIGER

@<TRIPOS>ATOM
      1  NAB        3.7190   -2.6500   17.2600 N.pl3   2  BB02       -0.3041
      2  CAF       11.3860   -1.6300   18.8100 C.2     2  BB02        0.1735
      3  CAG        9.9420   -1.6580   18.3740 C.ar    2  BB02        0.0347
      4  CAH        9.4870   -0.7380   17.4220 C.ar    2  BB02        0.0028
      5  CAI        8.1550   -0.7470   17.0040 C.ar    2  BB02        0.0001
      6  CAJ        7.2680   -1.6790   17.5390 C.ar    2  BB02        0.0012
      7  CAK        7.7180   -2.5990   18.4920 C.ar    2  BB02        0.0002
      8  CAL        9.0480   -2.5900   18.9070 C.ar    2  BB02        0.0028
      9  CAM        5.9330   -1.6920   17.1250 C.ar    2  BB02        0.0145
     10  CAN        5.0320   -2.6230   17.6560 C.ar    2  BB02        0.0479
     11  CAO        5.5020   -3.5360   18.6070 C.ar    2  BB02        0.0145
     12  CAP        6.8320   -3.5290   19.0270 C.ar    2  BB02        0.0013
     13  CAQ        3.2090   -1.7100   16.2690 C.3     2  BB02        0.1122
     14  CAR        2.7740   -3.6160   17.8100 C.3     2  BB02        0.1122
     15  CAS       11.8950   -2.6060   19.8300 C.3     2  BB02        0.0773
     16  OAU       12.1400   -0.8040   18.3240 O.2     2  BB02       -0.2913
@<TRIPOS>BOND
     1    13     1    1
     2     5     4   ar
     3     5     6   ar
     4     9     6   ar
     5     9    10   ar
     6     1    10    1
     7     1    14    1
     8     4     3   ar
     9     6     7   ar
    10    10    11   ar
    11    16     2    2
    12     3     2    1
    13     3     8   ar
    14     7     8   ar
    15     7    12   ar
    16    11    12   ar
    17     2    15    1
