@<TRIPOS>MOLECULE
3sh9_PCZ_A_1.pdb
 26 27 0 0 0
SMALL
GASTEIGER

@<TRIPOS>ATOM
      1  O1         9.3650  -11.8660   19.5420 O.2     3  PCZ3       -0.2863
      2  C1        10.1400  -11.3060   20.3010 C.2     3  PCZ3        0.2316
      3  C2         9.8170   -9.9840   20.9750 C.3     3  PCZ3        0.1923
      4  C3         9.6660  -10.2370   22.4850 C.3     3  PCZ3        0.1784
      5  C5         7.1460  -11.4620   23.4900 C.2     3  PCZ3        0.0125
      6  C51        6.0450  -12.0470   23.9590 C.2     3  PCZ3       -0.0020
      7  C52        7.1100  -10.1130   23.2650 C.3     3  PCZ3        0.0873
      8  C6         8.2280  -12.2040   23.1730 C.2     3  PCZ3        0.1534
      9  C61        8.3460  -13.5420   23.3580 C.2     3  PCZ3        0.4044
     10  O62        9.3640  -14.1460   22.9670 O.co2   3  PCZ3       -0.2389
     11  O63        7.4740  -14.1910   23.9520 O.co2   3  PCZ3       -0.2389
     12  N7         9.2550  -11.6450   22.5400 N.2     3  PCZ3       -0.2528
     13  N8         8.7070   -9.4820   20.1860 N.am    3  PCZ3       -0.1910
     14  C9         8.4860   -8.2000   19.9480 C.2     3  PCZ3        0.2884
     15  O91        9.1170   -7.3000   20.4630 O.2     3  PCZ3       -0.2665
     16  C10        7.3930   -7.8900   19.0280 C.2     3  PCZ3        0.2002
     17  N11        7.6160   -7.9290   17.7130 N.2     3  PCZ3       -0.0759
     18  O12        8.8300   -8.2500   17.1720 O.2     3  PCZ3       -0.3729
     19  C13        9.0560   -8.1510   15.7610 C.3     3  PCZ3        0.2885
     20  C14        6.0540   -7.5310   19.5170 C.2     3  PCZ3        0.1478
     21  C15        5.7840   -7.4870   20.8850 C.3     3  PCZ3        0.1266
     22  S16        4.1250   -7.0470   21.0380 S.3     3  PCZ3       -0.0564
     23  C17        3.8940   -6.9360   19.3420 C.2     3  PCZ3        0.2461
     24  N18        5.0170   -7.2170   18.6590 N.2     3  PCZ3       -0.3794
     25  N19        2.7080   -6.5950   18.7660 N.pl3   3  PCZ3       -0.0867
     26  S1         8.5090   -9.2110   23.3270 S.3     3  PCZ3       -0.1100
@<TRIPOS>BOND
     1    19    18    1
     2    18    17    1
     3    17    16    2
     4    24    23    2
     5    24    20    2
     6    25    23    1
     7    16    20    1
     8    16    14    1
     9    23    22    1
    10    20    21    1
    11     1     2    2
    12    14    13   am
    13    14    15    2
    14    13     3    1
    15     2     3    1
    16    21    22    1
    17     3     4    1
    18     4    12    1
    19     4    26    1
    20    12     8    2
    21    10     9   ar
    22     8     9    1
    23     8     5    1
    24     7    26    1
    25     7     5    1
    26     9    11   ar
    27     5     6    2
