@<TRIPOS>MOLECULE
3sha_P97_H_1.pdb
 27 29 0 0 0
SMALL
GASTEIGER

@<TRIPOS>ATOM
      1  N4       -16.4730  -15.2100  -23.0850 N.3     1  P971       -0.1228
      2  C3       -17.7530  -14.5200  -23.0690 C.3     1  P971        0.1721
      3  C5       -17.5340  -13.1460  -22.4830 C.2     1  P971        0.2437
      4  O7       -16.5920  -12.4510  -22.8500 O.2     1  P971       -0.2733
      5  C2       -18.2930  -14.4790  -24.5010 C.3     1  P971        0.0547
      6  C1       -19.7100  -13.9460  -24.5650 C.ar    1  P971       -0.0202
      7  C8       -20.7670  -14.6060  -23.9410 C.ar    1  P971       -0.0042
      8  C12      -19.9890  -12.7930  -25.2820 C.ar    1  P971       -0.0042
      9  C9       -22.0590  -14.0890  -24.0320 C.ar    1  P971       -0.0003
     10  C11      -21.2770  -12.2680  -25.3650 C.ar    1  P971       -0.0003
     11  C10      -22.3340  -12.9260  -24.7400 C.ar    1  P971       -0.0000
     12  N6       -18.3800  -12.7030  -21.5680 N.am    1  P971       -0.2718
     13  C13      -18.1560  -11.3840  -20.9760 C.3     1  P971        0.1535
     14  C14      -16.8050  -11.3500  -20.3040 C.2     1  P971        0.2598
     15  O15      -16.4070  -12.2900  -19.6140 O.2     1  P971       -0.2715
     16  C19      -19.2840  -11.2030  -19.9640 C.3     1  P971        0.0310
     17  C20      -20.3080  -12.2870  -20.2840 C.3     1  P971        0.0237
     18  C21      -19.5420  -13.3950  -20.9960 C.3     1  P971        0.0939
     19  N16      -16.0440  -10.2740  -20.5320 N.am    1  P971       -0.1991
     20  C17      -14.7080  -10.1080  -19.9520 C.3     1  P971        0.1439
     21  C18      -13.6680  -10.9010  -20.7100 C.ar    1  P971        0.0292
     22  C22      -13.3470  -12.2020  -20.3320 C.ar    1  P971        0.0971
     23  N23      -12.4230  -12.8960  -21.0100 N.ar    1  P971       -0.2425
     24  C24      -11.7800  -12.3770  -22.0650 C.ar    1  P971        0.0997
     25  C25      -12.0560  -11.0840  -22.4840 C.ar    1  P971        0.0318
     26  C26      -13.0080  -10.3610  -21.7820 C.ar    1  P971        0.0584
     27 CL27      -13.3970   -8.7080  -22.3060 Cl      1  P971       -0.0824
@<TRIPOS>BOND
     1    10     8   ar
     2    10    11   ar
     3     8     6   ar
     4    11     9   ar
     5     6     5    1
     6     6     7   ar
     7     5     2    1
     8     9     7   ar
     9     1     2    1
    10     2     3    1
    11     4     3    2
    12    25    24   ar
    13    25    26   ar
    14     3    12   am
    15    27    26    1
    16    24    23   ar
    17    26    21   ar
    18    12    18    1
    19    12    13    1
    20    23    22   ar
    21    18    17    1
    22    13    14    1
    23    13    16    1
    24    21    22   ar
    25    21    20    1
    26    19    14   am
    27    19    20    1
    28    14    15    2
    29    17    16    1
