@<TRIPOS>MOLECULE
3shc_B01_H_1.pdb
 27 29 0 0 0
SMALL
GASTEIGER

@<TRIPOS>ATOM
      1  N21       16.4670  -16.0470   23.1480 N.3     3  B013       -0.1228
      2  C8        17.6300  -15.1850   23.2700 C.3     3  B013        0.1721
      3  C9        17.2830  -13.8210   22.7350 C.2     3  B013        0.2437
      4  O25       16.2960  -13.2280   23.1540 O.2     3  B013       -0.2733
      5  C7        18.0200  -15.0840   24.7410 C.3     3  B013        0.0547
      6  C6        19.4380  -14.5680   24.8540 C.ar    3  B013       -0.0202
      7  C1        20.4480  -15.1110   24.0600 C.ar    3  B013       -0.0042
      8  C5        19.7360  -13.5580   25.7650 C.ar    3  B013       -0.0042
      9  C2        21.7540  -14.6370   24.1720 C.ar    3  B013       -0.0003
     10  C4        21.0380  -13.0840   25.8760 C.ar    3  B013       -0.0003
     11  C3        22.0460  -13.6240   25.0770 C.ar    3  B013       -0.0000
     12  N22       18.0770  -13.3080   21.7950 N.am    3  B013       -0.2718
     13  C10       17.7740  -11.9880   21.2330 C.3     3  B013        0.1535
     14  C11       16.3830  -11.9630   20.6550 C.2     3  B013        0.2598
     15  O26       15.9960  -12.9110   19.9890 O.2     3  B013       -0.2715
     16  C14       18.8090  -11.8000   20.1290 C.3     3  B013        0.0310
     17  C15       19.5060  -13.1370   19.9370 C.3     3  B013        0.0237
     18  C16       19.2710  -13.9260   21.2160 C.3     3  B013        0.0939
     19  C12       14.2330  -10.7040   20.4400 C.3     3  B013        0.1606
     20  C13       13.2640  -10.6040   21.6020 C.ar    3  B013        0.0817
     21  C17       11.5220  -11.5700   22.8360 C.ar    3  B013        0.0994
     22  C18       11.4780  -10.4810   23.7070 C.ar    3  B013        0.0320
     23  C19       12.3620   -9.4240   23.5200 C.ar    3  B013        0.0604
     24  C20       13.2590   -9.4960   22.4520 C.ar    3  B013        0.0279
     25  N23       15.6070  -10.9010   20.9080 N.am    3  B013       -0.1975
     26  N24       12.3970  -11.6160   21.8180 N.ar    3  B013       -0.2463
     27 CL27       12.3300   -7.9990   24.6400 Cl      3  B013       -0.0822
@<TRIPOS>BOND
     1    17    16    1
     2    17    18    1
     3    15    14    2
     4    16    13    1
     5    19    25    1
     6    19    20    1
     7    14    25   am
     8    14    13    1
     9    18    12    1
    10    13    12    1
    11    20    26   ar
    12    20    24   ar
    13    12     3   am
    14    26    21   ar
    15    24    23   ar
    16     3     4    2
    17     3     2    1
    18    21    22   ar
    19     1     2    1
    20     2     5    1
    21    23    22   ar
    22    23    27    1
    23     7     9   ar
    24     7     6   ar
    25     9    11   ar
    26     5     6    1
    27     6     8   ar
    28    11    10   ar
    29     8    10   ar
