@<TRIPOS>MOLECULE
3she_I85_A_1.pdb
 34 38 0 0 0
SMALL
GASTEIGER

@<TRIPOS>ATOM
      1  N1        11.9760   13.2150   15.5550 N.am  350  I85350     -0.1566
      2  N2        18.1610    6.5050   14.0060 N.3   350  I85350     -0.2176
      3  C3        18.9230    7.5450   14.7020 C.3   350  I85350      0.0887
      4  C4        12.8840   11.4760   14.0070 C.ar  350  I85350      0.0388
      5  N5        10.6810   12.2860   13.8850 N.ar  350  I85350     -0.2273
      6  N6        14.8800    9.4920   12.9890 N.2   350  I85350     -0.4054
      7  C7        16.9640    8.0700   12.5340 C.3   350  I85350      0.0867
      8  N8        16.6540    6.9750   10.2900 N.2   350  I85350     -0.2020
      9  C9        15.3360    7.2660   10.2030 C.1   350  I85350      0.1523
     10  C10       17.8080    9.1730   13.1930 C.3   350  I85350      0.0115
     11  C11       19.1630    8.6670   13.7010 C.3   350  I85350      0.0193
     12  C12       16.8500    6.8420   13.4350 C.3   350  I85350      0.0972
     13  O13       14.6400    6.7460    9.3490 O.2   350  I85350     -0.2222
     14  C14       15.5810    8.6180   12.2790 C.2   350  I85350      0.1224
     15  C15       14.8170    8.2440   11.1780 C.2   350  I85350      0.1107
     16  C16       13.6060    8.9380   11.2620 C.2   350  I85350      0.0459
     17  C17       13.6660    9.7070   12.3910 C.2   350  I85350      0.1319
     18  C18       12.6270   10.6210   12.9190 C.ar  350  I85350      0.0340
     19  C19       11.3510   10.6440   12.3470 C.ar  350  I85350      0.0233
     20  C20       10.4080   11.4940   12.8630 C.ar  350  I85350      0.1005
     21  C21       11.8650   12.3150   14.4790 C.ar  350  I85350      0.1549
     22  C22       17.5730    7.6560   11.1990 C.3   350  I85350      0.1458
     23  C23       13.0460   13.3840   16.3760 C.2   350  I85350      0.2703
     24  C24       12.9770   14.3950   17.4700 C.ar  350  I85350      0.0554
     25  C25       12.3680   15.6340   17.2350 C.ar  350  I85350      0.0046
     26  C26       12.3020   16.5850   18.2360 C.ar  350  I85350      0.0001
     27  C27       12.8440   16.3230   19.4830 C.ar  350  I85350      0.0039
     28  C28       13.4600   15.1030   19.7390 C.ar  350  I85350      0.0716
     29  C29       13.5280   14.1420   18.7360 C.ar  350  I85350      0.0084
     30  O30       14.0700   12.7480   16.2310 O.2   350  I85350     -0.2680
     31  C31       14.0560   14.8080   21.0990 C.3   350  I85350      0.4186
     32  F32       13.2310   13.9100   21.7800 F     350  I85350     -0.1659
     33  F33       15.3190   14.2300   20.9340 F     350  I85350     -0.1659
     34  F34       14.1860   15.9650   21.8820 F     350  I85350     -0.1659
@<TRIPOS>BOND
     1    13     9    2
     2     9     8    2
     3     9    15    1
     4     8    22    1
     5    15    16    2
     6    15    14    1
     7    22     7    1
     8    16    17    1
     9    14     7    1
    10    14     6    2
    11    19    20   ar
    12    19    18   ar
    13    17    18    1
    14    17     6    2
    15     7    10    1
    16     7    12    1
    17    20     5   ar
    18    18     4   ar
    19    10    11    1
    20    12     2    1
    21    11     3    1
    22     5    21   ar
    23     2     3    1
    24     4    21   ar
    25    21     1    1
    26     1    23   am
    27    30    23    2
    28    23    24    1
    29    25    24   ar
    30    25    26   ar
    31    24    29   ar
    32    26    27   ar
    33    29    28   ar
    34    27    28   ar
    35    28    31    1
    36    33    31    1
    37    31    32    1
    38    31    34    1
