@<TRIPOS>MOLECULE
3shf_ADP_A_1.pdb
 27 29 0 0 0
SMALL
GASTEIGER

@<TRIPOS>ATOM
      1  PB         0.0650   34.4370  -18.0870 P.3   1250  ADP1250     0.5373
      2  O1B       -0.2820   35.4530  -19.1120 O.2   1250  ADP1250    -0.2221
      3  O2B        1.5870   34.6960  -17.6410 O.3   1250  ADP1250    -0.1143
      4  O3B       -0.0720   32.9200  -18.6820 O.3   1250  ADP1250    -0.1143
      5  PA        -2.5140   34.3530  -17.1330 P.3   1250  ADP1250     0.2231
      6  O1A       -3.0360   35.2890  -18.1880 O.2   1250  ADP1250    -0.5169
      7  O2A       -2.7070   32.7990  -17.5970 O.3   1250  ADP1250    -0.4370
      8  O3A       -0.9110   34.6370  -16.7930 O.3   1250  ADP1250    -0.2261
      9  O5'       -3.2700   34.6020  -15.7280 O.3   1250  ADP1250    -0.3111
     10  C5'       -4.6690   34.3880  -15.8050 C.3   1250  ADP1250     0.1813
     11  C4'       -5.1290   34.6710  -14.3930 C.3   1250  ADP1250     0.1821
     12  O4'       -4.7580   36.0310  -13.9960 O.3   1250  ADP1250    -0.3135
     13  C3'       -6.6550   34.5090  -14.1920 C.3   1250  ADP1250     0.2184
     14  O3'       -6.9320   33.5130  -13.2040 O.3   1250  ADP1250    -0.2174
     15  C2'       -7.1770   35.9420  -13.8220 C.3   1250  ADP1250     0.2570
     16  O2'       -7.8430   36.0410  -12.5250 O.3   1250  ADP1250    -0.2130
     17  C1'       -5.9560   36.8680  -13.8970 C.3   1250  ADP1250     0.3186
     18  N9        -6.1320   37.7660  -15.0770 N.pl3 1250  ADP1250    -0.1439
     19  C8        -5.3020   37.8900  -16.1760 C.3   1250  ADP1250     0.3377
     20  N7        -5.7750   38.7840  -17.0170 N.2   1250  ADP1250    -0.2095
     21  C5        -6.9550   39.3030  -16.5150 C.2   1250  ADP1250     0.2526
     22  C6        -7.9320   40.2980  -16.9520 C.2   1250  ADP1250     0.4393
     23  N6        -7.7720   40.9850  -18.1730 N.pl3 1250  ADP1250     0.2180
     24  N1        -9.0170   40.5450  -16.1430 N.2   1250  ADP1250     0.0021
     25  C2        -9.1930   39.9000  -14.9760 C.3   1250  ADP1250     0.5254
     26  N3        -8.3180   38.9810  -14.5400 N.2   1250  ADP1250    -0.0055
     27  C4        -7.1980   38.6520  -15.2620 C.2   1250  ADP1250     0.3518
@<TRIPOS>BOND
     1     2     1    2
     2     4     1    1
     3     6     5    2
     4    23    22    1
     5     1     3    1
     6     1     8    1
     7     7     5    1
     8     5     8    1
     9     5     9    1
    10    20    21    2
    11    20    19    1
    12    22    21    1
    13    22    24    2
    14    21    27    1
    15    19    18    1
    16    24    25    1
    17    10     9    1
    18    10    11    1
    19    27    18    1
    20    27    26    2
    21    18    17    1
    22    25    26    1
    23    11    13    1
    24    11    12    1
    25    13    15    1
    26    13    14    1
    27    12    17    1
    28    17    15    1
    29    15    16    1
