@<TRIPOS>MOLECULE
3shj_H10_K_1.pdb
 26 29 0 0 0
SMALL
GASTEIGER

@<TRIPOS>ATOM
      1  C1         4.4150 -134.9860   18.7250 C.3     2  H102        0.1331
      2  O2         5.5180 -134.2200   18.1850 O.3     2  H102       -0.4826
      3  C3         5.8070 -134.0380   16.8330 C.ar    2  H102        0.1388
      4  C4         6.7380 -134.8920   16.1590 C.ar    2  H102        0.0451
      5  C5         7.0450 -134.6720   14.7750 C.ar    2  H102        0.0447
      6  C6         7.9930 -135.5240   14.1530 C.1     2  H102       -0.0626
      7  C7         8.7770 -136.2280   13.6660 C.1     2  H102       -0.0665
      8  C8         9.7660 -137.1080   13.0500 C.3     2  H102        0.1447
      9  N9        10.3050 -137.8130   14.2520 N.am    2  H102       -0.2564
     10  C10        9.9040 -139.1110   14.5950 C.2     2  H102        0.1890
     11  O11        9.0750 -139.7780   13.9180 O.2     2  H102       -0.5238
     12  N12       10.4240 -139.6730   15.7110 N.am    2  H102       -0.1022
     13  O13       11.1340 -137.2350   14.9920 O.3     2  H102       -0.4180
     14  C14       10.8300 -136.2400   12.2710 C.3     2  H102        0.0366
     15  C15        6.4250 -133.6030   14.0510 C.ar    2  H102        0.0084
     16  C16        5.4850 -132.7380   14.6890 C.ar    2  H102        0.0037
     17  C17        5.1780 -132.9460   16.0740 C.ar    2  H102        0.0369
     18  C18        4.5320 -134.8780   20.3140 C.3     2  H102        0.0400
     19  C19        3.3310 -135.7100   20.9920 C.3     2  H102        0.0035
     20  C20        1.9280 -135.1060   20.5140 C.3     2  H102        0.0002
     21  C21        1.8170 -135.1870   18.9410 C.3     2  H102        0.0035
     22  C22        1.9210 -136.7070   18.4580 C.3     2  H102        0.0002
     23  C23        3.3000 -137.3360   18.9540 C.3     2  H102        0.0035
     24  C24        3.4060 -137.2510   20.5500 C.3     2  H102        0.0002
     25  C25        4.5020 -136.5400   18.3230 C.3     2  H102        0.0400
     26  C26        2.9860 -134.3530   18.3300 C.3     2  H102        0.0400
@<TRIPOS>BOND
     1    14     8    1
     2     8     7    1
     3     8     9    1
     4     7     6    3
     5    11    10    2
     6    15    16   ar
     7    15     5   ar
     8     6     5    1
     9     9    10   am
    10     9    13    1
    11    10    12   am
    12    16    17   ar
    13     5     4   ar
    14    17     3   ar
    15     4     3   ar
    16     3     2    1
    17     2     1    1
    18    25     1    1
    19    25    23    1
    20    26     1    1
    21    26    21    1
    22    22    21    1
    23    22    23    1
    24     1    18    1
    25    21    20    1
    26    23    24    1
    27    18    19    1
    28    20    19    1
    29    24    19    1
