@<TRIPOS>MOLECULE
3shl_THP_A_1.pdb
 25 26 0 0 0
SMALL
GASTEIGER

@<TRIPOS>ATOM
      1  P2        -1.8210  -17.3030  -14.7250 P.3   150  THP150      0.5327
      2  O4P       -0.7390  -18.2100  -14.3340 O.3   150  THP150     -0.1145
      3  O5P       -3.1520  -17.8040  -13.9640 O.3   150  THP150     -0.1145
      4  O6P       -1.6060  -15.8090  -14.3390 O.2   150  THP150     -0.2224
      5  P1        -5.5210  -20.1260  -19.5760 P.3   150  THP150      0.5326
      6  O1P       -6.5680  -19.9920  -20.6160 O.2   150  THP150     -0.2224
      7  O2P       -5.0650  -21.5860  -19.2310 O.3   150  THP150     -0.1145
      8  O3P       -6.0370  -19.4090  -18.2590 O.3   150  THP150     -0.1145
      9  O5'       -2.0750  -17.2010  -16.2650 O.3   150  THP150     -0.2675
     10  C5'       -2.0530  -18.3960  -17.0890 C.3   150  THP150      0.1857
     11  C4'       -2.9600  -18.0790  -18.2760 C.3   150  THP150      0.1748
     12  O4'       -2.4720  -16.9130  -18.9650 O.3   150  THP150     -0.3340
     13  C3'       -3.0980  -19.2530  -19.3010 C.3   150  THP150      0.1600
     14  O3'       -4.3410  -19.1250  -20.0340 O.3   150  THP150     -0.2700
     15  C2'       -2.0280  -18.8140  -20.3130 C.3   150  THP150      0.0847
     16  C1'       -2.0890  -17.2570  -20.2760 C.3   150  THP150      0.2089
     17  N1        -0.7940  -16.6610  -20.6200 N.am  150  THP150     -0.1794
     18  C2        -0.5540  -16.2910  -21.8920 C.1   150  THP150      0.2844
     19  O2        -1.4350  -16.4300  -22.7900 O.2   150  THP150     -0.1918
     20  N3         0.6810  -15.8820  -22.2830 N.2   150  THP150     -0.2455
     21  C4         1.6850  -15.8030  -21.3460 C.1   150  THP150      0.2134
     22  O4         2.7850  -15.4100  -21.7220 O.2   150  THP150     -0.2088
     23  C5         1.4180  -16.1490  -20.0010 C.2   150  THP150      0.0891
     24  C5M        2.5110  -16.0360  -18.9730 C.3   150  THP150      0.0462
     25  C6         0.1840  -16.5900  -19.6530 C.2   150  THP150      0.0877
@<TRIPOS>BOND
     1    19    18    2
     2    20    18    2
     3    20    21    2
     4    18    17   am
     5    22    21    2
     6    21    23    1
     7    17    16    1
     8    17    25    1
     9     6     5    2
    10    15    16    1
    11    15    13    1
    12    16    12    1
    13    14     5    1
    14    14    13    1
    15    23    25    2
    16    23    24    1
    17     5     7    1
    18     5     8    1
    19    13    11    1
    20    12    11    1
    21    11    10    1
    22    10     9    1
    23     9     1    1
    24     1     4    2
    25     1     2    1
    26     1     3    1
