@<TRIPOS>MOLECULE
3shr_CMP_A_1.pdb
 22 25 0 0 0
SMALL
GASTEIGER

@<TRIPOS>ATOM
      1  P        -50.6500   -4.9150  -36.3940 P.3   401  CMP401      0.2141
      2  O1P      -50.1430   -4.6000  -35.0460 O.3   401  CMP401     -0.4373
      3  O2P      -51.3030   -6.2230  -36.6520 O.2   401  CMP401     -0.5172
      4  O5'      -49.4800   -4.7650  -37.4770 O.3   401  CMP401     -0.3114
      5  C5'      -49.7680   -4.3620  -38.8240 C.3   401  CMP401      0.1812
      6  C4'      -50.6850   -3.1780  -38.7790 C.3   401  CMP401      0.1793
      7  O4'      -51.1190   -2.6870  -40.0650 O.3   401  CMP401     -0.3136
      8  C3'      -51.9950   -3.5400  -38.1390 C.3   401  CMP401      0.1884
      9  O3'      -51.6840   -3.7470  -36.7740 O.3   401  CMP401     -0.3111
     10  C2'      -52.8510   -2.3250  -38.4750 C.3   401  CMP401      0.2541
     11  O2'      -52.6200   -1.2660  -37.5740 O.3   401  CMP401     -0.2131
     12  C1'      -52.2990   -1.9370  -39.8530 C.3   401  CMP401      0.3185
     13  N9       -53.1940   -2.0900  -40.9980 N.pl3 401  CMP401     -0.1439
     14  C8       -53.6540   -1.0770  -41.8130 C.3   401  CMP401      0.3377
     15  N7       -54.4560   -1.4830  -42.7650 N.2   401  CMP401     -0.2095
     16  C5       -54.5270   -2.8550  -42.5710 C.2   401  CMP401      0.2526
     17  C6       -55.2120   -3.8700  -43.2620 C.2   401  CMP401      0.4393
     18  N6       -55.9910   -3.6450  -44.3250 N.pl3 401  CMP401      0.2180
     19  N1       -55.0670   -5.1400  -42.8150 N.2   401  CMP401      0.0021
     20  C2       -54.2840   -5.3600  -41.7430 C.3   401  CMP401      0.5254
     21  N3       -53.5900   -4.4870  -41.0120 N.2   401  CMP401     -0.0055
     22  C4       -53.7560   -3.2410  -41.4840 C.2   401  CMP401      0.3518
@<TRIPOS>BOND
     1    18    17    1
     2    17    19    2
     3    17    16    1
     4    19    20    1
     5    15    16    2
     6    15    14    1
     7    16    22    1
     8    14    13    1
     9    20    21    1
    10    22    21    2
    11    22    13    1
    12    13    12    1
    13     7    12    1
    14     7     6    1
    15    12    10    1
    16     5     6    1
    17     5     4    1
    18     6     8    1
    19    10     8    1
    20    10    11    1
    21     8     9    1
    22     4     1    1
    23     9     1    1
    24     3     1    2
    25     1     2    1
