@<TRIPOS>MOLECULE
3shy_5FO_A_1.pdb
 30 32 0 0 0
SMALL
GASTEIGER

@<TRIPOS>ATOM
      1  CAA      -49.5060   19.0570   42.2130 C.3     1  5FO1        0.0040
      2  CAB      -45.0740   13.7960   37.1840 C.3     1  5FO1        0.0077
      3  CAC      -45.3960   10.5640   41.8790 C.3     1  5FO1        0.0897
      4  OAD      -46.1670   18.9470   38.6750 O.2     1  5FO1       -0.2102
      5  OAE      -42.8740   13.9660   45.9720 O.2     1  5FO1       -0.1528
      6  OAF      -41.8070   14.1360   43.7930 O.2     1  5FO1       -0.1528
      7  FAG      -45.0160   17.2410   36.8230 F       1  5FO1       -0.2104
      8  CAH      -45.4680   14.9910   44.7680 C.ar    1  5FO1        0.0231
      9  CAI      -46.4830   15.8060   44.2770 C.ar    1  5FO1        0.0390
     10  CAJ      -44.4050   15.0740   42.6320 C.ar    1  5FO1        0.0350
     11  CAK      -49.8230   17.5630   42.3150 C.3     1  5FO1        0.0473
     12  CAL      -43.9650   14.6770   37.7760 C.3     1  5FO1        0.0595
     13  CAM      -48.7480   16.8150   43.1140 C.3     1  5FO1        0.2054
     14  CAN      -43.1460   10.2550   42.5390 C.3     1  5FO1        0.0915
     15  CAO      -44.8130   10.1140   44.2470 C.3     1  5FO1        0.0915
     16  CAP      -42.9670   11.7550   42.8100 C.3     1  5FO1        0.1131
     17  CAQ      -44.6580   11.6150   44.5260 C.3     1  5FO1        0.1131
     18  NAR      -44.7310   15.4540   39.9530 N.2     1  5FO1       -0.3441
     19  NAS      -45.8430   17.4690   40.3540 N.2     1  5FO1       -0.2673
     20  OAT      -47.4590   17.0370   42.4650 O.3     1  5FO1       -0.4747
     21  CAU      -44.3890   14.6810   43.9510 C.ar    1  5FO1        0.1231
     22  CAV      -46.4520   16.2640   42.9610 C.ar    1  5FO1        0.1499
     23  CAW      -44.6250   15.7450   38.6460 C.2     1  5FO1        0.1485
     24  CAX      -45.1230   16.9530   38.1490 C.3     1  5FO1        0.3255
     25  CAY      -45.3530   15.9580   42.1640 C.ar    1  5FO1        0.1215
     26  CAZ      -45.2370   16.3230   40.8300 C.1     1  5FO1        0.1522
     27  CBA      -45.7140   17.8530   39.0310 C.1     1  5FO1        0.2298
     28  NBB      -44.5180    9.8360   42.8200 N.3     1  5FO1       -0.2690
     29  NBC      -43.2730   12.0510   44.2250 N.3     1  5FO1       -0.1527
     30  SBD      -43.0530   13.6860   44.5020 S.O2    1  5FO1        0.0634
@<TRIPOS>BOND
     1     7    24    1
     2     2    12    1
     3    12    23    1
     4    24    23    1
     5    24    27    1
     6    23    18    2
     7     4    27    2
     8    27    19    2
     9    18    26    2
    10    19    26    2
    11    26    25    1
    12     3    28    1
    13    25    10   ar
    14    25    22   ar
    15     1    11    1
    16    11    13    1
    17    20    22    1
    18    20    13    1
    19    14    16    1
    20    14    28    1
    21    10    21   ar
    22    16    29    1
    23    28    15    1
    24    22     9   ar
    25     6    30    2
    26    21    30    1
    27    21     8   ar
    28    29    30    1
    29    29    17    1
    30    15    17    1
    31     9     8   ar
    32    30     5    2
