@<TRIPOS>MOLECULE
3shz_5CO_A_1.pdb
 30 32 0 0 0
SMALL
GASTEIGER

@<TRIPOS>ATOM
      1  CAA       49.5460  -19.0980   42.0510 C.3     1  5CO1        0.0040
      2  CAB       44.6480  -13.7740   37.3390 C.3     1  5CO1        0.0076
      3  CAC       44.7450   -8.1290   43.1680 C.3     1  5CO1        0.0897
      4  OAD       46.2260  -18.9930   38.7090 O.2     1  5CO1       -0.2118
      5  OAE       42.9420  -13.9760   45.9570 O.2     1  5CO1       -0.1528
      6  OAF       41.9910  -13.8110   43.6960 O.2     1  5CO1       -0.1528
      7 CLAG       44.8260  -17.5040   36.5320 Cl      1  5CO1       -0.0883
      8  CAH       45.6080  -15.0380   44.7260 C.ar    1  5CO1        0.0231
      9  CAI       46.6060  -15.8670   44.2220 C.ar    1  5CO1        0.0390
     10  CAJ       44.4750  -15.1140   42.6190 C.ar    1  5CO1        0.0350
     11  CAK       49.8650  -17.6070   42.1470 C.3     1  5CO1        0.0473
     12  CAL       43.7030  -14.8880   37.8230 C.3     1  5CO1        0.0579
     13  CAM       48.8090  -16.8710   42.9850 C.3     1  5CO1        0.2054
     14  CAN       43.9780   -9.7110   44.7850 C.3     1  5CO1        0.0915
     15  CAO       44.7250  -10.4470   42.6480 C.3     1  5CO1        0.0915
     16  CAP       43.2750  -11.0650   45.0150 C.3     1  5CO1        0.1131
     17  CAQ       44.0380  -11.8100   42.8560 C.3     1  5CO1        0.1131
     18  NAR       44.6330  -15.5580   39.9710 N.2     1  5CO1       -0.3456
     19  NAS       45.9020  -17.5160   40.3670 N.2     1  5CO1       -0.2687
     20  OAT       47.5000  -17.1100   42.3760 O.3     1  5CO1       -0.4747
     21  CAU       44.5010  -14.7300   43.9400 C.ar    1  5CO1        0.1231
     22  CAV       46.5240  -16.3300   42.9100 C.ar    1  5CO1        0.1499
     23  CAW       44.4810  -15.8860   38.6840 C.2     1  5CO1        0.1308
     24  CAX       45.0310  -17.0810   38.2030 C.3     1  5CO1        0.2458
     25  CAY       45.4140  -15.9990   42.1410 C.ar    1  5CO1        0.1215
     26  CAZ       45.2560  -16.3820   40.8250 C.1     1  5CO1        0.1521
     27  CBA       45.7240  -17.9280   39.0690 C.1     1  5CO1        0.2115
     28  NBB       43.9970   -9.3830   43.3430 N.3     1  5CO1       -0.2690
     29  NBC       43.9800  -12.1500   44.3000 N.3     1  5CO1       -0.1527
     30  SBD       43.2420  -13.6660   44.5150 S.O2    1  5CO1        0.0634
@<TRIPOS>BOND
     1     7    24    1
     2     2    12    1
     3    12    23    1
     4    24    23    1
     5    24    27    1
     6    23    18    2
     7     4    27    2
     8    27    19    2
     9    18    26    2
    10    19    26    2
    11    26    25    1
    12     1    11    1
    13    25    10   ar
    14    25    22   ar
    15    11    13    1
    16    20    22    1
    17    20    13    1
    18    10    21   ar
    19    15    17    1
    20    15    28    1
    21    17    29    1
    22    22     9   ar
    23     3    28    1
    24    28    14    1
    25     6    30    2
    26    21    30    1
    27    21     8   ar
    28     9     8   ar
    29    29    30    1
    30    29    16    1
    31    30     5    2
    32    14    16    1
