@<TRIPOS>MOLECULE
3si2_PBD_A_1.pdb
 22 23 0 0 0
SMALL
GASTEIGER

@<TRIPOS>ATOM
      1  CAA       20.5370  -26.6290  -13.3370 C.3   999  PBD999      0.2526
      2  CAB       19.7430  -23.5270  -10.7620 C.3   999  PBD999      0.2526
      3  SAC       14.2850  -27.5310   -7.1870 S.2   999  PBD999     -0.0152
      4  CAD        9.9000  -22.7850  -10.2150 C.ar  999  PBD999      0.1193
      5  CAE       17.6880  -28.1630   -9.7650 C.ar  999  PBD999      0.0199
      6  CAF       18.5580  -28.2810  -10.8120 C.ar  999  PBD999      0.0414
      7  CAG       10.5710  -23.8100  -10.8460 C.ar  999  PBD999      0.0980
      8  CAH       10.1120  -24.4180   -8.8150 C.ar  999  PBD999      0.1786
      9  CAI       18.1620  -25.7900   -9.5170 C.ar  999  PBD999      0.0566
     10  CAJ       12.8190  -26.0510   -9.7920 C.3   999  PBD999      0.0479
     11  CAK       13.3610  -27.4840   -9.8280 C.3   999  PBD999      0.1162
     12  CAL       11.3170  -26.1200  -10.0670 C.3   999  PBD999      0.1095
     13  NAM        9.6040  -23.1910   -8.9510 N.ar  999  PBD999     -0.2223
     14  NAN       14.7950  -27.4990   -9.6150 N.am  999  PBD999     -0.2164
     15  NAO       16.5790  -27.0810   -8.1540 N.am  999  PBD999     -0.1905
     16  OAP       20.0950  -27.5010  -12.2700 O.3   999  PBD999     -0.4684
     17  OAQ       19.8290  -24.8940  -11.0840 O.3   999  PBD999     -0.4683
     18  CAR       15.2850  -27.3650   -8.3900 C.2   999  PBD999      0.1745
     19  CAS       17.4790  -26.9660   -9.1310 C.ar  999  PBD999      0.0756
     20  CAT       19.2560  -27.1830  -11.2240 C.ar  999  PBD999      0.1725
     21  CAU       19.0640  -25.9240  -10.6040 C.ar  999  PBD999      0.1737
     22  NAV       10.7060  -24.7810   -9.9360 N.ar  999  PBD999     -0.3078
@<TRIPOS>BOND
     1     1    16    1
     2    16    20    1
     3    20     6   ar
     4    20    21   ar
     5    17     2    1
     6    17    21    1
     7     7     4   ar
     8     7    22   ar
     9     6     5   ar
    10    21     9   ar
    11     4    13   ar
    12    12    22    1
    13    12    10    1
    14    22     8   ar
    15    11    10    1
    16    11    14    1
    17     5    19   ar
    18    14    18    1
    19     9    19   ar
    20    19    15    1
    21    13     8   ar
    22    18    15    1
    23    18     3    2
