@<TRIPOS>MOLECULE
3si3_B03_H_1.pdb
 26 28 0 0 0
SMALL
GASTEIGER

@<TRIPOS>ATOM
      1  N10       16.6920  -15.3670   23.3600 N.3     5  B035       -0.1228
      2  C8        17.9710  -14.6840   23.3400 C.3     5  B035        0.1721
      3  C9        17.7590  -13.3150   22.7490 C.2     5  B035        0.2437
      4  O12       16.8250  -12.6150   23.1350 O.2     5  B035       -0.2733
      5  C7        18.4740  -14.5870   24.7850 C.3     5  B035        0.0547
      6  C4        19.8740  -14.0180   24.8370 C.ar    5  B035       -0.0202
      7  C3        20.9500  -14.6840   24.2540 C.ar    5  B035       -0.0042
      8  C5        20.0850  -12.8070   25.4680 C.ar    5  B035       -0.0042
      9  C2        22.2250  -14.1270   24.3100 C.ar    5  B035       -0.0003
     10  C6        21.3540  -12.2480   25.5180 C.ar    5  B035       -0.0003
     11  C1        22.4350  -12.9120   24.9400 C.ar    5  B035       -0.0000
     12  N11       18.6040  -12.9030   21.8160 N.am    5  B035       -0.2718
     13  C13       18.4090  -11.5830   21.2360 C.3     5  B035        0.1535
     14  C17       17.0650  -11.4740   20.5700 C.2     5  B035        0.2598
     15  O28       16.7190  -12.3280   19.7680 O.2     5  B035       -0.2715
     16  C15       19.5130  -11.4360   20.1920 C.3     5  B035        0.0310
     17  C16       20.5110  -12.5460   20.4710 C.3     5  B035        0.0237
     18  C14       19.7600  -13.6160   21.2560 C.3     5  B035        0.0939
     19  N18       16.2730  -10.4460   20.8920 N.am    5  B035       -0.1975
     20  C19       14.9490  -10.2000   20.3250 C.3     5  B035        0.1605
     21  C20       13.8650  -10.0880   21.3770 C.ar    5  B035        0.0809
     22  C22       13.8200   -9.0020   22.2450 C.ar    5  B035        0.0165
     23  C23       12.8120   -8.9290   23.1990 C.ar    5  B035        0.0029
     24  C24       11.8640   -9.9390   23.2620 C.ar    5  B035        0.0207
     25  C25       11.9440  -11.0030   22.3720 C.ar    5  B035        0.0985
     26  N21       12.9240  -11.0540   21.4610 N.ar    5  B035       -0.2464
@<TRIPOS>BOND
     1    15    14    2
     2    16    17    1
     3    16    13    1
     4    20    19    1
     5    20    21    1
     6    17    18    1
     7    14    19   am
     8    14    13    1
     9    13    12    1
    10    18    12    1
    11    21    26   ar
    12    21    22   ar
    13    26    25   ar
    14    12     3   am
    15    22    23   ar
    16    25    24   ar
    17     3     4    2
    18     3     2    1
    19    23    24   ar
    20     2     1    1
    21     2     5    1
    22     7     9   ar
    23     7     6   ar
    24     9    11   ar
    25     5     6    1
    26     6     8   ar
    27    11    10   ar
    28     8    10   ar
