@<TRIPOS>MOLECULE
3si4_B04_H_1.pdb
 27 29 0 0 0
SMALL
GASTEIGER

@<TRIPOS>ATOM
      1  N4        16.6960  -15.5690   23.2920 N.3     1  B041       -0.1228
      2  C3        17.9550  -14.8470   23.2990 C.3     1  B041        0.1721
      3  C5        17.7070  -13.4920   22.6930 C.2     1  B041        0.2437
      4  O7        16.7810  -12.7970   23.0920 O.2     1  B041       -0.2733
      5  C2        18.4400  -14.7650   24.7430 C.3     1  B041        0.0547
      6  C1        19.8390  -14.2060   24.8030 C.ar    1  B041       -0.0202
      7  C8        20.9130  -14.8860   24.2310 C.ar    1  B041       -0.0042
      8  C12       20.0440  -13.0020   25.4600 C.ar    1  B041       -0.0042
      9  C9        22.1940  -14.3480   24.3120 C.ar    1  B041       -0.0003
     10  C11       21.3220  -12.4660   25.5340 C.ar    1  B041       -0.0003
     11  C10       22.3970  -13.1350   24.9610 C.ar    1  B041       -0.0000
     12  N6        18.5140  -13.0720   21.7160 N.am    1  B041       -0.2718
     13  C13       18.2630  -11.7660   21.1060 C.3     1  B041        0.1535
     14  C14       16.8660  -11.7520   20.5410 C.2     1  B041        0.2595
     15  O15       16.4590  -12.7100   19.8990 O.2     1  B041       -0.2716
     16  C19       19.2930  -11.6620   19.9880 C.3     1  B041        0.0310
     17  C20       20.3510  -12.6940   20.3150 C.3     1  B041        0.0237
     18  C21       19.6530  -13.7790   21.1240 C.3     1  B041        0.0939
     19  N16       16.0900  -10.6930   20.7800 N.am    1  B041       -0.2019
     20  C17       14.7210  -10.5330   20.2950 C.3     1  B041        0.1393
     21  C18       13.7290  -10.4070   21.4310 C.3     1  B041        0.1169
     22  C22       13.5170   -9.1730   22.0410 C.2     1  B041       -0.0049
     23  C23       12.6090   -9.0770   23.0860 C.2     1  B041       -0.0016
     24  C24       11.9200  -10.2160   23.4870 C.2     1  B041        0.0155
     25  C25       12.1690  -11.4190   22.8380 C.2     1  B041        0.0616
     26  N26       13.0570  -11.4940   21.8380 N.pl3   1  B041       -0.3010
     27  C27       13.2920  -12.7830   21.1790 C.3     1  B041        0.1125
@<TRIPOS>BOND
     1    15    14    2
     2    16    17    1
     3    16    13    1
     4    20    19    1
     5    20    21    1
     6    17    18    1
     7    14    19   am
     8    14    13    1
     9    13    12    1
    10    18    12    1
    11    27    26    1
    12    21    26    1
    13    21    22    1
    14    12     3   am
    15    26    25    1
    16    22    23    2
    17     3     4    2
    18     3     2    1
    19    25    24    2
    20    23    24    1
    21     1     2    1
    22     2     5    1
    23     7     9   ar
    24     7     6   ar
    25     9    11   ar
    26     5     6    1
    27     6     8   ar
    28    11    10   ar
    29     8    10   ar
