@<TRIPOS>MOLECULE
3si6_DUP_A_1.pdb
 28 29 0 0 0
SMALL
GASTEIGER

@<TRIPOS>ATOM
      1  O4         0.6070   52.3910   23.3210 O.2   904  DUP904     -0.2085
      2  C4         0.5430   52.9380   22.0810 C.1   904  DUP904      0.2182
      3  C5         0.0640   52.2040   21.0040 C.2   904  DUP904      0.1242
      4  C6         0.0320   52.8060   19.7530 C.2   904  DUP904      0.0928
      5  N3         0.9630   54.2010   21.8900 N.2   904  DUP904     -0.2452
      6  C2         0.9140   54.7580   20.6680 C.1   904  DUP904      0.2844
      7  O2         1.3440   56.0370   20.5190 O.2   904  DUP904     -0.1918
      8  N1         0.4480   54.0740   19.6110 N.am  904  DUP904     -0.1790
      9  C1'        0.4280   54.7160   18.2950 C.3   904  DUP904      0.2090
     10  C2'        1.8520   54.7250   17.7440 C.3   904  DUP904      0.0874
     11  C3'        1.8630   53.5460   16.7890 C.3   904  DUP904      0.1857
     12  O3'        2.8240   53.6990   15.7380 O.3   904  DUP904     -0.2203
     13  O4'       -0.3660   53.9630   17.3740 O.3   904  DUP904     -0.3339
     14  C4'        0.4310   53.4980   16.2790 C.3   904  DUP904      0.1774
     15  C5'        0.0030   52.0890   15.8990 C.3   904  DUP904      0.1848
     16  O5'        0.2130   51.2700   17.0430 O.3   904  DUP904     -0.2775
     17  PA         0.5040   49.6920   16.9700 P.3   904  DUP904      0.4623
     18  O1A        1.4600   49.3650   18.0930 O.3   904  DUP904     -0.1255
     19  O2A       -0.8460   49.0120   17.0000 O.2   904  DUP904     -0.2354
     20  N3A        1.2230   49.2660   15.5250 N.3   904  DUP904     -0.0179
     21  PB         2.5880   49.9710   14.8660 P.3   904  DUP904      0.4700
     22  O1B        3.1690   51.0350   15.7640 O.3   904  DUP904     -0.1252
     23  O2B        2.2060   50.3680   13.4580 O.2   904  DUP904     -0.2350
     24  O3B        3.7100   48.8150   14.7790 O.3   904  DUP904     -0.1901
     25  PG         3.5000   47.4510   13.9430 P.3   904  DUP904      0.5397
     26  O2G        4.7470   47.3890   13.0910 O.2   904  DUP904     -0.2220
     27  O1G        2.1970   47.6390   13.2030 O.3   904  DUP904     -0.1143
     28  O3G        3.4310   46.3700   14.9940 O.3   904  DUP904     -0.1143
@<TRIPOS>BOND
     1    26    25    2
     2    27    25    1
     3    23    21    2
     4    25    24    1
     5    25    28    1
     6    24    21    1
     7    21    20    1
     8    21    22    1
     9    20    17    1
    10    12    11    1
    11    15    14    1
    12    15    16    1
    13    14    11    1
    14    14    13    1
    15    11    10    1
    16    17    19    2
    17    17    16    1
    18    17    18    1
    19    13     9    1
    20    10     9    1
    21     9     8    1
    22     8     4    1
    23     8     6   am
    24     4     3    2
    25     7     6    2
    26     6     5    2
    27     3     2    1
    28     5     2    2
    29     2     1    2
