@<TRIPOS>MOLECULE
3si7_ATP_A_1.pdb
 31 33 0 0 0
SMALL
GASTEIGER

@<TRIPOS>ATOM
      1  PG       159.1450    6.9570   29.2990 P.3     1  ATP1        0.5373
      2  O1G      159.8570    7.0970   27.9730 O.2     1  ATP1       -0.2221
      3  O2G      157.7300    6.4460   29.1680 O.3     1  ATP1       -0.1143
      4  O3G      159.9560    6.2470   30.3640 O.3     1  ATP1       -0.1143
      5  PB       157.8360    9.5370   29.5050 P.3     1  ATP1        0.2277
      6  O1B      157.9520    9.9040   28.0420 O.2     1  ATP1       -0.5168
      7  O2B      156.5130    9.0630   30.0670 O.3     1  ATP1       -0.4368
      8  O3B      158.9990    8.4680   29.8770 O.3     1  ATP1       -0.2258
      9  PA       157.9180   11.1600   31.8570 P.3     1  ATP1        0.2189
     10  O1A      157.9750    9.8690   32.6430 O.3     1  ATP1       -0.4371
     11  O2A      156.6800   12.0330   31.8770 O.2     1  ATP1       -0.5170
     12  O3A      158.3310   10.8290   30.3290 O.3     1  ATP1       -0.2700
     13  O5'      159.1980   12.0650   32.2460 O.3     1  ATP1       -0.3112
     14  C5'      159.1530   13.4920   32.2580 C.3     1  ATP1        0.1813
     15  C4'      160.4960   14.0110   32.7600 C.3     1  ATP1        0.1821
     16  O4'      160.7240   13.5070   34.0780 O.3     1  ATP1       -0.3135
     17  C3'      161.6600   13.5570   31.8940 C.3     1  ATP1        0.2184
     18  O3'      162.3860   14.7030   31.4430 O.3     1  ATP1       -0.2174
     19  C2'      162.5540   12.7190   32.7860 C.3     1  ATP1        0.2570
     20  O2'      163.8830   13.2450   32.7470 O.3     1  ATP1       -0.2130
     21  C1'      161.9840   12.8420   34.1910 C.3     1  ATP1        0.3186
     22  N9       161.7580   11.5060   34.8100 N.pl3   1  ATP1       -0.1439
     23  C8       160.7320   10.6820   34.5200 C.3     1  ATP1        0.3377
     24  N7       160.7890    9.5390   35.2510 N.2     1  ATP1       -0.2095
     25  C5       161.8780    9.6200   36.0390 C.2     1  ATP1        0.2526
     26  C6       162.5250    8.7530   37.0550 C.2     1  ATP1        0.4393
     27  N6       162.0020    7.5430   37.3800 N.pl3   1  ATP1        0.2180
     28  N1       163.6530    9.2100   37.6460 N.2     1  ATP1        0.0021
     29  C2       164.1790   10.4090   37.3290 C.3     1  ATP1        0.5254
     30  N3       163.6440   11.2470   36.4190 N.2     1  ATP1       -0.0055
     31  C4       162.5130   10.9190   35.7470 C.2     1  ATP1        0.3518
@<TRIPOS>BOND
     1     2     1    2
     2     6     5    2
     3     3     1    1
     4     1     8    1
     5     1     4    1
     6     5     8    1
     7     5     7    1
     8     5    12    1
     9    12     9    1
    10    18    17    1
    11     9    11    2
    12     9    13    1
    13     9    10    1
    14    17    15    1
    15    17    19    1
    16    13    14    1
    17    14    15    1
    18    20    19    1
    19    15    16    1
    20    19    21    1
    21    16    21    1
    22    21    22    1
    23    23    22    1
    24    23    24    1
    25    22    31    1
    26    24    25    2
    27    31    25    1
    28    31    30    2
    29    25    26    1
    30    30    29    1
    31    26    27    1
    32    26    28    2
    33    29    28    1
