@<TRIPOS>MOLECULE
3si8_DZ4_A_1.pdb
 30 32 0 0 0
SMALL
GASTEIGER

@<TRIPOS>ATOM
      1  N1        -3.7730    0.2310  -24.5990 N.2   433  DZ4433      0.0021
      2  C2        -3.4030    1.4840  -24.8850 C.3   433  DZ4433      0.5254
      3  N3        -2.6830    2.2130  -24.0240 N.2   433  DZ4433     -0.0055
      4  C4        -2.3180    1.7150  -22.8240 C.2   433  DZ4433      0.3518
      5  C5        -2.6860    0.3780  -22.4850 C.2   433  DZ4433      0.2526
      6  C6        -3.4510   -0.3660  -23.4370 C.2   433  DZ4433      0.4393
      7  N6        -3.8580   -1.6580  -23.1760 N.pl3 433  DZ4433      0.2180
      8  N7        -2.2000    0.1180  -21.2670 N.2   433  DZ4433     -0.2095
      9  C8        -1.5660    1.1690  -20.8250 C.3   433  DZ4433      0.3377
     10  N9        -1.5940    2.1870  -21.7530 N.pl3 433  DZ4433     -0.1460
     11  PA         0.4510    1.5120  -17.0850 P.3   433  DZ4433      0.4623
     12  PB        -0.7630    3.8130  -15.6170 P.3   433  DZ4433      0.4700
     13  PG        -0.3080    2.9770  -13.0380 P.3   433  DZ4433      0.5397
     14  C1'       -1.0130    3.5100  -21.6310 C.3   433  DZ4433      0.2873
     15  O1A        1.5730    1.6520  -16.5150 O.3   433  DZ4433     -0.1255
     16  O1B        0.3580    4.3370  -15.7940 O.3   433  DZ4433     -0.1252
     17  O1G        0.7910    2.4500  -13.5310 O.2   433  DZ4433     -0.2220
     18  C2'       -1.8650    4.3160  -20.6050 C.3   433  DZ4433      0.1151
     19  O2A       -0.0630    0.2510  -17.2860 O.2   433  DZ4433     -0.2354
     20  O2B       -1.6680    4.4580  -16.1880 O.2   433  DZ4433     -0.2350
     21  O2G       -0.1090    3.8400  -12.0440 O.3   433  DZ4433     -0.1143
     22  C3'       -1.0000    4.6170  -19.4020 C.3   433  DZ4433      0.1883
     23  O3'       -1.0480    5.8080  -18.8460 O.3   433  DZ4433     -0.2202
     24  N3A       -0.6860    2.3180  -16.3140 N.3   433  DZ4433     -0.0179
     25  O3B       -1.1080    3.6780  -14.1420 O.3   433  DZ4433     -0.1901
     26  O3G       -1.1050    2.0040  -12.5500 O.3   433  DZ4433     -0.1143
     27  C4'        0.3560    4.1310  -19.9270 C.3   433  DZ4433      0.1796
     28  O4'        0.2390    3.5070  -21.1480 O.3   433  DZ4433     -0.3155
     29  C5'        1.0180    3.3040  -18.8200 C.3   433  DZ4433      0.1848
     30  O5'        0.5290    2.0370  -18.5220 O.3   433  DZ4433     -0.2775
@<TRIPOS>BOND
     1     2     1    1
     2     2     3    1
     3     1     6    2
     4     3     4    2
     5     6     7    1
     6     6     5    1
     7     4     5    1
     8     4    10    1
     9     5     8    2
    10    10    14    1
    11    10     9    1
    12    14    28    1
    13    14    18    1
    14     8     9    1
    15    28    27    1
    16    18    22    1
    17    27    22    1
    18    27    29    1
    19    22    23    1
    20    29    30    1
    21    30    11    1
    22    19    11    2
    23    11    15    1
    24    11    24    1
    25    24    12    1
    26    20    12    2
    27    16    12    1
    28    12    25    1
    29    25    13    1
    30    17    13    2
    31    13    26    1
    32    13    21    1
