@<TRIPOS>MOLECULE
3si8_3D1_A_1.pdb
 18 20 0 0 0
SMALL
GASTEIGER

@<TRIPOS>ATOM
      1  O5'       17.3990  -21.2020  -19.5820 O.3   438  3D1438     -0.2176
      2  C5'       16.2060  -20.7720  -18.9920 C.3   438  3D1438      0.2142
      3  C4'       15.6900  -19.3680  -19.3310 C.3   438  3D1438      0.1824
      4  O4'       14.4920  -19.2680  -19.9970 O.3   438  3D1438     -0.3154
      5  C1'       13.6380  -18.4330  -19.3840 C.3   438  3D1438      0.2874
      6  N9        12.2670  -18.8550  -19.1460 N.pl3 438  3D1438     -0.1460
      7  C4        11.2320  -17.9510  -19.0490 C.2   438  3D1438      0.3518
      8  N3        11.1670  -16.5980  -19.1320 N.2   438  3D1438     -0.0055
      9  C2        10.0060  -15.9540  -19.0060 C.3   438  3D1438      0.5254
     10  N1         8.8700  -16.6270  -18.8030 N.2   438  3D1438      0.0021
     11  C6         8.8290  -17.9800  -18.7080 C.2   438  3D1438      0.4393
     12  N6         7.6360  -18.6350  -18.4990 N.pl3 438  3D1438      0.2180
     13  C5        10.0550  -18.7080  -18.8380 C.2   438  3D1438      0.2526
     14  N7        10.4150  -20.0160  -18.7980 N.2   438  3D1438     -0.2095
     15  C8        11.7210  -20.1130  -18.9800 C.3   438  3D1438      0.3377
     16  C2'       14.2770  -17.9810  -18.0640 C.3   438  3D1438      0.1151
     17  C3'       15.7020  -18.4700  -18.0540 C.3   438  3D1438      0.1884
     18  O3'       16.6620  -17.5550  -17.9560 O.3   438  3D1438     -0.2202
@<TRIPOS>BOND
     1     4     5    1
     2     4     3    1
     3     1     2    1
     4     5     6    1
     5     5    16    1
     6     3     2    1
     7     3    17    1
     8     6     7    1
     9     6    15    1
    10     8     7    2
    11     8     9    1
    12     7    13    1
    13     9    10    1
    14    15    14    1
    15    13    14    2
    16    13    11    1
    17    10    11    2
    18    11    12    1
    19    16    17    1
    20    17    18    1
