@<TRIPOS>MOLECULE
3sie_5BO_A_1.pdb
 30 32 0 0 0
SMALL
GASTEIGER

@<TRIPOS>ATOM
      1  CAA      -24.1770   -6.4040   -1.7950 C.3     1  5BO1        0.0040
      2  CAB      -17.7680   -3.6950    1.3950 C.3     1  5BO1        0.0076
      3  CAC      -15.6730   -4.6030  -11.2370 C.3     1  5BO1        0.0897
      4  OAD      -20.5590   -8.1180   -0.2310 O.2     1  5BO1       -0.2122
      5  OAE      -16.4180   -4.4920   -6.3050 O.2     1  5BO1       -0.1528
      6  OAF      -17.2450   -2.1430   -6.4630 O.2     1  5BO1       -0.1528
      7 BRAG      -18.5340   -7.2490    1.8980 Br      1  5BO1       -0.0551
      8  CAH      -20.1860   -3.7180   -5.9400 C.ar    1  5BO1        0.0231
      9  CAI      -21.2620   -4.0490   -5.1230 C.ar    1  5BO1        0.0390
     10  CAJ      -18.6590   -4.5760   -4.3030 C.ar    1  5BO1        0.0350
     11  CAK      -24.3410   -5.0420   -2.4870 C.3     1  5BO1        0.0473
     12  CAL      -17.1160   -4.7610    0.4960 C.3     1  5BO1        0.0575
     13  CAM      -23.3480   -4.8610   -3.6510 C.3     1  5BO1        0.2054
     14  CAN      -16.7930   -5.4300   -9.1300 C.3     1  5BO1        0.0915
     15  CAO      -16.7660   -2.9340   -9.6470 C.3     1  5BO1        0.0915
     16  CAP      -18.2500   -5.2300   -8.7190 C.3     1  5BO1        0.1131
     17  CAQ      -18.2250   -2.9250   -9.2000 C.3     1  5BO1        0.1131
     18  NAR      -18.5050   -4.9780   -1.5310 N.2     1  5BO1       -0.3460
     19  NAS      -20.2180   -6.5650   -1.8170 N.2     1  5BO1       -0.2691
     20  OAT      -22.0460   -4.9560   -3.0720 O.3     1  5BO1       -0.4747
     21  CAU      -18.8920   -4.0450   -5.5570 C.ar    1  5BO1        0.1231
     22  CAV      -21.0240   -4.7050   -3.9140 C.ar    1  5BO1        0.1499
     23  CAW      -18.2150   -5.4580   -0.3080 C.2     1  5BO1        0.1262
     24  CAX      -18.9250   -6.5530    0.1720 C.3     1  5BO1        0.2234
     25  CAY      -19.7210   -5.0350   -3.5510 C.ar    1  5BO1        0.1215
     26  CAZ      -19.3950   -5.5880   -2.3230 C.1     1  5BO1        0.1521
     27  CBA      -19.9090   -7.1500   -0.6130 C.1     1  5BO1        0.2068
     28  NBB      -16.5760   -4.3380  -10.1030 N.3     1  5BO1       -0.2690
     29  NBC      -18.4830   -3.8960   -8.1010 N.3     1  5BO1       -0.1527
     30  SBD      -17.5970   -3.6050   -6.6180 S.O2    1  5BO1        0.0634
@<TRIPOS>BOND
     1     3    28    1
     2    28    15    1
     3    28    14    1
     4    15    17    1
     5    17    29    1
     6    14    16    1
     7    16    29    1
     8    29    30    1
     9    30     6    2
    10    30     5    2
    11    30    21    1
    12     8    21   ar
    13     8     9   ar
    14    21    10   ar
    15     9    22   ar
    16    10    25   ar
    17    22    25   ar
    18    22    20    1
    19    13    20    1
    20    13    11    1
    21    25    26    1
    22    11     1    1
    23    26    19    2
    24    26    18    2
    25    19    27    2
    26    18    23    2
    27    27     4    2
    28    27    24    1
    29    23    24    1
    30    23    12    1
    31    24     7    1
    32    12     2    1
