@<TRIPOS>MOLECULE
3sig_AR6_A_1.pdb
 50 53 0 0 0
SMALL
GASTEIGER

@<TRIPOS>ATOM
      1  N1         9.3620   -6.3400  -10.9580 N.2   280  AR6280      0.0021
      2  C2         8.3060   -5.5900  -11.2580 C.3   280  AR6280      0.5254
      3  N3         8.1250   -4.8920  -12.4160 N.2   280  AR6280     -0.0055
      4  C4         9.1390   -5.0410  -13.2990 C.2   280  AR6280      0.3518
      5  C5        10.3000   -5.8470  -13.0260 C.2   280  AR6280      0.2526
      6  C6        10.3350   -6.4850  -11.8140 C.2   280  AR6280      0.4393
      7  N6        11.4440   -7.2630  -11.4780 N.pl3 280  AR6280      0.2180
      8  N7        11.1230   -5.7670  -14.2050 N.2   280  AR6280     -0.2095
      9  C8        10.5190   -4.9750  -15.0260 C.3   280  AR6280      0.3377
     10  N9         9.3290   -4.4910  -14.5690 N.pl3 280  AR6280     -0.1439
     11  PA         8.9770   -7.1740  -18.8370 P.3   280  AR6280      0.2182
     12  PB         7.0200   -8.2660  -20.8000 P.3   280  AR6280      0.2182
     13  C1'        8.3280   -3.6130  -15.1690 C.3   280  AR6280      0.3176
     14  O1A        9.5400   -6.3200  -19.9160 O.2   280  AR6280     -0.5170
     15  O1B        5.8110   -9.1210  -20.4760 O.3   280  AR6280     -0.4371
     16  C1D       11.3630  -11.4090  -20.8400 C.3   280  AR6280      0.1854
     17  O1D       12.5510  -11.5660  -21.5640 O.3   280  AR6280     -0.3649
     18  C2'        8.8840   -2.6650  -16.2100 C.3   280  AR6280      0.2469
     19  O2'        8.1930   -1.4480  -16.1640 O.3   280  AR6280     -0.2136
     20  O2A        9.9150   -8.0950  -18.1000 O.3   280  AR6280     -0.4371
     21  O2B        6.8000   -6.9590  -21.4840 O.2   280  AR6280     -0.5170
     22  C2D       10.5700  -12.6450  -21.0090 C.3   280  AR6280      0.1339
     23  O2D       11.2290  -13.8500  -20.8280 O.3   280  AR6280     -0.3841
     24  C3'        8.5760   -3.3780  -17.4760 C.3   280  AR6280      0.1256
     25  O3'        8.3910   -2.5110  -18.5470 O.3   280  AR6280     -0.3858
     26  O3A        7.7340   -7.9900  -19.4010 O.3   280  AR6280     -0.2703
     27  C3D        9.7070  -12.3860  -22.1690 C.3   280  AR6280      0.1141
     28  O3D       10.4700  -12.8150  -23.2660 O.3   280  AR6280     -0.3864
     29  C4'        7.3220   -4.1510  -17.1860 C.3   280  AR6280      0.1162
     30  O4'        7.2870   -4.3260  -15.7870 O.3   280  AR6280     -0.3214
     31  C4D        9.5270  -10.9100  -22.1180 C.3   280  AR6280      0.1138
     32  O4D       10.6170  -10.3490  -21.4020 O.3   280  AR6280     -0.3407
     33  C5'        7.1860   -5.4890  -17.9000 C.3   280  AR6280      0.0837
     34  O5'        8.3190   -6.3050  -17.6500 O.3   280  AR6280     -0.3246
     35  C5D        8.2030  -10.4740  -21.4920 C.3   280  AR6280      0.0837
     36  O5D        8.0850   -9.0720  -21.6430 O.3   280  AR6280     -0.3246
     37  H1D       11.5370  -11.2560  -19.8900 H     280  AR6280      0.0935
     38  H2D       10.1380  -13.0070  -20.2370 H     280  AR6280      0.0671
     39 HO2D       10.8340  -14.3100  -20.1690 H     280  AR6280      0.2101
     40  H3'        9.2930   -3.9880  -17.6840 H     280  AR6280      0.0654
     41 HO3'        8.8030   -2.8380  -19.2700 H     280  AR6280      0.2100
     42  H3D        8.8660  -12.8540  -22.0930 H     280  AR6280      0.0648
     43 HO3D       10.2240  -13.6330  -23.4950 H     280  AR6280      0.2100
     44  H4'        6.5780   -3.6000  -17.4680 H     280  AR6280      0.0648
     45  H4D        9.5060  -10.5810  -23.0380 H     280  AR6280      0.0647
     46  H5'        6.3810   -5.9470  -17.5890 H     280  AR6280      0.0591
     47 H5'A        7.1140   -5.3270  -18.8680 H     280  AR6280      0.0591
     48  H5D        8.1980  -10.7050  -20.5420 H     280  AR6280      0.0591
     49 H5DA        7.4630  -10.9160  -21.9410 H     280  AR6280      0.0591
     50  HD1       13.2430  -11.4080  -21.0330 H     280  AR6280      0.2126
@<TRIPOS>BOND
     1    43    28    1
     2    28    27    1
     3    45    31    1
     4    27    31    1
     5    27    42    1
     6    27    22    1
     7    31    35    1
     8    31    32    1
     9    49    35    1
    10    36    35    1
    11    36    12    1
    12    17    50    1
    13    17    16    1
    14    35    48    1
    15    21    12    2
    16    32    16    1
    17    22    16    1
    18    22    23    1
    19    22    38    1
    20    16    37    1
    21    23    39    1
    22    12    15    1
    23    12    26    1
    24    14    11    2
    25    26    11    1
    26    41    25    1
    27    47    33    1
    28    11    20    1
    29    11    34    1
    30    25    24    1
    31    33    34    1
    32    33    46    1
    33    33    29    1
    34    40    24    1
    35    24    29    1
    36    24    18    1
    37    44    29    1
    38    29    30    1
    39    18    19    1
    40    18    13    1
    41    30    13    1
    42    13    10    1
    43     9    10    1
    44     9     8    1
    45    10     4    1
    46     8     5    2
    47     4     5    1
    48     4     3    2
    49     5     6    1
    50     3     2    1
    51     6     7    1
    52     6     1    2
    53     2     1    1
