@<TRIPOS>MOLECULE
3sik_HEM_A_1.pdb
 43 50 0 0 0
SMALL
GASTEIGER

@<TRIPOS>ATOM
      1  CHA       33.2530    4.5810   -0.1380 C.2   154  HEM154      0.0000
      2  CHB       28.4670    3.7440   -0.3510 C.2   154  HEM154      0.0000
      3  CHC       29.4080   -1.0110   -0.4940 C.2   154  HEM154      0.0000
      4  CHD       34.1880   -0.1360   -0.9560 C.2   154  HEM154      0.0000
      5  C1A       31.8790    4.7570   -0.1800 C.2   154  HEM154      0.0000
      6  C2A       31.1960    6.0450   -0.1390 C.2   154  HEM154      0.0000
      7  C3A       29.8710    5.8110   -0.1890 C.2   154  HEM154      0.0000
      8  C4A       29.6770    4.3830   -0.2760 C.2   154  HEM154      0.0000
      9  CMA       28.7280    6.8480   -0.1650 C.3   154  HEM154      0.0000
     10  CAA       31.9340    7.4110   -0.0310 C.3   154  HEM154      0.0000
     11  CBA       31.2690    8.5800   -0.7680 C.3   154  HEM154      0.0000
     12  CGA       31.1380    8.3750   -2.2600 C.2   154  HEM154      0.0000
     13  O1A       31.8860    7.5870   -2.8810 O.co2 154  HEM154      0.0000
     14  O2A       30.2620    9.0320   -2.8510 O.co2 154  HEM154      0.0000
     15  C1B       28.3100    2.3840   -0.3830 C.ar  154  HEM154      0.0000
     16  C2B       27.0500    1.6920   -0.3940 C.ar  154  HEM154      0.0000
     17  C3B       27.2820    0.3770   -0.4460 C.ar  154  HEM154      0.0000
     18  C4B       28.7240    0.1920   -0.4550 C.ar  154  HEM154      0.0000
     19  CMB       25.6920    2.4080   -0.3720 C.3   154  HEM154      0.0000
     20  CAB       26.2290   -0.7570   -0.4590 C.2   154  HEM154      0.0000
     21  CBB       24.9340   -0.5240   -0.2180 C.2   154  HEM154      0.0000
     22  C1C       30.7830   -1.1880   -0.6240 C.2   154  HEM154      0.0000
     23  C2C       31.4870   -2.4620   -0.6870 C.2   154  HEM154      0.0000
     24  C3C       32.7940   -2.2180   -0.8140 C.2   154  HEM154      0.0000
     25  C4C       32.9830   -0.7850   -0.8330 C.2   154  HEM154      0.0000
     26  CMC       30.8240   -3.8530   -0.6260 C.3   154  HEM154      0.0000
     27  CAC       33.9210   -3.2580   -0.9170 C.2   154  HEM154      0.0000
     28  CBC       33.6760   -4.5610   -0.7830 C.2   154  HEM154      0.0000
     29  C1D       34.4120    1.2060   -0.7440 C.ar  154  HEM154      0.0000
     30  C2D       35.7050    1.8500   -0.6830 C.ar  154  HEM154      0.0000
     31  C3D       35.4170    3.3210   -0.4210 C.ar  154  HEM154      0.0000
     32  C4D       33.9740    3.4250   -0.3530 C.ar  154  HEM154      0.0000
     33  CMD       37.0940    1.2100   -0.8400 C.3   154  HEM154      0.0000
     34  CAD       36.4740    4.4250   -0.2610 C.3   154  HEM154      0.0000
     35  CBD       36.6760    4.6460    1.2390 C.3   154  HEM154      0.0000
     36  CGD       37.5560    5.8460    1.5030 C.2   154  HEM154      0.0000
     37  O1D       38.4520    6.1520    0.6780 O.co2 154  HEM154      0.0000
     38  O2D       37.3810    6.5120    2.5530 O.co2 154  HEM154      0.0000
     39  NA        30.9160    3.7660   -0.2670 N.2   154  HEM154      0.0000
     40  NB        29.3160    1.4420   -0.4160 N.ar  154  HEM154      0.0000
     41  NC        31.7410   -0.1840   -0.7180 N.2   154  HEM154      0.0000
     42  ND        33.4220    2.1600   -0.5420 N.ar  154  HEM154      0.0000
     43 FE         31.3470    1.7210   -0.3060 Fe    154  HEM154      0.0000
@<TRIPOS>BOND
     1    13    12   ar
     2    14    12   ar
     3    12    11    1
     4     4    25    1
     5     4    29    2
     6    27    24    1
     7    27    28    2
     8    33    30    1
     9    25    24    1
    10    25    41    2
    11    24    23    2
    12    11    10    1
    13    29    30   ar
    14    29    42   ar
    15    41    22    1
    16    41    43    1
    17    23    26    1
    18    23    22    1
    19    30    31   ar
    20    22     3    2
    21    42    32   ar
    22    42    43    1
    23     3    18    1
    24    20    17    1
    25    20    21    2
    26    18    17   ar
    27    18    40   ar
    28    17    16   ar
    29    31    32   ar
    30    31    34    1
    31    40    15   ar
    32    40    43    1
    33    16    15   ar
    34    16    19    1
    35    15     2    1
    36    32     1    2
    37     2     8    2
    38    43    39    1
    39     8    39    1
    40     8     7    1
    41    39     5    2
    42    34    35    1
    43     7     9    1
    44     7     6    2
    45     5     6    1
    46     5     1    1
    47     6    10    1
    48    37    36   ar
    49    35    36    1
    50    36    38   ar
