@<TRIPOS>MOLECULE
3sin_ZD9_A_1.pdb
 18 19 0 0 0
SMALL
GASTEIGER

@<TRIPOS>ATOM
      1  C1        66.5270   48.7200   26.0950 C.1   700  ZD9700      0.2162
      2  N2        67.3820   48.8720   27.1670 N.2   700  ZD9700     -0.2706
      3  C3        67.3960   47.9500   28.1880 C.1   700  ZD9700      0.1269
      4  N4        66.6250   46.9100   28.1930 N.2   700  ZD9700     -0.3421
      5  C5        65.7270   46.6270   27.2020 C.2   700  ZD9700      0.1545
      6  C6        65.6060   47.5050   26.0790 C.2   700  ZD9700      0.1218
      7  O7        66.4830   49.5150   25.1680 O.2   700  ZD9700     -0.2085
      8  C8        64.6700   47.2240   25.0420 C.2   700  ZD9700     -0.0053
      9  C9        63.8450   46.0630   25.1060 C.3   700  ZD9700      0.0636
     10  C10       63.9670   45.1720   26.2340 C.2   700  ZD9700     -0.0358
     11  C11       64.9130   45.4700   27.2720 C.2   700  ZD9700      0.0257
     12  C12       62.8530   45.8260   23.9430 C.3   700  ZD9700      0.1309
     13  N13       63.3020   44.8140   23.1500 N.pl3 700  ZD9700     -0.1890
     14  C14       62.5810   44.7560   22.1930 C.1   700  ZD9700      0.0183
     15  C15       62.2790   44.5020   21.3990 C.1   700  ZD9700     -0.0689
     16  C16       62.1550   44.1320   19.9860 C.3   700  ZD9700      0.0917
     17  C38       63.1140   43.8980   26.3740 C.3   700  ZD9700      0.0268
     18  C39       68.3440   48.1490   29.3470 C.3   700  ZD9700      0.1438
@<TRIPOS>BOND
     1    16    15    1
     2    15    14    3
     3    14    13    1
     4    13    12    1
     5    12     9    1
     6     8     9    1
     7     8     6    2
     8     9    10    1
     9     7     1    2
    10     6     1    1
    11     6     5    1
    12     1     2    2
    13    10    17    1
    14    10    11    2
    15     2     3    2
    16     5    11    1
    17     5     4    2
    18     3     4    2
    19     3    18    1
