@<TRIPOS>MOLECULE
3sio_MLK_A_1.pdb
 49 56 0 0 0
SMALL
GASTEIGER

@<TRIPOS>ATOM
      1  O8       -37.6130   -7.8750  -19.3830 O.2   260  MLK260     -0.2741
      2  C8       -38.4430   -8.3070  -20.1510 C.2   260  MLK260      0.2356
      3  C9       -38.1660   -9.2050  -21.3480 C.3   260  MLK260      0.0951
      4  C10      -39.5170   -9.2460  -22.0830 C.3   260  MLK260      0.0865
      5  C12      -39.4040   -8.5660  -23.4510 C.3   260  MLK260      0.0101
      6  C11      -40.4450   -8.4800  -21.1490 C.2   260  MLK260      0.2351
      7  O11      -41.6320   -8.2880  -21.3310 O.2   260  MLK260     -0.2741
      8  N7       -39.7550   -8.0520  -20.0750 N.am  260  MLK260     -0.2079
      9  C6       -40.3650   -7.4150  -18.9800 C.ar  260  MLK260      0.0668
     10  C5       -41.0100   -8.1820  -18.0120 C.ar  260  MLK260      0.0155
     11  C4       -41.6260   -7.5840  -16.9220 C.ar  260  MLK260      0.0013
     12  C3       -41.6170   -6.2060  -16.7760 C.ar  260  MLK260      0.0003
     13  C2       -40.9840   -5.4270  -17.7230 C.ar  260  MLK260      0.0077
     14  C1       -40.3550   -6.0120  -18.8330 C.ar  260  MLK260      0.0897
     15  C13      -39.6840   -5.1300  -19.8150 C.2   260  MLK260      0.3424
     16  O13      -39.2540   -5.5660  -20.8690 O.2   260  MLK260     -0.2448
     17  O14      -39.5180   -3.8270  -19.5160 O.3   260  MLK260     -0.4454
     18  C15      -38.5480   -3.0440  -20.2560 C.3   260  MLK260      0.2100
     19  C16      -38.2760   -1.7610  -19.4760 C.3   260  MLK260      0.0577
     20  C21      -39.5990   -1.2170  -18.9370 C.3   260  MLK260      0.0075
     21  C20      -39.4780   -0.7410  -17.4850 C.3   260  MLK260      0.0298
     22  C19      -38.1980    0.0380  -17.2370 C.3   260  MLK260      0.1166
     23  O19      -38.3210    1.3090  -17.9020 O.3   260  MLK260     -0.3535
     24  C22      -39.0960    2.1820  -17.0660 C.3   260  MLK260      0.1740
     25  C18      -36.9430   -0.7210  -17.6310 C.3   260  MLK260      0.0436
     26  C17      -37.2900   -2.0650  -18.3140 C.3   260  MLK260      0.0382
     27  C26      -36.0720   -0.0610  -18.7500 C.3   260  MLK260      0.0926
     28  N23      -36.9670    0.3270  -19.8370 N.3   260  MLK260     -0.2715
     29  C24      -36.3100    1.1880  -20.8200 C.3   260  MLK260      0.0722
     30  C25      -35.9200    2.5170  -20.1740 C.3   260  MLK260      0.0188
     31  C23      -37.6980   -0.7520  -20.4760 C.3   260  MLK260      0.0757
     32  C30      -36.0730   -0.8830  -16.3760 C.3   260  MLK260      0.0086
     33  C33      -35.6300    0.4670  -15.7810 C.3   260  MLK260      0.0051
     34  C34      -34.1190    0.3300  -15.4510 C.3   260  MLK260      0.0546
     35  C35      -33.3620    0.8930  -16.6760 C.3   260  MLK260      0.1201
     36  O35      -32.0750    1.4040  -16.3180 O.3   260  MLK260     -0.3534
     37  C37      -32.2880    2.7830  -16.0040 C.3   260  MLK260      0.1740
     38  C36      -33.2940   -0.0280  -17.8890 C.3   260  MLK260      0.0627
     39  C31      -34.7650   -1.6910  -16.5680 C.3   260  MLK260      0.0580
     40  C38      -33.8810   -1.2010  -15.3680 C.3   260  MLK260      0.1200
     41  O38      -32.4930   -1.5310  -15.4520 O.3   260  MLK260     -0.3534
     42  C39      -32.2750   -2.8430  -14.9260 C.3   260  MLK260      0.1740
     43  C32      -34.0670   -1.3400  -17.8830 C.3   260  MLK260      0.1601
     44  O32      -33.1390   -2.4070  -18.1880 O.3   260  MLK260     -0.2228
     45  C27      -35.0890   -1.2330  -19.0640 C.3   260  MLK260      0.1900
     46  O27      -34.4070   -1.1090  -20.3270 O.3   260  MLK260     -0.2192
     47  C28      -36.0050   -2.4880  -19.0770 C.3   260  MLK260      0.1469
     48  O28      -35.3980   -3.6330  -18.4990 O.3   260  MLK260     -0.3509
     49  C29      -36.1080   -4.8000  -18.9170 C.3   260  MLK260      0.1741
@<TRIPOS>BOND
     1     5     4    1
     2     4     3    1
     3     4     6    1
     4     3     2    1
     5     7     6    2
     6     6     8   am
     7    16    15    2
     8    29    30    1
     9    29    28    1
    10    31    28    1
    11    31    19    1
    12    46    45    1
    13    18    17    1
    14    18    19    1
    15     2     8   am
    16     2     1    2
    17     8     9    1
    18    28    27    1
    19    15    17    1
    20    15    14    1
    21    19    20    1
    22    19    26    1
    23    47    45    1
    24    47    48    1
    25    47    26    1
    26    45    27    1
    27    45    43    1
    28     9    14   ar
    29     9    10   ar
    30    20    21    1
    31    49    48    1
    32    14    13   ar
    33    27    25    1
    34    26    25    1
    35    44    43    1
    36    10    11   ar
    37    23    22    1
    38    23    24    1
    39    38    43    1
    40    38    35    1
    41    43    39    1
    42    13    12   ar
    43    25    22    1
    44    25    32    1
    45    21    22    1
    46    11    12   ar
    47    35    36    1
    48    35    34    1
    49    39    32    1
    50    39    40    1
    51    32    33    1
    52    36    37    1
    53    33    34    1
    54    41    40    1
    55    41    42    1
    56    34    40    1
