@<TRIPOS>MOLECULE
3sis_MN0_A_1.pdb
 23 23 0 0 0
SMALL
GASTEIGER

@<TRIPOS>ATOM
      1  C1         3.3730   47.2390    6.2500 C.2   6535  MN06535     0.4152
      2  C2         1.8770   46.9330    6.5380 C.3   6535  MN06535     0.2863
      3  O2         1.5650   47.3590    7.8960 O.3   6535  MN06535    -0.3233
      4  C3         0.9920   47.7470    5.5670 C.3   6535  MN06535     0.1028
      5  C4         1.0260   47.1860    4.1320 C.3   6535  MN06535     0.1797
      6  O4         0.0760   47.8670    3.3060 O.3   6535  MN06535    -0.2210
      7  C5         0.7300   45.6910    4.0990 C.3   6535  MN06535     0.1555
      8  N5         0.8020   45.2470    2.6920 N.am  6535  MN06535    -0.1998
      9  C6         1.6940   44.9490    5.0370 C.3   6535  MN06535     0.1733
     10  O6         1.5640   45.5180    6.3890 O.3   6535  MN06535    -0.3239
     11  C7         1.5240   43.4480    5.2690 C.3   6535  MN06535     0.2135
     12  O7         0.1710   43.1520    5.6260 O.3   6535  MN06535    -0.2176
     13  C8         2.4670   42.9610    6.3840 C.3   6535  MN06535     0.2173
     14  O8         3.7480   43.5820    6.2290 O.3   6535  MN06535    -0.2175
     15  C9         2.6390   41.4500    6.3430 C.3   6535  MN06535     0.2175
     16  O9         3.3400   41.0350    7.5150 O.3   6535  MN06535    -0.2175
     17  C10        0.0130   44.2930    2.1920 C.2   6535  MN06535     0.2751
     18  O10       -0.7970   43.6570    2.8640 O.2   6535  MN06535    -0.2705
     19  C11        0.1470   43.9450    0.7120 C.3   6535  MN06535     0.2680
     20  O11        1.0230   44.6670   -0.0400 O.3   6535  MN06535    -0.2098
     21  C12        1.4390   46.3160    8.9230 C.3   6535  MN06535     0.1772
     22  O1B        4.1660   46.2720    6.1760 O.co2 6535  MN06535    -0.2402
     23  O1A        3.7010   48.4350    6.1210 O.co2 6535  MN06535    -0.2402
@<TRIPOS>BOND
     1    20    19    1
     2    19    17    1
     3    17     8   am
     4    17    18    2
     5     8     7    1
     6     6     5    1
     7     7     5    1
     8     7     9    1
     9     5     4    1
    10     9    11    1
    11     9    10    1
    12    11    12    1
    13    11    13    1
    14     4     2    1
    15    23     1   ar
    16    22     1   ar
    17    14    13    1
    18     1     2    1
    19    15    13    1
    20    15    16    1
    21    10     2    1
    22     2     3    1
    23     3    21    1
