@<TRIPOS>MOLECULE
3sit_SIA_A_1.pdb
 20 20 0 0 0
SMALL
GASTEIGER

@<TRIPOS>ATOM
      1  C1         4.6270   19.3450   62.6770 C.2   6535  SIA6535     0.3914
      2  C2         3.1160   19.1590   62.9240 C.3   6535  SIA6535     0.2203
      3  C3         2.2670   20.0340   61.9600 C.3   6535  SIA6535     0.0760
      4  C4         2.2350   19.4550   60.5300 C.3   6535  SIA6535     0.1773
      5  C5         1.8940   17.9610   60.5030 C.3   6535  SIA6535     0.1552
      6  C6         2.8150   17.1900   61.4660 C.3   6535  SIA6535     0.1710
      7  C7         2.5680   15.6870   61.6610 C.3   6535  SIA6535     0.2134
      8  C8         3.4410   15.1240   62.7990 C.3   6535  SIA6535     0.2173
      9  C9         3.5370   13.6010   62.7450 C.3   6535  SIA6535     0.2175
     10  C10        1.2590   16.5590   58.5670 C.2   6535  SIA6535     0.2420
     11  C11        1.6010   16.1920   57.1170 C.3   6535  SIA6535     0.0964
     12  N5         2.0620   17.4700   59.1240 N.am  6535  SIA6535    -0.2020
     13  O1A        5.0200   20.4860   62.3530 O.co2 6535  SIA6535    -0.2430
     14  O1B        5.3660   18.3550   62.8760 O.co2 6535  SIA6535    -0.2430
     15  O4         1.2840   20.1710   59.7360 O.3   6535  SIA6535    -0.2211
     16  O6         2.7320   17.7740   62.7990 O.3   6535  SIA6535    -0.3429
     17  O7         1.1860   15.4460   61.9550 O.3   6535  SIA6535    -0.2176
     18  O8         4.7570   15.6910   62.7350 O.3   6535  SIA6535    -0.2175
     19  O9         4.2580   13.1500   63.9000 O.3   6535  SIA6535    -0.2175
     20  O10        0.3110   16.0240   59.1430 O.2   6535  SIA6535    -0.2733
@<TRIPOS>BOND
     1    11    10    1
     2    10    12   am
     3    10    20    2
     4    12     5    1
     5    15     4    1
     6     5     4    1
     7     5     6    1
     8     4     3    1
     9     6     7    1
    10     6    16    1
    11     7    17    1
    12     7     8    1
    13     3     2    1
    14    13     1   ar
    15     1    14   ar
    16     1     2    1
    17    18     8    1
    18     9     8    1
    19     9    19    1
    20    16     2    1
