@<TRIPOS>MOLECULE
3siw_GDP_A_1.pdb
 28 30 0 0 0
SMALL
GASTEIGER

@<TRIPOS>ATOM
      1  PB        12.5050   41.9080    9.0480 P.3   400  GDP400      0.5373
      2  O1B       10.9590   41.8360    9.5980 O.3   400  GDP400     -0.1143
      3  O2B       13.4910   40.8080    9.3880 O.2   400  GDP400     -0.2221
      4  O3B       13.0520   43.3360    9.5770 O.3   400  GDP400     -0.1143
      5  O3A       12.3050   41.8660    7.3790 O.3   400  GDP400     -0.2261
      6  PA        12.1900   43.0810    6.3230 P.3   400  GDP400      0.2231
      7  O1A       12.2730   42.4940    4.9330 O.2   400  GDP400     -0.5169
      8  O2A       11.0690   43.9890    6.5990 O.3   400  GDP400     -0.4370
      9  O5'       13.6290   43.8890    6.7240 O.3   400  GDP400     -0.3111
     10  C5'       14.8510   43.1930    6.6090 C.3   400  GDP400      0.1813
     11  C4'       15.7980   43.8470    5.6320 C.3   400  GDP400      0.1799
     12  O4'       17.1820   43.4700    6.0280 O.3   400  GDP400     -0.3326
     13  C3'       15.5290   43.0670    4.3700 C.3   400  GDP400      0.2158
     14  O3'       14.5100   43.6020    3.5340 O.3   400  GDP400     -0.2175
     15  C2'       16.8840   43.2130    3.6770 C.3   400  GDP400      0.2310
     16  O2'       17.0430   44.5700    3.1510 O.3   400  GDP400     -0.2158
     17  C1'       17.8530   42.9180    4.8630 C.3   400  GDP400      0.2293
     18  N9        17.9410   41.4550    4.9890 N.pl3 400  GDP400     -0.2354
     19  C8        17.4720   40.6580    5.9820 C.3   400  GDP400      0.2246
     20  N7        17.7480   39.3770    5.6830 N.2   400  GDP400     -0.2322
     21  C5        18.3410   39.3430    4.4800 C.2   400  GDP400      0.2182
     22  C6        18.8430   38.3310    3.6570 C.1   400  GDP400      0.2372
     23  O6        18.7780   37.1350    3.9600 O.2   400  GDP400     -0.2069
     24  N1        19.4100   38.6690    2.4120 N.2   400  GDP400     -0.2485
     25  C2        19.4990   40.0120    2.0360 C.1   400  GDP400      0.2531
     26  N2        20.0620   40.3590    0.8550 N.pl3 400  GDP400     -0.0226
     27  N3        19.0380   40.9530    2.8660 N.2   400  GDP400     -0.3074
     28  C4        18.4560   40.6620    4.0450 C.2   400  GDP400      0.2300
@<TRIPOS>BOND
     1    26    25    1
     2    25    24    2
     3    25    27    2
     4    24    22    2
     5    27    28    2
     6    16    15    1
     7    14    13    1
     8    22    23    2
     9    22    21    1
    10    15    13    1
    11    15    17    1
    12    28    21    1
    13    28    18    1
    14    13    11    1
    15    21    20    2
    16    17    18    1
    17    17    12    1
    18     7     6    2
    19    18    19    1
    20    11    12    1
    21    11    10    1
    22    20    19    1
    23     6     8    1
    24     6     9    1
    25     6     5    1
    26    10     9    1
    27     5     1    1
    28     1     3    2
    29     1     4    1
    30     1     2    1
