@<TRIPOS>MOLECULE
3six_GDP_A_1.pdb
 28 30 0 0 0
SMALL
GASTEIGER

@<TRIPOS>ATOM
      1  PB        15.8230   47.4510   11.0600 P.3   401  GDP401      0.5373
      2  O1B       14.8410   47.6550   12.3660 O.3   401  GDP401     -0.1143
      3  O2B       15.7780   48.6700   10.2010 O.2   401  GDP401     -0.2221
      4  O3B       15.2390   46.1150   10.3090 O.3   401  GDP401     -0.1143
      5  O3A       17.3740   47.0720   11.6580 O.3   401  GDP401     -0.2261
      6  PA        18.2480   45.6740   11.3360 P.3   401  GDP401      0.2231
      7  O1A       19.6770   46.0770   11.0760 O.2   401  GDP401     -0.5169
      8  O2A       17.9490   44.6070   12.3440 O.3   401  GDP401     -0.4370
      9  O5'       17.6200   45.1740    9.8930 O.3   401  GDP401     -0.3111
     10  C5'       18.5280   44.8050    8.8190 C.3   401  GDP401      0.1813
     11  C4'       18.7190   45.8610    7.6910 C.3   401  GDP401      0.1799
     12  O4'       19.4380   45.1510    6.5720 O.3   401  GDP401     -0.3326
     13  C3'       17.3630   46.2310    7.1220 C.3   401  GDP401      0.2158
     14  O3'       17.5220   47.2650    6.1520 O.3   401  GDP401     -0.2175
     15  C2'       17.0700   44.9280    6.3980 C.3   401  GDP401      0.2310
     16  O2'       15.9930   45.0990    5.4870 O.3   401  GDP401     -0.2158
     17  C1'       18.4230   44.6270    5.6800 C.3   401  GDP401      0.2293
     18  N9        18.6480   43.1610    5.5760 N.pl3 401  GDP401     -0.2354
     19  C8        18.1840   42.2570    6.4640 C.3   401  GDP401      0.2246
     20  N7        18.5530   41.0350    6.0950 N.2   401  GDP401     -0.2322
     21  C5        19.2430   41.1620    4.9540 C.2   401  GDP401      0.2182
     22  C6        19.8540   40.2210    4.1310 C.1   401  GDP401      0.2372
     23  O6        19.7810   39.0210    4.4330 O.2   401  GDP401     -0.2069
     24  N1        20.5330   40.6640    2.9610 N.2   401  GDP401     -0.2485
     25  C2        20.5860   42.0150    2.6970 C.1   401  GDP401      0.2531
     26  N2        21.2260   42.4210    1.6080 N.pl3 401  GDP401     -0.0226
     27  N3        19.9690   42.8880    3.5210 N.2   401  GDP401     -0.3074
     28  C4        19.3230   42.5050    4.6260 C.2   401  GDP401      0.2300
@<TRIPOS>BOND
     1    26    25    1
     2    25    24    2
     3    25    27    2
     4    24    22    2
     5    27    28    2
     6    22    23    2
     7    22    21    1
     8    28    21    1
     9    28    18    1
    10    21    20    2
    11    16    15    1
    12    18    17    1
    13    18    19    1
    14    17    15    1
    15    17    12    1
    16    20    19    1
    17    14    13    1
    18    15    13    1
    19    12    11    1
    20    13    11    1
    21    11    10    1
    22    10     9    1
    23     9     6    1
    24     3     1    2
    25     4     1    1
    26     1     5    1
    27     1     2    1
    28     7     6    2
    29     6     5    1
    30     6     8    1
