@<TRIPOS>MOLECULE
3siz_BMP_A_1.pdb
 22 23 0 0 0
SMALL
GASTEIGER

@<TRIPOS>ATOM
      1  P         25.1040   -2.4000    8.4060 P.3   229  BMP229      0.5327
      2  OP1       24.3820   -3.2060    7.3830 O.2   229  BMP229     -0.2224
      3  OP2       25.8470   -3.3000    9.4770 O.3   229  BMP229     -0.1145
      4  OP3       26.0820   -1.3600    7.7470 O.3   229  BMP229     -0.1145
      5  O5'       24.0790   -1.6210    9.3330 O.3   229  BMP229     -0.2675
      6  C5'       22.9020   -1.0220    8.8100 C.3   229  BMP229      0.1859
      7  C4'       22.1900   -0.2740    9.8970 C.3   229  BMP229      0.1801
      8  O4'       21.1490    0.5500    9.3250 O.3   229  BMP229     -0.3319
      9  C3'       21.5240   -1.1480   10.9420 C.3   229  BMP229      0.2158
     10  O3'       21.5180   -0.4650   12.1960 O.3   229  BMP229     -0.2175
     11  C2'       20.0960   -1.2700   10.4180 C.3   229  BMP229      0.2320
     12  O2'       19.1480   -1.5330   11.4340 O.3   229  BMP229     -0.2157
     13  C1'       19.8800    0.1090    9.7710 C.3   229  BMP229      0.2425
     14  N1        18.9710    0.1200    8.6100 N.am  229  BMP229     -0.1473
     15  C2        19.1410   -0.6800    7.5360 C.1   229  BMP229      0.2863
     16  O2        20.0510   -1.4980    7.4750 O.2   229  BMP229     -0.1918
     17  N3        18.2740   -0.6010    6.5010 N.2   229  BMP229     -0.2489
     18  C4        17.2480    0.2850    6.4690 C.1   229  BMP229      0.2018
     19  O4        16.4950    0.3020    5.4860 O.2   229  BMP229     -0.2129
     20  C5        17.0550    1.1380    7.5560 C.3   229  BMP229      0.2213
     21  C6        17.9500    1.0530    8.5970 C.2   229  BMP229      0.2591
     22  O1        17.8570    1.8590    9.6520 O.2   229  BMP229     -0.2725
@<TRIPOS>BOND
     1    19    18    2
     2    18    17    2
     3    18    20    1
     4    17    15    2
     5     2     1    2
     6    16    15    2
     7    15    14   am
     8    20    21    1
     9     4     1    1
    10     1     5    1
    11     1     3    1
    12    21    14   am
    13    21    22    2
    14    14    13    1
    15     6     5    1
    16     6     7    1
    17     8    13    1
    18     8     7    1
    19    13    11    1
    20     7     9    1
    21    11     9    1
    22    11    12    1
    23     9    10    1
