@<TRIPOS>MOLECULE
3sj0_DXC_X_1.pdb
 28 31 0 0 0
SMALL
GASTEIGER

@<TRIPOS>ATOM
      1  C1        26.3100   32.3370   22.2510 C.3    75  DXC75       0.1520
      2  C2        26.1680   31.7700   20.8230 C.3    75  DXC75       0.0329
      3  C3        27.4220   30.9770   20.4220 C.3    75  DXC75       0.0025
      4  C4        28.6990   31.8490   20.4760 C.3    75  DXC75       0.0002
      5  C5        28.7980   32.5310   21.8460 C.3    75  DXC75       0.0026
      6  C6        27.5290   33.2340   22.3110 C.3    75  DXC75       0.0329
      7  C7        27.2190   30.3250   19.0400 C.3    75  DXC75       0.0001
      8  C8        27.1870   31.4030   17.9430 C.3    75  DXC75       0.0000
      9  C9        28.4970   32.2540   17.9830 C.3    75  DXC75       0.0002
     10  C10       28.6910   32.9010   19.3620 C.3    75  DXC75       0.0025
     11  C11       28.4860   33.3610   16.9270 C.3    75  DXC75       0.0024
     12  C12       29.7810   34.1790   16.8600 C.3    75  DXC75       0.0282
     13  C13       29.9790   34.8670   18.2010 C.3    75  DXC75       0.1519
     14  C14       29.9290   33.8650   19.3880 C.3    75  DXC75       0.0329
     15  C15       28.2870   32.8950   15.4680 C.3    75  DXC75       0.0001
     16  C16       28.7410   34.1190   14.6640 C.3    75  DXC75       0.0001
     17  C17       29.3750   35.1080   15.6740 C.3    75  DXC75       0.0024
     18  C18       29.9150   30.9090   20.3870 C.3    75  DXC75       0.0000
     19  C19       30.5280   35.8820   14.9740 C.3    75  DXC75       0.0006
     20  O1        28.9320   35.7980   18.4020 O.3    75  DXC75      -0.2232
     21  O2        25.1320   33.0920   22.5980 O.3    75  DXC75      -0.2232
     22  C20       31.0160   33.3220   16.5750 C.3    75  DXC75       0.0025
     23  C21       30.0500   36.5310   13.6780 C.3    75  DXC75       0.0118
     24  C22       28.8760   37.4650   13.9100 C.3    75  DXC75       0.1141
     25  C23       29.3270   38.9080   14.1250 C.2    75  DXC75       0.3649
     26  O3        29.9240   39.5050   13.2220 O.co2  75  DXC75      -0.2457
     27  O4        29.0850   39.4740   15.1970 O.co2  75  DXC75      -0.2457
     28  C24       31.2520   36.9120   15.8690 C.3    75  DXC75       0.0000
@<TRIPOS>BOND
     1    26    25   ar
     2    23    24    1
     3    23    19    1
     4    24    25    1
     5    25    27   ar
     6    16    15    1
     7    16    17    1
     8    19    17    1
     9    19    28    1
    10    15    11    1
    11    17    12    1
    12    22    12    1
    13    12    11    1
    14    12    13    1
    15    11     9    1
    16     8     9    1
    17     8     7    1
    18     9    10    1
    19    13    20    1
    20    13    14    1
    21     7     3    1
    22    10    14    1
    23    10     4    1
    24    18     4    1
    25     3     4    1
    26     3     2    1
    27     4     5    1
    28     2     1    1
    29     5     6    1
    30     1     6    1
    31     1    21    1
