@<TRIPOS>MOLECULE
3sj0_HEM_X_1.pdb
 43 50 0 0 0
SMALL
GASTEIGER

@<TRIPOS>ATOM
      1  CHA       35.2360   26.3290   16.6920 C.2    72  HEM72       0.0000
      2  CHB       38.7640   27.1610   13.5560 C.2    72  HEM72       0.0000
      3  CHC       35.5040   29.1470   10.5460 C.2    72  HEM72       0.0000
      4  CHD       32.5930   29.6510   14.3840 C.2    72  HEM72       0.0000
      5  C1A       36.4230   26.2550   16.0230 C.ar   72  HEM72       0.0000
      6  C2A       37.5130   25.3720   16.3480 C.ar   72  HEM72       0.0000
      7  C3A       38.5020   25.6020   15.4900 C.ar   72  HEM72       0.0000
      8  C4A       38.0690   26.6560   14.6040 C.ar   72  HEM72       0.0000
      9  CMA       39.8770   24.8750   15.4590 C.3    72  HEM72       0.0000
     10  CAA       37.5080   24.2780   17.4320 C.3    72  HEM72       0.0000
     11  CBA       37.0110   23.0560   16.6180 C.3    72  HEM72       0.0000
     12  CGA       37.2370   21.7200   17.2750 C.2    72  HEM72       0.0000
     13  O1A       38.1030   21.6040   18.1980 O.co2  72  HEM72       0.0000
     14  O2A       36.5260   20.7550   16.8600 O.co2  72  HEM72       0.0000
     15  C1B       38.1640   27.7040   12.4320 C.2    72  HEM72       0.0000
     16  C2B       38.8440   28.0210   11.2110 C.2    72  HEM72       0.0000
     17  C3B       37.9530   28.5650   10.3640 C.2    72  HEM72       0.0000
     18  C4B       36.6780   28.6250   11.0420 C.2    72  HEM72       0.0000
     19  CMB       40.3460   27.7200   10.9950 C.3    72  HEM72       0.0000
     20  CAB       38.1400   29.0360    8.9120 C.2    72  HEM72       0.0000
     21  CBB       38.4670   28.0820    8.0150 C.2    72  HEM72       0.0000
     22  C1C       34.4590   29.5450   11.3570 C.ar   72  HEM72       0.0000
     23  C2C       33.3390   30.3700   10.9690 C.ar   72  HEM72       0.0000
     24  C3C       32.5210   30.4820   12.0190 C.ar   72  HEM72       0.0000
     25  C4C       33.1130   29.7660   13.1180 C.ar   72  HEM72       0.0000
     26  CMC       33.1620   30.9970    9.5680 C.3    72  HEM72       0.0000
     27  CAC       31.2040   31.2970   12.0990 C.3    72  HEM72       0.0000
     28  CBC       30.2460   31.1730   11.1130 C.3    72  HEM72       0.0000
     29  C1D       32.9930   28.7560   15.3470 C.2    72  HEM72       0.0000
     30  C2D       32.2570   28.4480   16.5450 C.2    72  HEM72       0.0000
     31  C3D       33.0690   27.4110   17.3010 C.2    72  HEM72       0.0000
     32  C4D       34.2270   27.2110   16.4520 C.2    72  HEM72       0.0000
     33  CMD       30.9330   29.0640   16.9340 C.3    72  HEM72       0.0000
     34  CAD       32.7050   26.6940   18.6210 C.3    72  HEM72       0.0000
     35  CBD       31.5020   25.7370   18.4750 C.3    72  HEM72       0.0000
     36  CGD       31.6540   24.6210   17.4640 C.2    72  HEM72       0.0000
     37  O1D       32.7340   24.0260   17.3950 O.co2  72  HEM72       0.0000
     38  O2D       30.6520   24.3060   16.7580 O.co2  72  HEM72       0.0000
     39  NA        36.7820   27.0270   14.9290 N.ar   72  HEM72       0.0000
     40  NB        36.8390   28.1030   12.2980 N.2    72  HEM72       0.0000
     41  NC        34.2920   29.1910   12.6960 N.ar   72  HEM72       0.0000
     42  ND        34.1330   28.0110   15.3350 N.2    72  HEM72       0.0000
     43 FE         35.4950   28.0560   13.8260 Fe     72  HEM72       0.0000
@<TRIPOS>BOND
     1    21    20    2
     2    20    17    1
     3    26    23    1
     4    17    18    1
     5    17    16    2
     6     3    18    2
     7     3    22    1
     8    23    22   ar
     9    23    24   ar
    10    19    16    1
    11    18    40    1
    12    28    27    1
    13    16    15    1
    14    22    41   ar
    15    24    27    1
    16    24    25   ar
    17    40    15    2
    18    40    43    1
    19    15     2    1
    20    41    25   ar
    21    41    43    1
    22    25     4    1
    23     2     8    2
    24    43    39    1
    25    43    42    1
    26     4    29    2
    27     8    39   ar
    28     8     7   ar
    29    39     5   ar
    30    42    29    1
    31    42    32    2
    32    29    30    1
    33     9     7    1
    34     7     6   ar
    35     5     6   ar
    36     5     1    2
    37     6    10    1
    38    32     1    1
    39    32    31    1
    40    30    33    1
    41    30    31    2
    42    11    12    1
    43    11    10    1
    44    38    36   ar
    45    14    12   ar
    46    12    13   ar
    47    31    34    1
    48    37    36   ar
    49    36    35    1
    50    35    34    1
