@<TRIPOS>MOLECULE
3sj1_HEM_X_1.pdb
 43 50 0 0 0
SMALL
GASTEIGER

@<TRIPOS>ATOM
      1  CHA       35.3780   26.3860   16.7020 C.2    72  HEM72       0.0000
      2  CHB       38.9600   27.1990   13.5670 C.2    72  HEM72       0.0000
      3  CHC       35.7350   29.1710   10.5020 C.2    72  HEM72       0.0000
      4  CHD       32.7530   29.7000   14.2630 C.2    72  HEM72       0.0000
      5  C1A       36.5950   26.3450   16.0520 C.ar   72  HEM72       0.0000
      6  C2A       37.6880   25.4660   16.3880 C.ar   72  HEM72       0.0000
      7  C3A       38.6750   25.6740   15.5340 C.ar   72  HEM72       0.0000
      8  C4A       38.2410   26.7120   14.6180 C.ar   72  HEM72       0.0000
      9  CMA       40.0480   24.9660   15.5370 C.3    72  HEM72       0.0000
     10  CAA       37.6700   24.4230   17.5100 C.3    72  HEM72       0.0000
     11  CBA       36.9080   23.2580   16.8410 C.3    72  HEM72       0.0000
     12  CGA       37.3420   21.8760   17.2650 C.2    72  HEM72       0.0000
     13  O1A       38.2950   21.7110   18.0910 O.co2  72  HEM72       0.0000
     14  O2A       36.7010   20.9030   16.7520 O.co2  72  HEM72       0.0000
     15  C1B       38.3890   27.7410   12.4200 C.2    72  HEM72       0.0000
     16  C2B       39.0660   27.9850   11.1640 C.2    72  HEM72       0.0000
     17  C3B       38.1650   28.5210   10.3030 C.2    72  HEM72       0.0000
     18  C4B       36.8960   28.6350   11.0090 C.2    72  HEM72       0.0000
     19  CMB       40.5570   27.6290   10.9430 C.3    72  HEM72       0.0000
     20  CAB       38.3020   28.9710    8.8270 C.2    72  HEM72       0.0000
     21  CBB       38.7110   28.0410    7.9340 C.2    72  HEM72       0.0000
     22  C1C       34.6740   29.5780   11.2740 C.ar   72  HEM72       0.0000
     23  C2C       33.5570   30.3770   10.8420 C.ar   72  HEM72       0.0000
     24  C3C       32.7290   30.5070   11.8800 C.ar   72  HEM72       0.0000
     25  C4C       33.2970   29.7960   13.0070 C.ar   72  HEM72       0.0000
     26  CMC       33.4470   30.9830    9.4270 C.3    72  HEM72       0.0000
     27  CAC       31.3860   31.2960   11.9420 C.2    72  HEM72       0.0000
     28  CBC       30.4980   31.1070   10.9340 C.2    72  HEM72       0.0000
     29  C1D       33.1600   28.8310   15.2540 C.2    72  HEM72       0.0000
     30  C2D       32.3970   28.5040   16.4270 C.2    72  HEM72       0.0000
     31  C3D       33.1720   27.4520   17.1950 C.2    72  HEM72       0.0000
     32  C4D       34.3660   27.2510   16.4000 C.2    72  HEM72       0.0000
     33  CMD       31.0510   29.1040   16.8090 C.3    72  HEM72       0.0000
     34  CAD       32.7840   26.7720   18.5180 C.3    72  HEM72       0.0000
     35  CBD       31.5440   25.8980   18.3190 C.3    72  HEM72       0.0000
     36  CGD       31.7170   24.7230   17.3970 C.2    72  HEM72       0.0000
     37  O1D       32.8000   24.1110   17.3800 O.co2  72  HEM72       0.0000
     38  O2D       30.7300   24.3840   16.7010 O.co2  72  HEM72       0.0000
     39  NA        36.9480   27.0880   14.9450 N.ar   72  HEM72       0.0000
     40  NB        37.0660   28.1330   12.2760 N.2    72  HEM72       0.0000
     41  NC        34.4800   29.2170   12.6090 N.ar   72  HEM72       0.0000
     42  ND        34.3070   28.0750   15.2900 N.2    72  HEM72       0.0000
     43 FE         35.6700   28.0980   13.7710 Fe     72  HEM72       0.0000
@<TRIPOS>BOND
     1    21    20    2
     2    20    17    1
     3    26    23    1
     4    17    18    1
     5    17    16    2
     6     3    18    2
     7     3    22    1
     8    23    22   ar
     9    23    24   ar
    10    28    27    2
    11    19    16    1
    12    18    40    1
    13    16    15    1
    14    22    41   ar
    15    24    27    1
    16    24    25   ar
    17    40    15    2
    18    40    43    1
    19    15     2    1
    20    41    25   ar
    21    41    43    1
    22    25     4    1
    23     2     8    2
    24    43    39    1
    25    43    42    1
    26     4    29    2
    27     8    39   ar
    28     8     7   ar
    29    39     5   ar
    30    29    42    1
    31    29    30    1
    32    42    32    2
    33     7     9    1
    34     7     6   ar
    35     5     6   ar
    36     5     1    2
    37     6    10    1
    38    32     1    1
    39    32    31    1
    40    30    33    1
    41    30    31    2
    42    38    36   ar
    43    14    12   ar
    44    11    12    1
    45    11    10    1
    46    31    34    1
    47    12    13   ar
    48    37    36   ar
    49    36    35    1
    50    35    34    1
