@<TRIPOS>MOLECULE
3sj1_DXC_X_1.pdb
 28 31 0 0 0
SMALL
GASTEIGER

@<TRIPOS>ATOM
      1  C1        26.4960   32.4130   22.0790 C.3    75  DXC75       0.1520
      2  C2        26.3780   31.8420   20.6480 C.3    75  DXC75       0.0329
      3  C3        27.6660   31.0820   20.2480 C.3    75  DXC75       0.0025
      4  C4        28.9150   31.9890   20.3000 C.3    75  DXC75       0.0002
      5  C5        28.9930   32.6680   21.6790 C.3    75  DXC75       0.0026
      6  C6        27.6760   33.3920   22.0670 C.3    75  DXC75       0.0329
      7  C7        27.4600   30.3970   18.8690 C.3    75  DXC75       0.0001
      8  C8        27.4080   31.4610   17.7510 C.3    75  DXC75       0.0000
      9  C9        28.6840   32.3320   17.7820 C.3    75  DXC75       0.0002
     10  C10       28.8670   33.0230   19.1620 C.3    75  DXC75       0.0025
     11  C11       28.6240   33.4090   16.7140 C.3    75  DXC75       0.0024
     12  C12       29.9220   34.2360   16.6540 C.3    75  DXC75       0.0282
     13  C13       30.0810   34.9750   17.9930 C.3    75  DXC75       0.1519
     14  C14       30.0690   33.9990   19.1850 C.3    75  DXC75       0.0329
     15  C15       28.4380   32.8850   15.2810 C.3    75  DXC75       0.0001
     16  C16       28.8790   34.1000   14.4480 C.3    75  DXC75       0.0001
     17  C17       29.5220   35.0990   15.4350 C.3    75  DXC75       0.0024
     18  C18       30.1490   31.0860   20.1760 C.3    75  DXC75       0.0000
     19  C19       30.6580   35.8860   14.7420 C.3    75  DXC75       0.0006
     20  O1        29.0230   35.9100   18.2230 O.3    75  DXC75      -0.2232
     21  O2        25.2930   33.1240   22.4450 O.3    75  DXC75      -0.2232
     22  C20       31.1360   33.3280   16.3900 C.3    75  DXC75       0.0025
     23  C21       30.1900   36.4930   13.3980 C.3    75  DXC75       0.0118
     24  C22       28.9710   37.4080   13.5140 C.3    75  DXC75       0.1141
     25  C23       29.3920   38.8550   13.7590 C.2    75  DXC75       0.3649
     26  O3        30.1320   39.4370   12.9660 O.co2  75  DXC75      -0.2457
     27  O4        28.9880   39.4540   14.7510 O.co2  75  DXC75      -0.2457
     28  C24       31.2410   36.9370   15.6660 C.3    75  DXC75       0.0000
@<TRIPOS>BOND
     1    26    25   ar
     2    23    24    1
     3    23    19    1
     4    24    25    1
     5    25    27   ar
     6    16    15    1
     7    16    17    1
     8    19    17    1
     9    19    28    1
    10    15    11    1
    11    17    12    1
    12    22    12    1
    13    12    11    1
    14    12    13    1
    15    11     9    1
    16     8     9    1
    17     8     7    1
    18     9    10    1
    19    13    20    1
    20    13    14    1
    21     7     3    1
    22    10    14    1
    23    10     4    1
    24    18     4    1
    25     3     4    1
    26     3     2    1
    27     4     5    1
    28     2     1    1
    29     5     6    1
    30     6     1    1
    31     1    21    1
