@<TRIPOS>MOLECULE
3sj3_BMP_A_1.pdb
 22 23 0 0 0
SMALL
GASTEIGER

@<TRIPOS>ATOM
      1  P         25.2570   -2.5510    8.5730 P.3   229  BMP229      0.5327
      2  OP1       24.4930   -3.3110    7.5500 O.2   229  BMP229     -0.2224
      3  OP2       25.9980   -3.4880    9.6180 O.3   229  BMP229     -0.1145
      4  OP3       26.2050   -1.5100    7.8740 O.3   229  BMP229     -0.1145
      5  O5'       24.2460   -1.7260    9.4810 O.3   229  BMP229     -0.2675
      6  C5'       23.0430   -1.1670    8.9610 C.3   229  BMP229      0.1859
      7  C4'       22.3360   -0.3960   10.0410 C.3   229  BMP229      0.1801
      8  O4'       21.3130    0.4420    9.4590 O.3   229  BMP229     -0.3319
      9  C3'       21.6500   -1.2500   11.0910 C.3   229  BMP229      0.2158
     10  O3'       21.6370   -0.5520   12.3390 O.3   229  BMP229     -0.2175
     11  C2'       20.2250   -1.3560   10.5670 C.3   229  BMP229      0.2320
     12  O2'       19.2700   -1.5980   11.5880 O.3   229  BMP229     -0.2157
     13  C1'       20.0330    0.0210    9.8980 C.3   229  BMP229      0.2425
     14  N1        19.1240    0.0330    8.7340 N.am  229  BMP229     -0.1473
     15  C2        19.2970   -0.7640    7.6690 C.1   229  BMP229      0.2863
     16  O2        20.2230   -1.5620    7.6180 O.2   229  BMP229     -0.1918
     17  N3        18.4360   -0.6930    6.6290 N.2   229  BMP229     -0.2489
     18  C4        17.3990    0.1800    6.5960 C.1   229  BMP229      0.2018
     19  O4        16.6490    0.1870    5.6180 O.2   229  BMP229     -0.2129
     20  C5        17.2090    1.0490    7.6880 C.3   229  BMP229      0.2213
     21  C6        18.1030    0.9580    8.7280 C.2   229  BMP229      0.2591
     22  O1        18.0270    1.7630    9.7850 O.2   229  BMP229     -0.2725
@<TRIPOS>BOND
     1    19    18    2
     2    18    17    2
     3    18    20    1
     4    17    15    2
     5     2     1    2
     6    16    15    2
     7    15    14   am
     8    20    21    1
     9     4     1    1
    10     1     5    1
    11     1     3    1
    12    21    14   am
    13    21    22    2
    14    14    13    1
    15     6     5    1
    16     6     7    1
    17     8    13    1
    18     8     7    1
    19    13    11    1
    20     7     9    1
    21    11     9    1
    22    11    12    1
    23     9    10    1
