@<TRIPOS>MOLECULE
3sj4_HEM_X_1.pdb
 43 50 0 0 0
SMALL
GASTEIGER

@<TRIPOS>ATOM
      1  CHA       35.4200   26.4900   16.7820 C.2    72  HEM72       0.0000
      2  CHB       39.0040   27.3110   13.6430 C.2    72  HEM72       0.0000
      3  CHC       35.8570   29.3260   10.5860 C.2    72  HEM72       0.0000
      4  CHD       32.7960   29.7680   14.3480 C.2    72  HEM72       0.0000
      5  C1A       36.6160   26.4250   16.0970 C.ar   72  HEM72       0.0000
      6  C2A       37.7110   25.5690   16.4450 C.ar   72  HEM72       0.0000
      7  C3A       38.7070   25.7890   15.5900 C.ar   72  HEM72       0.0000
      8  C4A       38.2730   26.8260   14.6770 C.ar   72  HEM72       0.0000
      9  CMA       40.0810   25.0960   15.5810 C.3    72  HEM72       0.0000
     10  CAA       37.6970   24.4920   17.5420 C.3    72  HEM72       0.0000
     11  CBA       37.2310   23.2950   16.6790 C.3    72  HEM72       0.0000
     12  CGA       37.3930   21.9490   17.3290 C.2    72  HEM72       0.0000
     13  O1A       38.2960   21.7690   18.2050 O.co2  72  HEM72       0.0000
     14  O2A       36.6030   21.0400   16.9370 O.co2  72  HEM72       0.0000
     15  C1B       38.4690   27.8550   12.4900 C.2    72  HEM72       0.0000
     16  C2B       39.1610   28.0850   11.2430 C.2    72  HEM72       0.0000
     17  C3B       38.2830   28.6520   10.3810 C.2    72  HEM72       0.0000
     18  C4B       37.0230   28.7840   11.0820 C.2    72  HEM72       0.0000
     19  CMB       40.6420   27.6730   11.0150 C.3    72  HEM72       0.0000
     20  CAB       38.4620   29.0880    8.9030 C.2    72  HEM72       0.0000
     21  CBB       39.0260   28.2210    8.0220 C.2    72  HEM72       0.0000
     22  C1C       34.7870   29.6820   11.3850 C.ar   72  HEM72       0.0000
     23  C2C       33.7010   30.5260   10.9620 C.ar   72  HEM72       0.0000
     24  C3C       32.8430   30.6270   11.9890 C.ar   72  HEM72       0.0000
     25  C4C       33.3760   29.8730   13.1100 C.ar   72  HEM72       0.0000
     26  CMC       33.6270   31.1680    9.5500 C.3    72  HEM72       0.0000
     27  CAC       31.5350   31.4390   12.0820 C.2    72  HEM72       0.0000
     28  CBC       30.5610   31.2720   11.1240 C.2    72  HEM72       0.0000
     29  C1D       33.1930   28.9170   15.3430 C.2    72  HEM72       0.0000
     30  C2D       32.4490   28.6160   16.5370 C.2    72  HEM72       0.0000
     31  C3D       33.2530   27.5920   17.3050 C.2    72  HEM72       0.0000
     32  C4D       34.4140   27.3760   16.4900 C.2    72  HEM72       0.0000
     33  CMD       31.1240   29.2300   16.9390 C.3    72  HEM72       0.0000
     34  CAD       32.8870   26.9140   18.6360 C.3    72  HEM72       0.0000
     35  CBD       31.6820   25.9880   18.4220 C.3    72  HEM72       0.0000
     36  CGD       31.9150   24.8290   17.4790 C.2    72  HEM72       0.0000
     37  O1D       33.0050   24.2190   17.4940 O.co2  72  HEM72       0.0000
     38  O2D       30.9780   24.4810   16.7280 O.co2  72  HEM72       0.0000
     39  NA        36.9770   27.1970   15.0060 N.ar   72  HEM72       0.0000
     40  NB        37.1720   28.2910   12.3540 N.2    72  HEM72       0.0000
     41  NC        34.5790   29.2800   12.7080 N.ar   72  HEM72       0.0000
     42  ND        34.3420   28.1750   15.3600 N.2    72  HEM72       0.0000
     43 FE         35.7640   28.2200   13.8360 Fe     72  HEM72       0.0000
@<TRIPOS>BOND
     1    21    20    2
     2    20    17    1
     3    26    23    1
     4    17    18    1
     5    17    16    2
     6     3    18    2
     7     3    22    1
     8    23    22   ar
     9    23    24   ar
    10    19    16    1
    11    18    40    1
    12    28    27    2
    13    16    15    1
    14    22    41   ar
    15    24    27    1
    16    24    25   ar
    17    40    15    2
    18    40    43    1
    19    15     2    1
    20    41    25   ar
    21    41    43    1
    22    25     4    1
    23     2     8    2
    24    43    39    1
    25    43    42    1
    26     4    29    2
    27     8    39   ar
    28     8     7   ar
    29    39     5   ar
    30    29    42    1
    31    29    30    1
    32    42    32    2
    33     9     7    1
    34     7     6   ar
    35     5     6   ar
    36     5     1    2
    37     6    10    1
    38    32     1    1
    39    32    31    1
    40    30    33    1
    41    30    31    2
    42    11    12    1
    43    11    10    1
    44    38    36   ar
    45    14    12   ar
    46    31    34    1
    47    12    13   ar
    48    36    37   ar
    49    36    35    1
    50    35    34    1
