@<TRIPOS>MOLECULE
3sj4_DXC_X_1.pdb
 28 31 0 0 0
SMALL
GASTEIGER

@<TRIPOS>ATOM
      1  C1        26.5810   32.5440   22.1860 C.3    75  DXC75       0.1520
      2  C2        26.4430   31.8900   20.7700 C.3    75  DXC75       0.0329
      3  C3        27.7300   31.1340   20.3660 C.3    75  DXC75       0.0025
      4  C4        28.9670   32.0460   20.4130 C.3    75  DXC75       0.0002
      5  C5        29.0750   32.6540   21.8270 C.3    75  DXC75       0.0026
      6  C6        27.8160   33.4500   22.2070 C.3    75  DXC75       0.0329
      7  C7        27.5430   30.4960   18.9580 C.3    75  DXC75       0.0001
      8  C8        27.4810   31.5460   17.8370 C.3    75  DXC75       0.0000
      9  C9        28.7330   32.4350   17.8850 C.3    75  DXC75       0.0002
     10  C10       28.9200   33.0980   19.2780 C.3    75  DXC75       0.0025
     11  C11       28.7310   33.5000   16.7900 C.3    75  DXC75       0.0024
     12  C12       30.0530   34.3260   16.7230 C.3    75  DXC75       0.0282
     13  C13       30.2300   35.0220   18.0740 C.3    75  DXC75       0.1519
     14  C14       30.2030   34.0150   19.2440 C.3    75  DXC75       0.0329
     15  C15       28.5500   32.9900   15.3300 C.3    75  DXC75       0.0001
     16  C16       29.0790   34.1800   14.4950 C.3    75  DXC75       0.0001
     17  C17       29.6760   35.2090   15.5000 C.3    75  DXC75       0.0024
     18  C18       30.2260   31.1910   20.2440 C.3    75  DXC75       0.0000
     19  C19       30.8220   36.0380   14.8250 C.3    75  DXC75       0.0006
     20  O1        29.1470   35.9350   18.2830 O.3    75  DXC75      -0.2232
     21  O2        25.3930   33.3040   22.5130 O.3    75  DXC75      -0.2232
     22  C20       31.2500   33.4480   16.4550 C.3    75  DXC75       0.0025
     23  C21       30.3850   36.6570   13.5000 C.3    75  DXC75       0.0118
     24  C22       29.2320   37.6250   13.6770 C.3    75  DXC75       0.1141
     25  C23       29.6830   39.0680   13.8450 C.2    75  DXC75       0.3649
     26  O3        30.3290   39.6240   12.9570 O.co2  75  DXC75      -0.2457
     27  O4        29.3820   39.6760   14.8740 O.co2  75  DXC75      -0.2457
     28  C24       31.4200   37.1370   15.7220 C.3    75  DXC75       0.0000
@<TRIPOS>BOND
     1    26    25   ar
     2    23    24    1
     3    23    19    1
     4    24    25    1
     5    25    27   ar
     6    16    15    1
     7    16    17    1
     8    19    17    1
     9    19    28    1
    10    15    11    1
    11    17    12    1
    12    22    12    1
    13    12    11    1
    14    12    13    1
    15    11     9    1
    16     8     9    1
    17     8     7    1
    18     9    10    1
    19    13    20    1
    20    13    14    1
    21     7     3    1
    22    14    10    1
    23    10     4    1
    24    18     4    1
    25     3     4    1
    26     3     2    1
    27     4     5    1
    28     2     1    1
    29     5     6    1
    30     1     6    1
    31     1    21    1
