@<TRIPOS>MOLECULE
3sj5_HEM_A_1.pdb
 43 50 0 0 0
SMALL
GASTEIGER

@<TRIPOS>ATOM
      1  CHA       13.3770   14.6280   11.3540 C.2   500  HEM500      0.0000
      2  CHB       10.6650   11.4860   13.8640 C.2   500  HEM500      0.0000
      3  CHC       10.2360    8.7930    9.8910 C.2   500  HEM500      0.0000
      4  CHD       11.2840   12.8010    7.3620 C.2   500  HEM500      0.0000
      5  C1A       12.6680   14.0300   12.3750 C.2   500  HEM500      0.0000
      6  C2A       12.5290   14.5340   13.7300 C.2   500  HEM500      0.0000
      7  C3A       11.7780   13.6660   14.4150 C.2   500  HEM500      0.0000
      8  C4A       11.4120   12.5840   13.5310 C.2   500  HEM500      0.0000
      9  CMA       11.3560   13.7960   15.9050 C.3   500  HEM500      0.0000
     10  CAA       13.1400   15.8470   14.2720 C.3   500  HEM500      0.0000
     11  CBA       12.3350   17.0360   13.7680 C.3   500  HEM500      0.0000
     12  CGA       12.8930   18.3040   14.3520 C.2   500  HEM500      0.0000
     13  O1A       12.4230   19.3920   13.9510 O.co2 500  HEM500      0.0000
     14  O2A       13.7970   18.2280   15.2240 O.co2 500  HEM500      0.0000
     15  C1B       10.4100   10.4270   13.0400 C.ar  500  HEM500      0.0000
     16  C2B        9.8830    9.1370   13.4410 C.ar  500  HEM500      0.0000
     17  C3B        9.7740    8.3790   12.3420 C.ar  500  HEM500      0.0000
     18  C4B       10.2300    9.1780   11.2180 C.ar  500  HEM500      0.0000
     19  CMB        9.5390    8.7130   14.8940 C.3   500  HEM500      0.0000
     20  CAB        9.2730    6.9320   12.1990 C.2   500  HEM500      0.0000
     21  CBB        8.6770    6.2660   13.1900 C.2   500  HEM500      0.0000
     22  C1C       10.3460    9.6930    8.8530 C.2   500  HEM500      0.0000
     23  C2C        9.9320    9.4850    7.4730 C.2   500  HEM500      0.0000
     24  C3C       10.2270   10.5990    6.7870 C.2   500  HEM500      0.0000
     25  C4C       10.8210   11.5440    7.6920 C.2   500  HEM500      0.0000
     26  CMC        9.2800    8.2040    6.9160 C.3   500  HEM500      0.0000
     27  CAC        9.9600   10.9220    5.2950 C.2   500  HEM500      0.0000
     28  CBC        9.0370   10.2370    4.6090 C.2   500  HEM500      0.0000
     29  C1D       12.1240   13.5470    8.1530 C.ar  500  HEM500      0.0000
     30  C2D       13.1130   14.4810    7.6900 C.ar  500  HEM500      0.0000
     31  C3D       13.7660   15.0690    8.9250 C.ar  500  HEM500      0.0000
     32  C4D       13.1160   14.4150   10.0340 C.ar  500  HEM500      0.0000
     33  CMD       13.4370   14.8360    6.2340 C.3   500  HEM500      0.0000
     34  CAD       14.9220   16.0930    8.9460 C.3   500  HEM500      0.0000
     35  CBD       14.4300   17.4240    9.4890 C.3   500  HEM500      0.0000
     36  CGD       14.1020   18.3250    8.3250 C.2   500  HEM500      0.0000
     37  O1D       14.3620   17.9590    7.1380 O.co2 500  HEM500      0.0000
     38  O2D       13.5650   19.4210    8.6040 O.co2 500  HEM500      0.0000
     39  NA        11.9800   12.8380   12.2940 N.2   500  HEM500      0.0000
     40  NB        10.6040   10.4250   11.6740 N.ar  500  HEM500      0.0000
     41  NC        10.8800   10.9600    8.9360 N.2   500  HEM500      0.0000
     42  ND        12.1570   13.5220    9.5450 N.ar  500  HEM500      0.0000
     43 FE         11.3870   11.9190   10.6240 Fe    500  HEM500      0.0000
@<TRIPOS>BOND
     1    28    27    2
     2    27    24    1
     3    33    30    1
     4    24    23    2
     5    24    25    1
     6    26    23    1
     7    37    36   ar
     8     4    25    1
     9     4    29    2
    10    23    22    1
    11    30    29   ar
    12    30    31   ar
    13    25    41    2
    14    29    42   ar
    15    36    38   ar
    16    36    35    1
    17    22    41    1
    18    22     3    2
    19    31    34    1
    20    31    32   ar
    21    41    43    1
    22    34    35    1
    23    42    32   ar
    24    42    43    1
    25     3    18    1
    26    32     1    2
    27    43    40    1
    28    43    39    1
    29    18    40   ar
    30    18    17   ar
    31     1     5    1
    32    40    15   ar
    33    20    17    1
    34    20    21    2
    35    39     5    2
    36    39     8    1
    37    17    16   ar
    38     5     6    1
    39    15    16   ar
    40    15     2    1
    41    16    19    1
    42     8     2    2
    43     8     7    1
    44     6    10    1
    45     6     7    2
    46    11    10    1
    47    11    12    1
    48    13    12   ar
    49    12    14   ar
    50     7     9    1
