@<TRIPOS>MOLECULE
3sj6_RIP_A_1.pdb
 10 10 0 0 0
SMALL
GASTEIGER

@<TRIPOS>ATOM
      1  C1        21.1500   -5.4260    6.6180 C.3   249  RIP249      0.3024
      2  C2        22.6360   -5.7840    6.5330 C.3   249  RIP249      0.2434
      3  C3        22.9070   -6.2800    5.1070 C.3   249  RIP249      0.2199
      4  C4        22.0220   -7.5100    4.9010 C.3   249  RIP249      0.2143
      5  C5        20.6660   -6.8980    4.6260 C.3   249  RIP249      0.1804
      6  O1        20.8650   -5.4850    7.9830 O.3   249  RIP249     -0.1869
      7  O2        23.4230   -4.6860    7.0240 O.3   249  RIP249     -0.2148
      8  O3        22.5280   -5.2860    4.1600 O.3   249  RIP249     -0.2174
      9  O4        22.4670   -8.3450    3.8670 O.3   249  RIP249     -0.2176
     10  O5        20.2490   -6.2300    5.8230 O.3   249  RIP249     -0.3237
@<TRIPOS>BOND
     1     9     4    1
     2     8     3    1
     3     5     4    1
     4     5    10    1
     5     4     3    1
     6     3     2    1
     7    10     1    1
     8     2     1    1
     9     2     7    1
    10     1     6    1
