@<TRIPOS>MOLECULE
3sj7_NDP_A_1.pdb
 48 52 0 0 0
SMALL
GASTEIGER

@<TRIPOS>ATOM
      1  PA        -6.4750   39.4530   24.6740 P.3   245  NDP245      0.2189
      2  O1A       -7.1600   40.3890   25.6030 O.3   245  NDP245     -0.4371
      3  O2A       -6.9340   38.0460   24.7130 O.2   245  NDP245     -0.5170
      4  O5B       -6.6560   40.0750   23.2120 O.3   245  NDP245     -0.3112
      5  C5B       -6.1330   39.4730   22.0470 C.3   245  NDP245      0.1813
      6  C4B       -6.2480   40.5140   20.9320 C.3   245  NDP245      0.1820
      7  O4B       -5.6410   40.0450   19.7340 O.3   245  NDP245     -0.3136
      8  C3B       -7.7110   40.7770   20.6150 C.3   245  NDP245      0.2157
      9  O3B       -7.8800   42.1470   20.2910 O.3   245  NDP245     -0.2175
     10  C2B       -7.9580   39.9750   19.3620 C.3   245  NDP245      0.2314
     11  O2B       -8.9340   40.6360   18.5830 O.3   245  NDP245     -0.2630
     12  C1B       -6.5990   40.0440   18.6930 C.3   245  NDP245      0.3158
     13  N9A       -6.3200   38.9500   17.7670 N.pl3 245  NDP245     -0.1439
     14  C8A       -6.2380   37.6040   18.0490 C.3   245  NDP245      0.3377
     15  N7A       -5.9290   36.9610   16.8910 N.2   245  NDP245     -0.2095
     16  C5A       -5.8350   37.8920   15.8960 C.2   245  NDP245      0.2526
     17  C6A       -5.5550   37.7920   14.5330 C.2   245  NDP245      0.4393
     18  N6A       -5.3060   36.5770   14.0010 N.pl3 245  NDP245      0.2180
     19  N1A       -5.5240   38.9480   13.7590 N.2   245  NDP245      0.0021
     20  C2A       -5.7560   40.1890   14.3290 C.3   245  NDP245      0.5254
     21  N3A       -6.0200   40.2660   15.6700 N.2   245  NDP245     -0.0055
     22  C4A       -6.0700   39.1460   16.4340 C.2   245  NDP245      0.3518
     23  O3        -4.9130   39.4750   25.0240 O.3   245  NDP245     -0.2703
     24  PN        -4.0840   40.5130   25.9220 P.3   245  NDP245      0.2189
     25  O1N       -4.5130   41.9030   25.6120 O.2   245  NDP245     -0.5170
     26  O2N       -4.0230   40.0430   27.3430 O.3   245  NDP245     -0.4371
     27  O5D       -2.6220   40.2760   25.2610 O.3   245  NDP245     -0.3112
     28  C5D       -1.9630   41.3190   24.5690 C.3   245  NDP245      0.1813
     29  C4D       -0.5420   40.8970   24.2980 C.3   245  NDP245      0.1799
     30  O4D        0.1400   40.7910   25.5310 O.3   245  NDP245     -0.3327
     31  C3D       -0.5300   39.5240   23.6550 C.3   245  NDP245      0.2158
     32  O3D        0.4450   39.4970   22.6450 O.3   245  NDP245     -0.2175
     33  C2D       -0.1750   38.6240   24.8240 C.3   245  NDP245      0.2309
     34  O2D        0.2910   37.3400   24.4370 O.3   245  NDP245     -0.2158
     35  C1D        0.7750   39.5250   25.6130 C.3   245  NDP245      0.2263
     36  N1N        0.9790   39.1680   27.0340 N.pl3 245  NDP245     -0.2787
     37  C2N       -0.0640   39.1130   27.9280 C.3   245  NDP245      0.1244
     38  C3N        0.1670   38.7840   29.2670 C.2   245  NDP245      0.0544
     39  C7N       -0.9550   38.8030   30.2870 C.2   245  NDP245      0.2818
     40  O7N       -0.6230   38.5000   31.6550 O.2   245  NDP245     -0.2670
     41  N7N       -2.2050   39.0850   29.8680 N.am  245  NDP245     -0.0839
     42  C4N        1.4640   38.4970   29.6900 C.2   245  NDP245      0.0033
     43  C5N        2.5070   38.5520   28.7850 C.2   245  NDP245      0.0157
     44  C6N        2.2520   38.9090   27.4580 C.2   245  NDP245      0.0633
     45  P2B      -10.4520   40.0580   18.4800 P.3   245  NDP245      0.5328
     46  O1X      -10.4410   38.5530   18.4710 O.3   245  NDP245     -0.1145
     47  O2X      -11.0860   40.5280   17.1960 O.2   245  NDP245     -0.2224
     48  O3X      -11.1600   40.5790   19.6810 O.3   245  NDP245     -0.1145
@<TRIPOS>BOND
     1    19    20    1
     2    19    17    2
     3    18    17    1
     4    20    21    1
     5    17    16    1
     6    21    22    2
     7    16    22    1
     8    16    15    2
     9    22    13    1
    10    15    14    1
    11    47    45    2
    12    13    14    1
    13    13    12    1
    14    46    45    1
    15    45    11    1
    16    45    48    1
    17    11    10    1
    18    12    10    1
    19    12     7    1
    20    10     8    1
    21     7     6    1
    22     9     8    1
    23     8     6    1
    24     6     5    1
    25     5     4    1
    26    32    31    1
    27     4     1    1
    28    31    29    1
    29    31    33    1
    30    29    28    1
    31    29    30    1
    32    34    33    1
    33    28    27    1
    34     1     3    2
    35     1    23    1
    36     1     2    1
    37    33    35    1
    38    23    24    1
    39    27    24    1
    40    30    35    1
    41    25    24    2
    42    35    36    1
    43    24    26    1
    44    36    44    1
    45    36    37    1
    46    44    43    2
    47    37    38    1
    48    43    42    1
    49    38    42    2
    50    38    39    1
    51    41    39   am
    52    39    40    2
