@<TRIPOS>MOLECULE
3sjd_ADP_A_1.pdb
 27 29 0 0 0
SMALL
GASTEIGER

@<TRIPOS>ATOM
      1  PB        41.1560  -48.7060  -19.7070 P.3   401  ADP401      0.5373
      2  O1B       40.1310  -47.9790  -18.7840 O.3   401  ADP401     -0.1143
      3  O2B       40.9730  -48.0100  -21.0990 O.2   401  ADP401     -0.2221
      4  O3B       41.2300  -50.1480  -19.7120 O.3   401  ADP401     -0.1143
      5  PA        43.4960  -46.8090  -19.4380 P.3   401  ADP401      0.2231
      6  O1A       44.2170  -47.1330  -20.7970 O.2   401  ADP401     -0.5169
      7  O2A       42.6570  -45.5890  -19.4250 O.3   401  ADP401     -0.4370
      8  O3A       42.5520  -48.0620  -19.2090 O.3   401  ADP401     -0.2261
      9  O5'       44.6580  -46.8520  -18.3440 O.3   401  ADP401     -0.3111
     10  C5'       44.3140  -46.5980  -16.9920 C.3   401  ADP401      0.1813
     11  C4'       45.3750  -45.6780  -16.3890 C.3   401  ADP401      0.1821
     12  O4'       46.6570  -46.3340  -16.3640 O.3   401  ADP401     -0.3135
     13  C3'       45.5650  -44.3970  -17.2740 C.3   401  ADP401      0.2184
     14  O3'       45.7350  -43.2610  -16.4310 O.3   401  ADP401     -0.2174
     15  C2'       46.8240  -44.7050  -18.1170 C.3   401  ADP401      0.2570
     16  O2'       47.5800  -43.5810  -18.4930 O.3   401  ADP401     -0.2130
     17  C1'       47.6390  -45.5670  -17.1380 C.3   401  ADP401      0.3186
     18  N9        48.3670  -46.6190  -17.7670 N.pl3 401  ADP401     -0.1439
     19  C8        47.9310  -47.7330  -18.4940 C.3   401  ADP401      0.3377
     20  N7        48.8850  -48.6680  -18.6690 N.2   401  ADP401     -0.2095
     21  C5        49.9800  -48.1340  -17.9760 C.2   401  ADP401      0.2526
     22  C6        51.3070  -48.5580  -17.7140 C.2   401  ADP401      0.4393
     23  N6        51.6860  -49.7770  -18.1690 N.pl3 401  ADP401      0.2180
     24  N1        52.1830  -47.7960  -16.9670 N.2   401  ADP401      0.0021
     25  C2        51.7420  -46.6230  -16.5170 C.3   401  ADP401      0.5254
     26  N3        50.5170  -46.0840  -16.6690 N.2   401  ADP401     -0.0055
     27  C4        49.6800  -46.8580  -17.3900 C.2   401  ADP401      0.3518
@<TRIPOS>BOND
     1     3     1    2
     2     6     5    2
     3     4     1    1
     4     1     8    1
     5     1     2    1
     6     5     7    1
     7     5     8    1
     8     5     9    1
     9    20    19    1
    10    20    21    2
    11    19    18    1
    12    16    15    1
    13     9    10    1
    14    23    22    1
    15    15    13    1
    16    15    17    1
    17    21    22    1
    18    21    27    1
    19    18    27    1
    20    18    17    1
    21    22    24    2
    22    27    26    2
    23    13    14    1
    24    13    11    1
    25    17    12    1
    26    10    11    1
    27    24    25    1
    28    26    25    1
    29    11    12    1
