@<TRIPOS>MOLECULE
3sje_SDR_A_1.pdb
 23 22 0 0 0
SMALL
GASTEIGER

@<TRIPOS>ATOM
      1  CAR       20.1760   43.6540   46.2410 C.2     1  SDR1        0.2423
      2  OAC       19.8970   44.5000   47.1240 O.2     1  SDR1       -0.2733
      3  CAB       21.1800   42.5290   46.5310 C.3     1  SDR1        0.0964
      4  NAP       19.7940   43.7230   44.9480 N.am    1  SDR1       -0.1972
      5  CAW       18.8850   44.7780   44.4100 C.3     1  SDR1        0.1839
      6  CAU       18.0830   44.2850   43.1730 C.2     1  SDR1        0.2622
      7  OAF       18.4110   43.3110   42.4900 O.2     1  SDR1       -0.2715
      8  CAO       19.7030   46.0310   43.9890 C.3     1  SDR1        0.1450
      9  CAS       20.3600   46.7390   45.2030 C.2     1  SDR1        0.3671
     10  OAD       21.5630   46.4490   45.4700 O.co2   1  SDR1       -0.2456
     11  OAG       19.6570   47.5500   45.8250 O.co2   1  SDR1       -0.2456
     12  C         17.0280   44.6260   40.3410 C.2     1  SDR1        0.3842
     13  N         16.9970   44.9700   42.8520 N.am    1  SDR1       -0.1941
     14  O         16.6750   43.8990   39.3970 O.co2   1  SDR1       -0.2437
     15  CA        16.2050   44.5530   41.6690 C.3     1  SDR1        0.1978
     16  CB        15.0170   45.5060   41.6110 C.3     1  SDR1        0.0333
     17  CAA       11.6020   49.3510   39.7270 C.3     1  SDR1        0.0000
     18  CAI       13.0960   49.7060   39.7260 C.3     1  SDR1        0.0000
     19  CAJ       13.9250   48.5420   40.2710 C.3     1  SDR1        0.0000
     20  CAK       13.6130   47.2660   39.5050 C.3     1  SDR1        0.0000
     21  CAL       12.9660   46.1810   40.3670 C.3     1  SDR1        0.0001
     22  CAM       13.9630   45.0500   40.6150 C.3     1  SDR1        0.0023
     23  OXT       18.0070   45.4060   40.2990 O.co2   1  SDR1       -0.2437
@<TRIPOS>BOND
     1    14    12   ar
     2    20    19    1
     3    20    21    1
     4    18    17    1
     5    18    19    1
     6    23    12   ar
     7    12    15    1
     8    21    22    1
     9    22    16    1
    10    16    15    1
    11    15    13    1
    12     7     6    2
    13    13     6   am
    14     6     5    1
    15     8     5    1
    16     8     9    1
    17     5     4    1
    18     4     1   am
    19     9    10   ar
    20     9    11   ar
    21     1     3    1
    22     1     2    2
