@<TRIPOS>MOLECULE
3sje_NAG_A_1.pdb
 14 14 0 0 0
SMALL
GASTEIGER

@<TRIPOS>ATOM
      1  C1        11.6480   26.0620   57.8590 C.3   1755  NAG1755     0.1665
      2  C2        11.4830   24.6050   57.4960 C.3   1755  NAG1755     0.1576
      3  C3        10.0170   24.2010   57.7020 C.3   1755  NAG1755     0.2069
      4  C4         9.5090   24.5350   59.0910 C.3   1755  NAG1755     0.2134
      5  C5         9.8660   25.9940   59.4060 C.3   1755  NAG1755     0.1809
      6  C6         9.4690   26.4220   60.8230 C.3   1755  NAG1755     0.2141
      7  C7        13.0530   23.8470   55.7920 C.2   1755  NAG1755     0.2420
      8  C8        13.3490   23.7560   54.3250 C.3   1755  NAG1755     0.0964
      9  N2        11.8990   24.4390   56.1240 N.am  1755  NAG1755    -0.2019
     10  O3         9.9340   22.8220   57.5350 O.3   1755  NAG1755    -0.2184
     11  O4         8.0950   24.4010   59.0290 O.3   1755  NAG1755    -0.2176
     12  O5        11.2650   26.1710   59.2250 O.3   1755  NAG1755    -0.3489
     13  O6        10.0940   25.5160   61.7010 O.3   1755  NAG1755    -0.2176
     14  O7        13.8600   23.4280   56.6250 O.2   1755  NAG1755    -0.2733
@<TRIPOS>BOND
     1     8     7    1
     2     7     9   am
     3     7    14    2
     4     9     2    1
     5     2     3    1
     6     2     1    1
     7    10     3    1
     8     3     4    1
     9     1    12    1
    10    11     4    1
    11     4     5    1
    12    12     5    1
    13     5     6    1
    14     6    13    1
