@<TRIPOS>MOLECULE
3sjf_JRG_A_1.pdb
 30 30 0 0 0
SMALL
GASTEIGER

@<TRIPOS>ATOM
      1  C         20.1410   45.6330   45.8170 C.2     1  JRG1        0.3843
      2  N         18.6580   45.3960   43.9460 N.am    1  JRG1       -0.1774
      3  O         19.6260   46.7780   46.0570 O.co2   1  JRG1       -0.2437
      4  CA        19.9730   45.0010   44.4330 C.3     1  JRG1        0.1994
      5  CB        20.9840   45.6360   43.4270 C.3     1  JRG1        0.0334
      6  CAA       13.9150   48.8470   40.1760 C.3     1  JRG1        0.0692
      7  OAC       17.8880   45.6370   40.3950 O.co2   1  JRG1       -0.2437
      8  OAD       18.4290   43.6550   42.5610 O.2     1  JRG1       -0.2492
      9  OAE       22.2550   49.6670   43.9380 O.2     1  JRG1       -0.2684
     10  OAG       16.9490   43.9160   39.3810 O.co2   1  JRG1       -0.2437
     11  IAH       23.6370   50.3040   51.3770 I       1  JRG1       -0.0425
     12  CAI       23.3800   50.9130   48.1100 C.ar    1  JRG1        0.0059
     13  CAJ       23.5020   48.6570   48.5380 C.ar    1  JRG1        0.0059
     14  CAK       23.2520   50.6810   46.7090 C.ar    1  JRG1        0.0050
     15  CAL       23.4010   48.3830   47.1280 C.ar    1  JRG1        0.0050
     16  CAM       23.4200   45.9410   42.6700 C.3     1  JRG1        0.0235
     17  CAN       22.4450   45.2170   43.6730 C.3     1  JRG1        0.0042
     18  CAO       23.3970   47.4750   42.6850 C.3     1  JRG1        0.1155
     19  CAP       14.8230   46.6160   41.1390 C.3     1  JRG1        0.0599
     20  CAR       14.7380   45.1400   41.1900 C.3     1  JRG1        0.0450
     21  NAS       23.6680   47.9680   44.0550 N.am    1  JRG1       -0.2017
     22  NAU       16.7460   45.1250   42.7140 N.am    1  JRG1       -0.1774
     23  SAV       13.2730   47.2280   40.3730 S.3     1  JRG1       -0.1393
     24  CAX       17.0410   44.7160   40.3370 C.2     1  JRG1        0.3843
     25  CAY       17.9700   44.6910   43.0490 C.2     1  JRG1        0.3402
     26  CAZ       23.1040   49.0510   44.5910 C.2     1  JRG1        0.2648
     27  CBA       23.4950   49.9380   49.1520 C.ar    1  JRG1        0.0301
     28  CBB       23.2950   49.3740   46.1360 C.ar    1  JRG1        0.0551
     29  CBD       16.0900   44.5040   41.5590 C.3     1  JRG1        0.2002
     30  OXT       20.7520   44.9090   46.6270 O.co2   1  JRG1       -0.2437
@<TRIPOS>BOND
     1    10    24   ar
     2     6    23    1
     3    24     7   ar
     4    24    29    1
     5    23    19    1
     6    19    20    1
     7    20    29    1
     8    29    22    1
     9     8    25    2
    10    16    18    1
    11    16    17    1
    12    18    21    1
    13    22    25   am
    14    25     2   am
    15     5    17    1
    16     5     4    1
    17     9    26    2
    18     2     4    1
    19    21    26   am
    20     4     1    1
    21    26    28    1
    22     1     3   ar
    23     1    30   ar
    24    28    14   ar
    25    28    15   ar
    26    14    12   ar
    27    15    13   ar
    28    12    27   ar
    29    13    27   ar
    30    27    11    1
