@<TRIPOS>MOLECULE
3sjg_NAG_A_1.pdb
 14 14 0 0 0
SMALL
GASTEIGER

@<TRIPOS>ATOM
      1  C1        11.7210   25.9730   57.7890 C.3   1755  NAG1755     0.1665
      2  C2        11.5590   24.5090   57.3970 C.3   1755  NAG1755     0.1576
      3  C3        10.1110   24.0570   57.6330 C.3   1755  NAG1755     0.2069
      4  C4         9.5860   24.4210   59.0130 C.3   1755  NAG1755     0.2134
      5  C5         9.9540   25.8730   59.3590 C.3   1755  NAG1755     0.1809
      6  C6         9.5910   26.2650   60.8030 C.3   1755  NAG1755     0.2141
      7  C7        13.1290   23.7440   55.6920 C.2   1755  NAG1755     0.2420
      8  C8        13.4270   23.5880   54.2320 C.3   1755  NAG1755     0.0964
      9  N2        11.9540   24.3160   56.0180 N.am  1755  NAG1755    -0.2019
     10  O3        10.0800   22.6660   57.5700 O.3   1755  NAG1755    -0.2184
     11  O4         8.1710   24.2860   58.9480 O.3   1755  NAG1755    -0.2176
     12  O5        11.3410   26.0830   59.1430 O.3   1755  NAG1755    -0.3489
     13  O6        10.1610   25.3050   61.6760 O.3   1755  NAG1755    -0.2176
     14  O7        13.9740   23.3820   56.5080 O.2   1755  NAG1755    -0.2733
@<TRIPOS>BOND
     1     8     7    1
     2     7     9   am
     3     7    14    2
     4     9     2    1
     5     2     3    1
     6     2     1    1
     7    10     3    1
     8     3     4    1
     9     1    12    1
    10    11     4    1
    11     4     5    1
    12    12     5    1
    13     5     6    1
    14     6    13    1
