@<TRIPOS>MOLECULE
3sjg_SDR_A_1.pdb
 22 21 0 0 0
SMALL
GASTEIGER

@<TRIPOS>ATOM
      1  CAR       20.1180   43.3780   46.1930 C.2     1  SDR1        0.2423
      2  OAC       19.9100   44.3040   47.0180 O.2     1  SDR1       -0.2733
      3  CAB       21.2630   42.4370   46.4260 C.3     1  SDR1        0.0964
      4  NAP       19.8320   43.5880   44.8800 N.am    1  SDR1       -0.1972
      5  CAW       18.9940   44.6810   44.4020 C.3     1  SDR1        0.1839
      6  CAU       18.1740   44.2200   43.2150 C.2     1  SDR1        0.2622
      7  OAF       18.5250   43.2710   42.4910 O.2     1  SDR1       -0.2715
      8  CAO       19.8110   45.9060   44.0050 C.3     1  SDR1        0.1450
      9  CAS       20.4270   46.5950   45.2050 C.2     1  SDR1        0.3671
     10  OAD       21.6540   46.3750   45.4730 O.co2   1  SDR1       -0.2456
     11  OAG       19.6900   47.3550   45.8750 O.co2   1  SDR1       -0.2456
     12  C         17.0740   44.5590   40.3460 C.2     1  SDR1        0.3842
     13  N         17.0160   44.8940   42.7350 N.am    1  SDR1       -0.1941
     14  O         16.8310   43.7400   39.4500 O.co2   1  SDR1       -0.2437
     15  CA        16.2230   44.4740   41.5720 C.3     1  SDR1        0.1978
     16  CB        15.1560   45.5520   41.5230 C.3     1  SDR1        0.0333
     17  CAI       14.6480   49.9000   39.6360 C.3     1  SDR1        0.0000
     18  CAJ       14.4660   48.4040   39.4780 C.3     1  SDR1        0.0000
     19  CAK       13.6810   47.8170   40.6260 C.3     1  SDR1        0.0000
     20  CAL       13.1100   46.4210   40.3320 C.3     1  SDR1        0.0001
     21  CAM       14.0880   45.2340   40.4990 C.3     1  SDR1        0.0023
     22  OXT       18.0100   45.4040   40.2920 O.co2   1  SDR1       -0.2437
@<TRIPOS>BOND
     1    14    12   ar
     2    18    17    1
     3    18    19    1
     4    22    12   ar
     5    20    21    1
     6    20    19    1
     7    12    15    1
     8    21    16    1
     9    16    15    1
    10    15    13    1
    11     7     6    2
    12    13     6   am
    13     6     5    1
    14     8     5    1
    15     8     9    1
    16     5     4    1
    17     4     1   am
    18     9    10   ar
    19     9    11   ar
    20     1     3    1
    21     1     2    2
