@<TRIPOS>MOLECULE
3sjh_ATP_A_1.pdb
 31 33 0 0 0
SMALL
GASTEIGER

@<TRIPOS>ATOM
      1  PG        52.6470   41.0730   17.7460 P.3   501  ATP501      0.5373
      2  O1G       53.6670   41.7320   18.5860 O.3   501  ATP501     -0.1143
      3  O2G       53.1330   40.7640   16.2860 O.2   501  ATP501     -0.2221
      4  O3G       51.9290   39.9470   18.4640 O.3   501  ATP501     -0.1143
      5  PB        50.4990   42.5970   16.4450 P.3   501  ATP501      0.2277
      6  O1B       50.5780   41.6240   15.3300 O.2   501  ATP501     -0.5168
      7  O2B       49.1450   42.7950   17.0370 O.3   501  ATP501     -0.4368
      8  O3B       51.4830   42.2550   17.6480 O.3   501  ATP501     -0.2258
      9  PA        50.7810   44.7760   14.5900 P.3   501  ATP501      0.2189
     10  O1A       51.8390   44.4040   13.6010 O.2   501  ATP501     -0.5170
     11  O2A       49.3290   44.6210   14.2300 O.3   501  ATP501     -0.4371
     12  O3A       51.0670   44.0490   15.9720 O.3   501  ATP501     -0.2700
     13  O5'       51.1360   46.2760   14.9900 O.3   501  ATP501     -0.3112
     14  C5'       50.4230   46.9360   16.0590 C.3   501  ATP501      0.1813
     15  C4'       51.4370   47.8870   16.6770 C.3   501  ATP501      0.1821
     16  O4'       51.9990   48.7200   15.6350 O.3   501  ATP501     -0.3135
     17  C3'       50.7980   48.8680   17.6320 C.3   501  ATP501      0.2184
     18  O3'       51.6910   49.0300   18.7450 O.3   501  ATP501     -0.2174
     19  C2'       50.7570   50.2480   16.9540 C.3   501  ATP501      0.2570
     20  O2'       50.8820   51.3670   17.8590 O.3   501  ATP501     -0.2130
     21  C1'       51.9700   50.1070   16.0130 C.3   501  ATP501      0.3186
     22  N9        51.7920   50.9740   14.8440 N.pl3 501  ATP501     -0.1439
     23  C8        50.7860   50.9340   13.9130 C.3   501  ATP501      0.3377
     24  N7        50.9380   51.9300   13.0090 N.2   501  ATP501     -0.2095
     25  C5        52.0820   52.5770   13.3610 C.2   501  ATP501      0.2526
     26  C6        52.8100   53.7310   12.8000 C.2   501  ATP501      0.4393
     27  N6        52.3450   54.3440   11.6530 N.pl3 501  ATP501      0.2180
     28  N1        53.9250   54.1130   13.4100 N.2   501  ATP501      0.0021
     29  C2        54.4410   53.5220   14.5510 C.3   501  ATP501      0.5254
     30  N3        53.7840   52.4470   15.1100 N.2   501  ATP501     -0.0055
     31  C4        52.6700   51.9320   14.5080 C.2   501  ATP501      0.3518
@<TRIPOS>BOND
     1    27    26    1
     2    26    25    1
     3    26    28    2
     4    24    25    2
     5    24    23    1
     6    25    31    1
     7    28    29    1
     8    10     9    2
     9    23    22    1
    10    11     9    1
    11    31    22    1
    12    31    30    2
    13    29    30    1
    14     9    13    1
    15     9    12    1
    16    22    21    1
    17    13    14    1
    18     6     5    2
    19    16    21    1
    20    16    15    1
    21    12     5    1
    22    21    19    1
    23    14    15    1
    24     3     1    2
    25     5     7    1
    26     5     8    1
    27    15    17    1
    28    19    17    1
    29    19    20    1
    30    17    18    1
    31     8     1    1
    32     1     4    1
    33     1     2    1
