@<TRIPOS>MOLECULE
3sjh_LAR_A_1.pdb
 29 31 0 0 0
SMALL
GASTEIGER

@<TRIPOS>ATOM
      1  S1        48.6990   50.9890   23.7510 S.3   503  LAR503     -0.0192
      2  N1        49.2120   49.0790   22.1570 N.2   503  LAR503     -0.1932
      3  O1        47.0260   48.6700   17.3810 O.2   503  LAR503     -0.2449
      4  O2        45.3990   48.7850   19.0210 O.3   503  LAR503     -0.4490
      5  O3        45.6960   47.9720   22.5090 O.3   503  LAR503     -0.3329
      6  O4        46.4870   49.9660   21.5070 O.3   503  LAR503     -0.1930
      7  O5        50.4700   50.8830   21.8580 O.2   503  LAR503     -0.2155
      8  C1        45.9570   49.2180   17.8000 C.2   503  LAR503      0.3407
      9  C2        45.3390   50.2700   17.0090 C.2   503  LAR503      0.0734
     10  C3        44.0590   50.6560   17.0370 C.2   503  LAR503     -0.0371
     11  C4        42.9180   49.9620   17.7840 C.3   503  LAR503      0.0276
     12  C5        42.6650   50.6900   19.0720 C.3   503  LAR503      0.0387
     13  C6        41.5080   49.8370   19.6320 C.2   503  LAR503      0.0152
     14  C7        41.2430   49.5690   20.8460 C.1   503  LAR503     -0.1098
     15  C8        40.5330   49.3100   21.9090 C.2   503  LAR503      0.0148
     16  C9        41.0420   49.1270   23.1370 C.3   503  LAR503      0.0344
     17  C10       42.4570   49.3230   23.6400 C.3   503  LAR503      0.0051
     18  C11       43.2160   48.0410   23.9100 C.3   503  LAR503      0.0028
     19  C12       43.4090   47.2570   22.5810 C.3   503  LAR503      0.0298
     20  C13       44.4820   47.9390   21.7220 C.3   503  LAR503      0.1214
     21  C14       44.7640   46.9460   20.4920 C.3   503  LAR503      0.0734
     22  C15       45.8690   47.5720   19.5900 C.3   503  LAR503      0.1766
     23  C16       47.1140   47.9090   20.4800 C.3   503  LAR503      0.1048
     24  C17       46.8110   48.5820   21.7980 C.3   503  LAR503      0.2448
     25  C18       48.0010   48.5700   22.8000 C.3   503  LAR503      0.1810
     26  C19       47.7780   49.4490   24.0800 C.3   503  LAR503      0.1042
     27  C20       49.5800   50.3130   22.4630 C.1   503  LAR503      0.1790
     28  C21       43.7040   51.7840   16.0800 C.3   503  LAR503      0.0266
     29  C22       42.2760   50.1140   24.9460 C.3   503  LAR503      0.0004
@<TRIPOS>BOND
     1    28    10    1
     2     9    10    2
     3     9     8    1
     4    10    11    1
     5     3     8    2
     6    11    12    1
     7     8     4    1
     8     4    22    1
     9    12    13    1
    10    22    23    1
    11    22    21    1
    12    13    14    2
    13    23    24    1
    14    21    20    1
    15    14    15    2
    16     6    24    1
    17    20     5    1
    18    20    19    1
    19    24     5    1
    20    24    25    1
    21     7    27    2
    22    15    16    1
    23     2    27    2
    24     2    25    1
    25    27     1    1
    26    19    18    1
    27    25    26    1
    28    16    17    1
    29    17    18    1
    30    17    29    1
    31     1    26    1
