@<TRIPOS>MOLECULE
3sji_AG7_A_1.pdb
 43 45 0 0 0
SMALL
GASTEIGER

@<TRIPOS>ATOM
      1  C01       -9.5350   -8.6290   -2.6810 C.2   501  AG7501      0.1708
      2  C02       -8.1250   -7.9930   -2.4610 C.3   501  AG7501      0.0758
      3  O03       -9.6980   -9.8300   -2.5040 O.2   501  AG7501     -0.2943
      4  C04       -7.0810   -8.8920   -1.7830 C.3   501  AG7501      0.0899
      5  C05       -5.7710   -8.2020   -1.4790 C.3   501  AG7501      0.0359
      6  C06       -5.1340   -7.3990   -2.5850 C.ar  501  AG7501     -0.0215
      7  C07       -4.6050   -8.0900   -3.7120 C.ar  501  AG7501     -0.0019
      8  C08       -4.0040   -7.3560   -4.7690 C.ar  501  AG7501      0.0293
      9  C09       -3.9430   -5.9730   -4.6940 C.ar  501  AG7501      0.1401
     10  C10       -4.5000   -5.2560   -3.5150 C.ar  501  AG7501      0.0293
     11  C11       -5.0770   -5.9670   -2.4980 C.ar  501  AG7501     -0.0019
     12  N12       -7.4060  -11.1250   -0.4400 N.am  501  AG7501     -0.2071
     13  C13       -7.6700  -11.8500    0.8160 C.3   501  AG7501      0.0970
     14  C14       -8.7800  -12.8900    0.7400 C.3   501  AG7501      0.0383
     15  C15      -10.1690  -12.3890    0.3890 C.3   501  AG7501      0.1100
     16  C16      -11.3120  -13.3160   -0.0970 C.1   501  AG7501      0.1250
     17  N17      -12.5480  -12.8350    0.5280 N.2   501  AG7501     -0.2063
     18  O18      -11.1290  -14.5230   -0.7580 O.2   501  AG7501     -0.2271
     19  C19       -6.4170  -12.3810    1.4550 C.3   501  AG7501      0.0333
     20  C20       -5.4990  -11.3310    2.0770 C.3   501  AG7501      0.1113
     21  C21       -6.1030  -10.5570    3.2430 C.2   501  AG7501      0.3170
     22  O22       -6.0330   -9.2440    3.2730 O.3   501  AG7501     -0.4485
     23  O23       -6.7760  -11.1620    4.0920 O.2   501  AG7501     -0.2501
     24  C47       -7.6590   -9.6740   -0.5580 C.2   501  AG7501      0.2416
     25  O48       -8.2340   -9.0650    0.3270 O.2   501  AG7501     -0.2733
     26  C50       -6.6230   -8.5410    4.3620 C.3   501  AG7501      0.2086
     27  C53       -6.3460   -7.0440    4.4880 C.3   501  AG7501      0.0513
     28  C57      -10.7320   -7.7770   -3.1900 C.3   501  AG7501      0.1526
     29  N58      -11.4790   -8.4650   -4.2230 N.am  501  AG7501     -0.1945
     30  C59      -11.6270   -7.9270   -5.5610 C.2   501  AG7501      0.2862
     31  O60      -11.0560   -6.9050   -5.8940 O.2   501  AG7501     -0.2666
     32  C78      -11.6160   -7.2390   -2.0780 C.3   501  AG7501      0.0272
     33  C81      -12.4630   -6.0780   -2.4870 C.3   501  AG7501      0.0022
     34  F1        -3.3760   -5.2780   -5.6800 F     501  AG7501     -0.2042
     35  C82      -10.9320   -7.0560   -0.7570 C.3   501  AG7501      0.0022
     36  C83      -12.3740  -11.3770    0.7500 C.3   501  AG7501      0.1387
     37  C84      -10.8700  -11.1660    1.0040 C.3   501  AG7501      0.0438
     38  C1       -12.4960   -8.6930   -6.5500 C.ar  501  AG7501      0.1774
     39  C2       -12.8370   -8.3200   -7.8240 C.ar  501  AG7501      0.0627
     40  C3       -13.6530   -9.3450   -8.3670 C.ar  501  AG7501      0.1550
     41  O4       -13.8000  -10.3570   -7.3790 O.2   501  AG7501     -0.3576
     42  N5       -13.1060   -9.9770   -6.2710 N.ar  501  AG7501     -0.0726
     43  C4       -14.2690   -9.3720   -9.7510 C.3   501  AG7501      0.0754
@<TRIPOS>BOND
     1    43    40    1
     2    40    39   ar
     3    40    41   ar
     4    39    38   ar
     5    41    42   ar
     6    38    42   ar
     7    38    30    1
     8    31    30    2
     9    34     9    1
    10    30    29   am
    11     8     9   ar
    12     8     7   ar
    13     9    10   ar
    14    29    28    1
    15     7     6   ar
    16    10    11   ar
    17    28     1    1
    18    28    32    1
    19     1     3    2
    20     1     2    1
    21     6    11   ar
    22     6     5    1
    23    33    32    1
    24     2     4    1
    25    32    35    1
    26     4     5    1
    27     4    24    1
    28    18    16    2
    29    24    12   am
    30    24    25    2
    31    12    13    1
    32    16    15    1
    33    16    17    2
    34    15    14    1
    35    15    37    1
    36    17    36    1
    37    14    13    1
    38    36    37    1
    39    13    19    1
    40    19    20    1
    41    20    21    1
    42    21    22    1
    43    21    23    2
    44    22    26    1
    45    26    27    1
