@<TRIPOS>MOLECULE
3sjj_DUP_A_1.pdb
 28 29 0 0 0
SMALL
GASTEIGER

@<TRIPOS>ATOM
      1  O4         1.0370   49.4020   23.0180 O.2   904  DUP904     -0.2085
      2  C4         1.0490   49.9150   21.7650 C.1   904  DUP904      0.2182
      3  C5         0.7680   49.1130   20.6590 C.2   904  DUP904      0.1242
      4  C6         0.7730   49.6910   19.3880 C.2   904  DUP904      0.0928
      5  N3         1.3270   51.2300   21.6150 N.2   904  DUP904     -0.2452
      6  C2         1.3220   51.7860   20.3900 C.1   904  DUP904      0.2844
      7  O2         1.5820   53.1050   20.2310 O.2   904  DUP904     -0.1918
      8  N1         1.0320   51.0100   19.2560 N.am  904  DUP904     -0.1790
      9  C1'        1.0940   51.6870   17.9570 C.3   904  DUP904      0.2090
     10  C2'        2.5320   51.5040   17.4870 C.3   904  DUP904      0.0874
     11  C3'        2.4440   50.3080   16.5630 C.3   904  DUP904      0.1857
     12  O3'        3.4800   50.3460   15.5840 O.3   904  DUP904     -0.2203
     13  O4'        0.2610   51.0700   16.9760 O.3   904  DUP904     -0.3339
     14  C4'        1.0900   50.5230   15.9290 C.3   904  DUP904      0.1774
     15  C5'        0.5200   49.2730   15.2450 C.3   904  DUP904      0.1848
     16  O5'       -0.0030   48.3370   16.1860 O.3   904  DUP904     -0.2775
     17  PA         0.5240   46.8140   16.1240 P.3   904  DUP904      0.4623
     18  O1A       -0.2630   46.1190   17.1960 O.3   904  DUP904     -0.1255
     19  O2A        0.4510   46.3350   14.6860 O.2   904  DUP904     -0.2354
     20  N3A        2.1300   46.7600   16.5320 N.3   904  DUP904     -0.0179
     21  PB         3.3980   46.9240   15.4670 P.3   904  DUP904      0.4700
     22  O1B        4.4980   47.7270   16.1230 O.3   904  DUP904     -0.1252
     23  O2B        2.9720   47.2960   14.0610 O.2   904  DUP904     -0.2350
     24  O3B        4.2000   45.5260   15.4130 O.3   904  DUP904     -0.1901
     25  PG         3.8760   44.2040   14.5410 P.3   904  DUP904      0.5397
     26  O2G        5.2050   44.0510   13.8460 O.3   904  DUP904     -0.1143
     27  O1G        2.6880   44.4610   13.6760 O.2   904  DUP904     -0.2220
     28  O3G        3.6020   43.1410   15.5880 O.3   904  DUP904     -0.1143
@<TRIPOS>BOND
     1    27    25    2
     2    26    25    1
     3    23    21    2
     4    25    24    1
     5    25    28    1
     6    19    17    2
     7    15    14    1
     8    15    16    1
     9    24    21    1
    10    21    22    1
    11    21    20    1
    12    12    11    1
    13    14    11    1
    14    14    13    1
    15    17    16    1
    16    17    20    1
    17    17    18    1
    18    11    10    1
    19    13     9    1
    20    10     9    1
    21     9     8    1
    22     8     4    1
    23     8     6   am
    24     4     3    2
    25     7     6    2
    26     6     5    2
    27     3     2    1
    28     5     2    2
    29     2     1    2
