@<TRIPOS>MOLECULE
3sjl_HEC_A_1.pdb
 43 50 0 0 0
SMALL
GASTEIGER

@<TRIPOS>ATOM
      1 FE         25.8340  -38.0470   80.5870 Fe    500  HEC500      0.0000
      2  CHA       25.7310  -38.3900   77.1610 C.2   500  HEC500      0.0000
      3  CHB       22.9390  -39.9770   80.8670 C.2   500  HEC500      0.0000
      4  CHC       26.4190  -38.2990   83.9800 C.2   500  HEC500      0.0000
      5  CHD       28.2030  -35.6250   80.2950 C.2   500  HEC500      0.0000
      6  NA        24.5950  -38.9770   79.2580 N.2   500  HEC500      0.0000
      7  C1A       24.6040  -38.9730   77.9260 C.2   500  HEC500      0.0000
      8  C2A       23.4940  -39.6370   77.3020 C.2   500  HEC500      0.0000
      9  C3A       22.7260  -40.0910   78.3230 C.2   500  HEC500      0.0000
     10  C4A       23.4160  -39.6370   79.5500 C.2   500  HEC500      0.0000
     11  CMA       21.4320  -40.8650   78.3150 C.3   500  HEC500      0.0000
     12  CAA       23.3640  -39.7690   75.7880 C.3   500  HEC500      0.0000
     13  CBA       22.0790  -39.0790   75.2860 C.3   500  HEC500      0.0000
     14  CGA       22.1510  -38.9300   73.7680 C.2   500  HEC500      0.0000
     15  O1A       21.1990  -38.3350   73.2020 O.co2 500  HEC500      0.0000
     16  O2A       23.1180  -39.3870   73.1390 O.co2 500  HEC500      0.0000
     17  NB        24.8800  -38.9180   82.1300 N.ar  500  HEC500      0.0000
     18  C1B       23.7850  -39.7630   82.0400 C.ar  500  HEC500      0.0000
     19  C2B       23.4700  -40.3310   83.3350 C.ar  500  HEC500      0.0000
     20  C3B       24.4420  -39.8730   84.2150 C.ar  500  HEC500      0.0000
     21  C4B       25.3020  -38.9910   83.3830 C.ar  500  HEC500      0.0000
     22  CMB       22.2930  -41.2280   83.5930 C.3   500  HEC500      0.0000
     23  CAB       24.7120  -40.2170   85.6590 C.3   500  HEC500      0.0000
     24  CBB       24.9540  -41.7520   85.7390 C.3   500  HEC500      0.0000
     25  NC        27.0550  -37.1040   81.8710 N.2   500  HEC500      0.0000
     26  C1C       27.1470  -37.2660   83.2050 C.2   500  HEC500      0.0000
     27  C2C       28.0390  -36.3020   83.8940 C.2   500  HEC500      0.0000
     28  C3C       28.5280  -35.5430   82.8440 C.2   500  HEC500      0.0000
     29  C4C       27.9180  -36.0990   81.6360 C.2   500  HEC500      0.0000
     30  CMC       28.3290  -36.2070   85.3660 C.3   500  HEC500      0.0000
     31  CAC       29.3800  -34.3370   82.8370 C.3   500  HEC500      0.0000
     32  CBC       30.7340  -34.5910   83.5510 C.3   500  HEC500      0.0000
     33  ND        26.8150  -37.1590   79.0560 N.ar  500  HEC500      0.0000
     34  C1D       27.8110  -36.2850   79.0970 C.ar  500  HEC500      0.0000
     35  C2D       28.4490  -36.0330   77.8090 C.ar  500  HEC500      0.0000
     36  C3D       27.7780  -36.8740   76.9400 C.ar  500  HEC500      0.0000
     37  C4D       26.7200  -37.5390   77.7440 C.ar  500  HEC500      0.0000
     38  CMD       29.6480  -35.1370   77.5660 C.3   500  HEC500      0.0000
     39  CAD       28.0300  -37.0870   75.5010 C.3   500  HEC500      0.0000
     40  CBD       29.1380  -38.1120   75.4210 C.3   500  HEC500      0.0000
     41  CGD       29.2980  -38.8220   74.0190 C.2   500  HEC500      0.0000
     42  O1D       30.3290  -39.6000   73.9730 O.co2 500  HEC500      0.0000
     43  O2D       28.4170  -38.6780   73.1290 O.co2 500  HEC500      0.0000
@<TRIPOS>BOND
     1    43    41   ar
     2    16    14   ar
     3    15    14   ar
     4    14    13    1
     5    42    41   ar
     6    41    40    1
     7    13    12    1
     8    40    39    1
     9    39    36    1
    10    12     8    1
    11    36    37   ar
    12    36    35   ar
    13     2    37    2
    14     2     7    1
    15     8     7    1
    16     8     9    2
    17    38    35    1
    18    37    33   ar
    19    35    34   ar
    20     7     6    2
    21    11     9    1
    22     9    10    1
    23    33    34   ar
    24    33     1    1
    25    34     5    2
    26     6    10    1
    27     6     1    1
    28    10     3    2
    29     5    29    1
    30     1    25    1
    31     1    17    1
    32     3    18    1
    33    29    25    2
    34    29    28    1
    35    25    26    1
    36    18    17   ar
    37    18    19   ar
    38    17    21   ar
    39    31    28    1
    40    31    32    1
    41    28    27    2
    42    26    27    1
    43    26     4    2
    44    19    22    1
    45    19    20   ar
    46    21     4    1
    47    21    20   ar
    48    27    30    1
    49    20    23    1
    50    23    24    1
