@<TRIPOS>MOLECULE
3sjo_AG7_A_1.pdb
 43 45 0 0 0
SMALL
GASTEIGER

@<TRIPOS>ATOM
      1  C01       10.2960   -8.1980    4.1650 C.2   501  AG7501      0.1708
      2  C02        8.9020   -7.6250    3.9430 C.3   501  AG7501      0.0758
      3  O03       10.4740   -9.3950    4.1050 O.2   501  AG7501     -0.2943
      4  C04        7.9230   -8.5150    3.1950 C.3   501  AG7501      0.0899
      5  C05        6.6460   -7.8040    2.7850 C.3   501  AG7501      0.0359
      6  C06        5.9610   -7.0570    3.9000 C.ar  501  AG7501     -0.0215
      7  C07        5.3060   -7.8180    4.9860 C.ar  501  AG7501     -0.0019
      8  C08        4.6370   -7.0880    6.0900 C.ar  501  AG7501      0.0293
      9  C09        4.6480   -5.6890    6.1070 C.ar  501  AG7501      0.1401
     10  C10        5.3190   -4.9190    5.0090 C.ar  501  AG7501      0.0293
     11  C11        5.9760   -5.6440    3.9160 C.ar  501  AG7501     -0.0019
     12  N12        8.2670  -10.7400    1.9500 N.am  501  AG7501     -0.2071
     13  C13        8.6030  -11.4730    0.7240 C.3   501  AG7501      0.0970
     14  C14        9.7270  -12.4700    0.9600 C.3   501  AG7501      0.0383
     15  C15       11.0400  -11.7810    1.3310 C.3   501  AG7501      0.1100
     16  C16       12.1670  -12.6480    1.9070 C.1   501  AG7501      0.1250
     17  N17       13.4730  -12.1950    1.2880 N.2   501  AG7501     -0.2063
     18  O18       11.9640  -13.9770    2.1310 O.2   501  AG7501     -0.2271
     19  C19        7.3760  -12.0510    0.0560 C.3   501  AG7501      0.0333
     20  C20        6.4450  -10.9940   -0.5070 C.3   501  AG7501      0.1113
     21  C21        7.0760  -10.1940   -1.6410 C.2   501  AG7501      0.3170
     22  O22        7.1080   -8.9040   -1.5840 O.3   501  AG7501     -0.4485
     23  O23        7.8530  -10.7830   -2.4300 O.2   501  AG7501     -0.2501
     24  C47        8.5630   -9.3130    2.0540 C.2   501  AG7501      0.2416
     25  O48        9.1700   -8.7450    1.1660 O.2   501  AG7501     -0.2733
     26  C50        7.7990   -8.2130   -2.5890 C.3   501  AG7501      0.2086
     27  C53        8.2060   -6.7870   -2.2910 C.3   501  AG7501      0.0513
     28  C57       11.4090   -7.2950    4.7210 C.3   501  AG7501      0.1526
     29  N58       12.3650   -8.0180    5.5500 N.am  501  AG7501     -0.1945
     30  C59       12.4690   -7.7530    6.9690 C.2   501  AG7501      0.2862
     31  O60       11.8860   -6.7960    7.4590 O.2   501  AG7501     -0.2666
     32  C78       12.1070   -6.4060    3.7090 C.3   501  AG7501      0.0272
     33  C81       13.0860   -5.4930    4.3870 C.3   501  AG7501      0.0022
     34  F1         4.0290   -5.0390    7.0910 F     501  AG7501     -0.2042
     35  C82       12.7240   -7.1740    2.5840 C.3   501  AG7501      0.0022
     36  C83       13.1760  -10.8560    0.6680 C.3   501  AG7501      0.1387
     37  C84       11.6780  -10.8360    0.3400 C.3   501  AG7501      0.0438
     38  C1        13.4190   -8.5970    7.8020 C.ar  501  AG7501      0.1774
     39  C2        13.7900   -8.4180    9.2970 C.ar  501  AG7501      0.0627
     40  C3        14.7450   -9.4560    9.6350 C.ar  501  AG7501      0.1550
     41  O4        14.9830  -10.2480    8.4650 O.2   501  AG7501     -0.3576
     42  N5        14.1200   -9.6770    7.3310 N.ar  501  AG7501     -0.0726
     43  C4        15.3860   -9.6700   10.9780 C.3   501  AG7501      0.0754
@<TRIPOS>BOND
     1    26    27    1
     2    26    22    1
     3    23    21    2
     4    21    22    1
     5    21    20    1
     6    20    19    1
     7    19    13    1
     8    37    36    1
     9    37    15    1
    10    36    17    1
    11    13    14    1
    12    13    12    1
    13    14    15    1
    14    25    24    2
    15    17    16    2
    16    15    16    1
    17    16    18    2
    18    12    24   am
    19    24     4    1
    20    35    32    1
    21     5     4    1
    22     5     6    1
    23     4     2    1
    24    32    33    1
    25    32    28    1
    26     6    11   ar
    27     6     7   ar
    28    11    10   ar
    29     2     1    1
    30     3     1    2
    31     1    28    1
    32    28    29    1
    33     7     8   ar
    34    10     9   ar
    35    29    30   am
    36     8     9   ar
    37     9    34    1
    38    30    31    2
    39    30    38    1
    40    42    38   ar
    41    42    41   ar
    42    38    39   ar
    43    41    40   ar
    44    39    40   ar
    45    40    43    1
