@<TRIPOS>MOLECULE
3sjq_PHU_A_1.pdb
 10 10 0 0 0
SMALL
GASTEIGER

@<TRIPOS>ATOM
      1  C1        -1.0710   49.4480   -3.4950 C.2   2001  PHU2001     0.3632
      2  C2        -0.8170   51.8410   -4.1460 C.ar  2001  PHU2001     0.0750
      3  C3        -1.5240   51.6550   -5.3280 C.ar  2001  PHU2001     0.0167
      4  C4        -0.2340   53.0620   -3.8530 C.ar  2001  PHU2001     0.0167
      5  C5        -0.3630   54.1110   -4.7460 C.ar  2001  PHU2001     0.0013
      6  C6        -1.6550   52.7050   -6.2170 C.ar  2001  PHU2001     0.0013
      7  C7        -1.0750   53.9270   -5.9220 C.ar  2001  PHU2001     0.0001
      8  N1        -0.6610   50.7810   -3.2080 N.am  2001  PHU2001    -0.1596
      9  N2        -0.8820   48.5500   -2.5770 N.am  2001  PHU2001    -0.0676
     10  O1        -1.5790   49.1410   -4.5660 O.2   2001  PHU2001    -0.2471
@<TRIPOS>BOND
     1     6     7   ar
     2     6     3   ar
     3     7     5   ar
     4     3     2   ar
     5     5     4   ar
     6    10     1    2
     7     2     4   ar
     8     2     8    1
     9     1     8   am
    10     1     9   am
