@<TRIPOS>MOLECULE
3sjt_5AB_A_1.pdb
 14 13 0 0 0
SMALL
GASTEIGER

@<TRIPOS>ATOM
      1  B1        26.1880  -13.1650    7.0090 B     551  5AB551      0.0000
      2  C1        21.2870  -17.3560    7.2430 C.3   551  5AB551      0.0000
      3  N1        21.3700  -17.6080    5.8140 N.3   551  5AB551      0.0000
      4  O1        20.0010  -15.8600    8.5410 O.co2 551  5AB551      0.0000
      5  C2        20.1890  -16.3220    7.4640 C.2   551  5AB551      0.0000
      6  O2        26.5420  -13.7610    5.8190 O.3   551  5AB551      0.0000
      7  C3        22.6200  -16.8190    7.7580 C.2   551  5AB551      0.0000
      8  O3        26.2920  -11.7980    6.8620 O.3   551  5AB551      0.0000
      9  C4        23.1140  -15.4660    7.2310 C.2   551  5AB551      0.0000
     10  O4        27.0780  -13.5420    7.9840 O.3   551  5AB551      0.0000
     11  C5        24.4960  -14.9700    7.6730 C.3   551  5AB551      0.0000
     12  O5        19.4560  -15.8740    6.3520 O.co2 551  5AB551      0.0000
     13  C6        24.8740  -13.5220    7.3500 C.3   551  5AB551      0.0000
     14  C9        20.9280  -18.6440    7.9670 C.3   551  5AB551      0.0000
@<TRIPOS>BOND
     1     3     2    1
     2     6     1    1
     3    12     5   ar
     4     8     1    1
     5     1    13    1
     6     1    10    1
     7     9    11    1
     8     9     7    2
     9     2     5    1
    10     2     7    1
    11     2    14    1
    12    13    11    1
    13     5     4   ar
