@<TRIPOS>MOLECULE
3sjx_NAG_A_1.pdb
 14 14 0 0 0
SMALL
GASTEIGER

@<TRIPOS>ATOM
      1  C1        11.7210   26.0000   57.8220 C.3   1755  NAG1755     0.1665
      2  C2        11.5640   24.5350   57.4500 C.3   1755  NAG1755     0.1576
      3  C3        10.1000   24.1100   57.6550 C.3   1755  NAG1755     0.2069
      4  C4         9.5880   24.4350   59.0510 C.3   1755  NAG1755     0.2134
      5  C5         9.9280   25.8890   59.3820 C.3   1755  NAG1755     0.1809
      6  C6         9.5020   26.2880   60.8050 C.3   1755  NAG1755     0.2141
      7  C7        13.0850   23.7800   55.6960 C.2   1755  NAG1755     0.2420
      8  C8        13.3640   23.6960   54.2310 C.3   1755  NAG1755     0.0964
      9  N2        11.9520   24.3890   56.0630 N.am  1755  NAG1755    -0.2019
     10  O3        10.0140   22.7190   57.4930 O.3   1755  NAG1755    -0.2184
     11  O4         8.1770   24.2880   59.0080 O.3   1755  NAG1755    -0.2176
     12  O5        11.3260   26.1100   59.1880 O.3   1755  NAG1755    -0.3489
     13  O6        10.1830   25.4270   61.6860 O.3   1755  NAG1755    -0.2176
     14  O7        13.9050   23.3300   56.4840 O.2   1755  NAG1755    -0.2733
@<TRIPOS>BOND
     1     8     7    1
     2     7     9   am
     3     7    14    2
     4     9     2    1
     5     2     3    1
     6     2     1    1
     7    10     3    1
     8     3     4    1
     9     1    12    1
    10    11     4    1
    11     4     5    1
    12    12     5    1
    13     5     6    1
    14     6    13    1
