@<TRIPOS>MOLECULE
3sjx_QRG_A_1.pdb
 20 19 0 0 0
SMALL
GASTEIGER

@<TRIPOS>ATOM
      1  CAO       20.1760   43.5820   46.1320 C.2     1  QRG1        0.2423
      2  OAC       19.9380   44.4200   47.0080 O.2     1  QRG1       -0.2733
      3  CAB       21.1210   42.4200   46.4440 C.3     1  QRG1        0.0964
      4  NAL       19.8450   43.7300   44.8290 N.am    1  QRG1       -0.1972
      5  CAT       18.9800   44.8480   44.3660 C.3     1  QRG1        0.1839
      6  CAR       18.2740   44.4270   43.0790 C.2     1  QRG1        0.2622
      7  OAF       18.6100   43.4150   42.4520 O.2     1  QRG1       -0.2715
      8  CAK       19.7640   46.1120   44.0040 C.3     1  QRG1        0.1450
      9  CAP       20.4100   46.7320   45.2660 C.2     1  QRG1        0.3671
     10  OAG       21.6490   46.4740   45.4860 O.co2   1  QRG1       -0.2456
     11  OAD       19.6610   47.4450   45.9660 O.co2   1  QRG1       -0.2456
     12  N         17.1950   45.1260   42.7290 N.am    1  QRG1       -0.1941
     13  CA        16.3690   44.6650   41.5660 C.3     1  QRG1        0.1987
     14  C         17.1610   44.6970   40.2340 C.2     1  QRG1        0.3842
     15  OXT       16.8980   43.8030   39.3950 O.co2   1  QRG1       -0.2437
     16  CB        15.1930   45.6700   41.4770 C.3     1  QRG1        0.0449
     17  CG        14.3550   45.3370   40.2740 C.3     1  QRG1        0.0599
     18  SD        13.0220   46.6060   40.1300 S.3     1  QRG1       -0.1393
     19  CE        13.8510   47.9970   39.4450 C.3     1  QRG1        0.0692
     20  O         18.0270   45.5810   40.1000 O.co2   1  QRG1       -0.2437
@<TRIPOS>BOND
     1    15    14   ar
     2    19    18    1
     3    20    14   ar
     4    18    17    1
     5    14    13    1
     6    17    16    1
     7    16    13    1
     8    13    12    1
     9     7     6    2
    10    12     6   am
    11     6     5    1
    12     8     5    1
    13     8     9    1
    14     5     4    1
    15     4     1   am
    16     9    10   ar
    17     9    11   ar
    18     1     3    1
    19     1     2    2
