@<TRIPOS>MOLECULE
3sjy_GDP_A_1.pdb
 28 30 0 0 0
SMALL
GASTEIGER

@<TRIPOS>ATOM
      1  PB        68.0570   71.6200  -21.3080 P.3   428  GDP428      0.5373
      2  O1B       67.7410   70.7120  -20.1390 O.3   428  GDP428     -0.1143
      3  O2B       69.4860   71.3790  -21.7430 O.3   428  GDP428     -0.1143
      4  O3B       67.1090   71.3240  -22.4500 O.2   428  GDP428     -0.2221
      5  O3A       67.9050   73.1580  -20.8430 O.3   428  GDP428     -0.2261
      6  PA        66.4970   73.9550  -20.7350 P.3   428  GDP428      0.2231
      7  O1A       65.8970   74.2480  -22.0970 O.2   428  GDP428     -0.5169
      8  O2A       66.7460   75.2390  -19.9680 O.3   428  GDP428     -0.4370
      9  O5'       65.5100   72.9690  -19.9190 O.3   428  GDP428     -0.3111
     10  C5'       64.8640   73.4020  -18.7220 C.3   428  GDP428      0.1813
     11  C4'       63.5980   72.5960  -18.4400 C.3   428  GDP428      0.1799
     12  O4'       62.4690   73.4210  -18.7340 O.3   428  GDP428     -0.3326
     13  C3'       63.4540   71.3370  -19.2870 C.3   428  GDP428      0.2158
     14  O3'       62.9430   70.3010  -18.4380 O.3   428  GDP428     -0.2175
     15  C2'       62.4240   71.6800  -20.3540 C.3   428  GDP428      0.2310
     16  O2'       61.5800   70.5740  -20.6970 O.3   428  GDP428     -0.2158
     17  C1'       61.6130   72.7800  -19.6910 C.3   428  GDP428      0.2293
     18  N9        61.1330   73.7890  -20.6620 N.pl3 428  GDP428     -0.2354
     19  C8        61.8730   74.5370  -21.5060 C.3   428  GDP428      0.2246
     20  N7        61.0760   75.3690  -22.2290 N.2   428  GDP428     -0.2322
     21  C5        59.8080   75.1610  -21.8280 C.2   428  GDP428      0.2182
     22  C6        58.4740   75.6900  -22.1700 C.1   428  GDP428      0.2372
     23  O6        58.3730   76.5790  -23.0500 O.2   428  GDP428     -0.2069
     24  N1        57.4070   75.1880  -21.5080 N.2   428  GDP428     -0.2485
     25  C2        57.5120   74.2250  -20.5590 C.1   428  GDP428      0.2531
     26  N2        56.4040   73.7360  -19.9170 N.pl3 428  GDP428     -0.0226
     27  N3        58.7170   73.7080  -20.2140 N.2   428  GDP428     -0.3074
     28  C4        59.8570   74.1280  -20.7930 C.2   428  GDP428      0.2300
@<TRIPOS>BOND
     1    23    22    2
     2     4     1    2
     3    20    21    2
     4    20    19    1
     5    22    21    1
     6    22    24    2
     7     7     6    2
     8    21    28    1
     9     3     1    1
    10    24    25    2
    11    19    18    1
    12     1     5    1
    13     1     2    1
    14     5     6    1
    15    28    18    1
    16    28    27    2
    17     6     8    1
    18     6     9    1
    19    16    15    1
    20    18    17    1
    21    25    27    2
    22    25    26    1
    23    15    17    1
    24    15    13    1
    25     9    10    1
    26    17    12    1
    27    13    11    1
    28    13    14    1
    29    12    11    1
    30    10    11    1
