@<TRIPOS>MOLECULE
3sjz_GDP_A_1.pdb
 28 30 0 0 0
SMALL
GASTEIGER

@<TRIPOS>ATOM
      1  PB       -51.3530   35.4440  -22.0580 P.3   416  GDP416      0.5373
      2  O1B      -52.3890   34.4880  -21.5070 O.3   416  GDP416     -0.1143
      3  O2B      -50.0730   35.3600  -21.2690 O.3   416  GDP416     -0.1143
      4  O3B      -51.9110   36.8500  -22.0310 O.2   416  GDP416     -0.2221
      5  O3A      -50.9120   35.0600  -23.5610 O.3   416  GDP416     -0.2261
      6  PA       -51.9100   34.8960  -24.8100 P.3   416  GDP416      0.2231
      7  O1A      -51.9780   33.4350  -25.1630 O.2   416  GDP416     -0.5169
      8  O2A      -53.2900   35.4580  -24.5600 O.3   416  GDP416     -0.4370
      9  O5'      -51.1250   35.7360  -25.9330 O.3   416  GDP416     -0.3111
     10  C5'      -51.5990   37.0310  -26.2840 C.3   416  GDP416      0.1813
     11  C4'      -51.2790   37.2900  -27.7450 C.3   416  GDP416      0.1799
     12  O4'      -50.0290   36.6800  -28.0790 O.3   416  GDP416     -0.3326
     13  C3'      -52.3510   36.6650  -28.6240 C.3   416  GDP416      0.2158
     14  O3'      -52.6960   37.5570  -29.6950 O.3   416  GDP416     -0.2175
     15  C2'      -51.6930   35.4290  -29.1910 C.3   416  GDP416      0.2310
     16  O2'      -52.1890   35.1490  -30.5020 O.3   416  GDP416     -0.2158
     17  C1'      -50.2260   35.8220  -29.2100 C.3   416  GDP416      0.2293
     18  N9       -49.3420   34.6370  -29.1260 N.pl3 416  GDP416     -0.2354
     19  C8       -49.3050   33.7250  -28.1350 C.3   416  GDP416      0.2246
     20  N7       -48.3530   32.7900  -28.3800 N.2   416  GDP416     -0.2322
     21  C5       -47.7640   33.1030  -29.5580 C.2   416  GDP416      0.2182
     22  C6       -46.6840   32.5440  -30.4130 C.1   416  GDP416      0.2372
     23  O6       -46.0800   31.5130  -30.0810 O.2   416  GDP416     -0.2069
     24  N1       -46.3670   33.1680  -31.5530 N.2   416  GDP416     -0.2485
     25  C2       -47.0100   34.2900  -31.9410 C.1   416  GDP416      0.2531
     26  N2       -46.6500   34.8750  -33.1080 N.pl3 416  GDP416     -0.0226
     27  N3       -48.0110   34.8620  -31.2110 N.2   416  GDP416     -0.3074
     28  C4       -48.4210   34.3240  -30.0370 C.2   416  GDP416      0.2300
@<TRIPOS>BOND
     1    26    25    1
     2    25    24    2
     3    25    27    2
     4    24    22    2
     5    27    28    2
     6    16    15    1
     7    22    23    2
     8    22    21    1
     9    28    21    1
    10    28    18    1
    11    14    13    1
    12    21    20    2
    13    17    15    1
    14    17    18    1
    15    17    12    1
    16    15    13    1
    17    18    19    1
    18    13    11    1
    19    20    19    1
    20    12    11    1
    21    11    10    1
    22    10     9    1
    23     9     6    1
    24     7     6    2
    25     6     8    1
    26     6     5    1
    27     5     1    1
    28     1     4    2
    29     1     2    1
    30     1     3    1
