@<TRIPOS>MOLECULE
3sjz_GNP_A_1.pdb
 32 34 0 0 0
SMALL
GASTEIGER

@<TRIPOS>ATOM
      1  PG       -75.0550   28.4980  -10.4200 P.3   417  GNP417      0.4884
      2  O1G      -75.8840   28.2860  -11.6720 O.2   417  GNP417     -0.2331
      3  O2G      -75.8980   28.5530   -9.1600 O.3   417  GNP417     -0.1240
      4  O3G      -74.1720   29.7100  -10.6730 O.3   417  GNP417     -0.1240
      5  N3B      -74.0580   27.2680  -10.2470 N.3   417  GNP417     -0.0163
      6  PB       -73.0380   26.8280  -11.3780 P.3   417  GNP417      0.4669
      7  O1B      -73.6030   27.1350  -12.7130 O.2   417  GNP417     -0.2351
      8  O2B      -71.7530   27.4590  -10.9880 O.3   417  GNP417     -0.1253
      9  O3A      -72.8600   25.3090  -11.2980 O.3   417  GNP417     -0.2360
     10  PA       -72.1050   24.5000  -12.3620 P.3   417  GNP417      0.2220
     11  O1A      -72.9300   23.3090  -12.7210 O.3   417  GNP417     -0.4370
     12  O2A      -71.6500   25.3960  -13.4550 O.2   417  GNP417     -0.5170
     13  O5'      -70.7850   23.9400  -11.6870 O.3   417  GNP417     -0.3111
     14  C5'      -70.0480   22.8680  -12.2890 C.3   417  GNP417      0.1813
     15  C4'      -68.8220   22.4540  -11.4800 C.3   417  GNP417      0.1799
     16  O4'      -69.2530   21.7100  -10.3180 O.3   417  GNP417     -0.3326
     17  C3'      -67.8820   21.4730  -12.1750 C.3   417  GNP417      0.2158
     18  O3'      -66.6090   21.4690  -11.5240 O.3   417  GNP417     -0.2175
     19  C2'      -68.6300   20.1470  -12.0020 C.3   417  GNP417      0.2310
     20  O2'      -67.7850   19.0150  -12.1910 O.3   417  GNP417     -0.2158
     21  C1'      -69.1320   20.3100  -10.5570 C.3   417  GNP417      0.2293
     22  N9       -70.4120   19.6830  -10.1820 N.pl3 417  GNP417     -0.2354
     23  C8       -71.6790   20.1060  -10.5250 C.3   417  GNP417      0.2246
     24  N7       -72.6420   19.3660  -10.0330 N.2   417  GNP417     -0.2322
     25  C5       -71.9760   18.3870   -9.3020 C.2   417  GNP417      0.2182
     26  C6       -72.4910   17.3010   -8.5470 C.1   417  GNP417      0.2372
     27  O6       -73.6760   16.9800   -8.3640 O.2   417  GNP417     -0.2069
     28  N1       -71.4740   16.5420   -7.9660 N.2   417  GNP417     -0.2485
     29  C2       -70.1240   16.7940   -8.0950 C.1   417  GNP417      0.2531
     30  N2       -69.2880   15.9510   -7.4570 N.pl3 417  GNP417     -0.0226
     31  N3       -69.6350   17.8110   -8.8010 N.2   417  GNP417     -0.3074
     32  C4       -70.6070   18.5680   -9.3780 C.2   417  GNP417      0.2300
@<TRIPOS>BOND
     1    12    10    2
     2    11    10    1
     3     7     6    2
     4    10    13    1
     5    10     9    1
     6    14    13    1
     7    14    15    1
     8    20    19    1
     9    17    19    1
    10    17    18    1
    11    17    15    1
    12    19    21    1
    13     2     1    2
    14    15    16    1
    15     6     9    1
    16     6     8    1
    17     6     5    1
    18     4     1    1
    19    21    16    1
    20    21    22    1
    21    23    22    1
    22    23    24    1
    23     1     5    1
    24     1     3    1
    25    22    32    1
    26    24    25    2
    27    32    25    1
    28    32    31    2
    29    25    26    1
    30    31    29    2
    31    26    27    2
    32    26    28    2
    33    29    28    2
    34    29    30    1
