@<TRIPOS>MOLECULE
3sk2_GRI_A_1.pdb
 21 23 0 0 0
SMALL
GASTEIGER

@<TRIPOS>ATOM
      1  CAA        4.1670   82.6450   25.9790 C.3   130  GRI130      0.2526
      2  OAB        3.9240   88.8940   22.6010 O.co2 130  GRI130     -0.2405
      3  OAC       -3.3060   84.7210   25.3720 O.3   130  GRI130     -0.2151
      4  OAD        4.0820   86.9570   23.7980 O.co2 130  GRI130     -0.2405
      5  CAE       -0.0420   89.3320   23.2260 C.ar  130  GRI130      0.0030
      6  CAF        1.3100   89.1380   23.0430 C.ar  130  GRI130      0.0093
      7  CAG       -0.1960   83.0250   26.7020 C.ar  130  GRI130      0.0041
      8  CAH        1.1810   82.8550   26.4850 C.ar  130  GRI130      0.0395
      9  CAI       -0.7790   88.3390   23.8160 C.ar  130  GRI130      0.0347
     10  CAJ       -2.3720   84.3180   26.4640 C.3   130  GRI130      0.2112
     11  NAK       -0.8160   86.1890   24.8850 N.2   130  GRI130     -0.3968
     12  NAL        1.8510   85.8350   24.5040 N.2   130  GRI130     -0.3934
     13  OAM        3.2460   83.6670   25.4630 O.3   130  GRI130     -0.4688
     14  CAN        3.3670   87.9180   23.2640 C.2   130  GRI130      0.3903
     15  CAO       -0.8750   84.1410   26.1650 C.ar  130  GRI130      0.0429
     16  CAP        1.8780   83.8040   25.7140 C.ar  130  GRI130      0.1706
     17  CAQ        1.9290   87.9870   23.4750 C.ar  130  GRI130      0.1118
     18  CAR       -0.1390   87.1750   24.2810 C.ar  130  GRI130      0.1611
     19  CAS       -0.1880   85.0860   25.4150 C.ar  130  GRI130      0.1623
     20  CAT        1.2310   86.9790   24.0840 C.ar  130  GRI130      0.1673
     21  CAU        1.1890   84.9040   25.1970 C.ar  130  GRI130      0.1942
@<TRIPOS>BOND
     1     2    14   ar
     2     6     5   ar
     3     6    17   ar
     4     5     9   ar
     5    14    17    1
     6    14     4   ar
     7    17    20   ar
     8     9    18   ar
     9    20    18   ar
    10    20    12    2
    11    18    11    2
    12    12    21    2
    13    11    19    2
    14    21    19   ar
    15    21    16   ar
    16     3    10    1
    17    19    15   ar
    18    13    16    1
    19    13     1    1
    20    16     8   ar
    21    15    10    1
    22    15     7   ar
    23     8     7   ar
