@<TRIPOS>MOLECULE
3sk3_CIT_A_1.pdb
 13 12 0 0 0
SMALL
GASTEIGER

@<TRIPOS>ATOM
      1  C1         9.7770  -41.8740  -17.3730 C.2   501  CIT501      0.3680
      2  O1         9.2070  -42.9160  -17.0120 O.co2 501  CIT501     -0.2455
      3  O2        10.9540  -41.5790  -16.9340 O.co2 501  CIT501     -0.2455
      4  C2         9.0670  -41.0180  -18.4140 C.3   501  CIT501      0.1560
      5  C3        10.1940  -40.8250  -19.3970 C.3   501  CIT501      0.2402
      6  O7        11.1040  -39.9390  -18.6830 O.3   501  CIT501     -0.2129
      7  C4         9.8720  -40.2640  -20.7800 C.3   501  CIT501      0.1560
      8  C5         9.1350  -38.9510  -20.7670 C.2   501  CIT501      0.3680
      9  O3         8.0010  -38.8830  -20.2310 O.co2 501  CIT501     -0.2455
     10  O4         9.6430  -37.9380  -21.3150 O.co2 501  CIT501     -0.2455
     11  C6        10.7980  -42.2040  -19.6390 C.2   501  CIT501      0.3927
     12  O5        10.1010  -43.2460  -19.5330 O.co2 501  CIT501     -0.2429
     13  O6        12.0000  -42.3170  -19.9400 O.co2 501  CIT501     -0.2429
@<TRIPOS>BOND
     1    10     8   ar
     2     7     8    1
     3     7     5    1
     4     8     9   ar
     5    13    11   ar
     6    11    12   ar
     7    11     5    1
     8     5     6    1
     9     5     4    1
    10     4     1    1
    11     1     2   ar
    12     1     3   ar
