@<TRIPOS>MOLECULE
3sk4_THP_A_1.pdb
 25 26 0 0 0
SMALL
GASTEIGER

@<TRIPOS>ATOM
      1  P2        18.0860   -1.9500    4.7830 P.3   150  THP150      0.5327
      2  O4P       18.0680   -3.3740    5.1340 O.2   150  THP150     -0.2224
      3  O5P       16.7730   -1.1750    5.2830 O.3   150  THP150     -0.1145
      4  O6P       19.3100   -1.2310    5.5110 O.3   150  THP150     -0.1145
      5  P1        21.3160    1.5580    1.0640 P.3   150  THP150      0.5326
      6  O1P       22.2870    2.1440    0.1230 O.2   150  THP150     -0.2224
      7  O2P       21.9950    0.3640    1.9220 O.3   150  THP150     -0.1145
      8  O3P       20.5970    2.5560    2.0760 O.3   150  THP150     -0.1145
      9  O5'       18.1160   -1.8340    3.1410 O.3   150  THP150     -0.2675
     10  C5'       18.3190   -0.5080    2.7070 C.3   150  THP150      0.1857
     11  C4'       19.0940   -0.6610    1.3920 C.3   150  THP150      0.1748
     12  O4'       18.4870   -1.7350    0.6930 O.3   150  THP150     -0.3340
     13  C3'       18.9370    0.6120    0.5040 C.3   150  THP150      0.1600
     14  O3'       20.2170    0.9800   -0.0040 O.3   150  THP150     -0.2700
     15  C2'       18.0490    0.1180   -0.6740 C.3   150  THP150      0.0847
     16  C1'       18.3290   -1.4080   -0.7220 C.3   150  THP150      0.2089
     17  N1        17.0200   -1.9840   -1.0960 N.am  150  THP150     -0.1794
     18  C2        16.7410   -2.1950   -2.4140 C.1   150  THP150      0.2844
     19  O2        17.6010   -1.8940   -3.2320 O.2   150  THP150     -0.1918
     20  N3        15.5860   -2.7320   -2.8380 N.2   150  THP150     -0.2455
     21  C4        14.6310   -3.0000   -1.9310 C.1   150  THP150      0.2134
     22  O4        13.5450   -3.3700   -2.3860 O.2   150  THP150     -0.2088
     23  C5        14.8760   -2.7770   -0.5370 C.2   150  THP150      0.0891
     24  C5M       13.8440   -3.0830    0.5130 C.3   150  THP150      0.0462
     25  C6        16.0820   -2.2740   -0.1160 C.2   150  THP150      0.0877
@<TRIPOS>BOND
     1    19    18    2
     2    20    18    2
     3    20    21    2
     4    18    17   am
     5    22    21    2
     6    21    23    1
     7    17    16    1
     8    17    25    1
     9    16    15    1
    10    16    12    1
    11    15    13    1
    12    23    25    2
    13    23    24    1
    14    14    13    1
    15    14     5    1
    16     6     5    2
    17    13    11    1
    18    12    11    1
    19     5     7    1
    20     5     8    1
    21    11    10    1
    22    10     9    1
    23     9     1    1
    24     1     2    2
    25     1     3    1
    26     1     4    1
