@<TRIPOS>MOLECULE
3sk5_THP_A_1.pdb
 25 26 0 0 0
SMALL
GASTEIGER

@<TRIPOS>ATOM
      1  P2        17.9140    8.4650    4.7360 P.3   150  THP150      0.5327
      2  O4P       17.9390    7.0010    5.0470 O.2   150  THP150     -0.2224
      3  O5P       16.6360    9.2150    5.2730 O.3   150  THP150     -0.1145
      4  O6P       19.1790    9.1900    5.3100 O.3   150  THP150     -0.1145
      5  P1        21.2440   11.9080    0.9240 P.3   150  THP150      0.5326
      6  O1P       22.2220   12.5320   -0.0430 O.2   150  THP150     -0.2224
      7  O2P       21.9620   10.7390    1.6980 O.3   150  THP150     -0.1145
      8  O3P       20.5880   12.9090    1.9040 O.3   150  THP150     -0.1145
      9  O5'       17.8730    8.4920    3.1890 O.3   150  THP150     -0.2675
     10  C5'       17.9660    9.8060    2.5210 C.3   150  THP150      0.1857
     11  C4'       18.8850    9.6750    1.3150 C.3   150  THP150      0.1748
     12  O4'       18.6050    8.5520    0.4400 O.3   150  THP150     -0.3340
     13  C3'       18.8850   10.9550    0.3860 C.3   150  THP150      0.1600
     14  O3'       20.2370   11.2310   -0.1180 O.3   150  THP150     -0.2700
     15  C2'       18.0250   10.4480   -0.8000 C.3   150  THP150      0.0847
     16  C1'       18.2240    8.8980   -0.8680 C.3   150  THP150      0.2089
     17  N1        16.9150    8.2630   -1.2100 N.am  150  THP150     -0.1794
     18  C2        16.6070    8.0630   -2.5190 C.1   150  THP150      0.2844
     19  O2        17.4360    8.4060   -3.3960 O.2   150  THP150     -0.1918
     20  N3        15.4100    7.5320   -2.9200 N.2   150  THP150     -0.2455
     21  C4        14.4820    7.3010   -1.9090 C.1   150  THP150      0.2134
     22  O4        13.3780    6.8850   -2.2700 O.2   150  THP150     -0.2088
     23  C5        14.8320    7.4650   -0.5470 C.2   150  THP150      0.0891
     24  C5M       13.7870    7.1270    0.5300 C.3   150  THP150      0.0462
     25  C6        16.0470    7.9940   -0.1450 C.2   150  THP150      0.0877
@<TRIPOS>BOND
     1    19    18    2
     2    20    18    2
     3    20    21    2
     4    18    17   am
     5    22    21    2
     6    21    23    1
     7    17    16    1
     8    17    25    1
     9    16    15    1
    10    16    12    1
    11    15    13    1
    12    23    25    2
    13    23    24    1
    14    14    13    1
    15    14     5    1
    16     6     5    2
    17    13    11    1
    18    12    11    1
    19     5     7    1
    20     5     8    1
    21    11    10    1
    22    10     9    1
    23     9     1    1
    24     1     2    2
    25     1     3    1
    26     1     4    1
