@<TRIPOS>MOLECULE
3sk6_THP_A_1.pdb
 25 26 0 0 0
SMALL
GASTEIGER

@<TRIPOS>ATOM
      1  P2        17.7310   -4.7630  -14.9090 P.3   150  THP150      0.5327
      2  O4P       17.6770   -6.2240  -14.5940 O.2   150  THP150     -0.2224
      3  O5P       16.4710   -4.0210  -14.3380 O.3   150  THP150     -0.1145
      4  O6P       18.9560   -3.9740  -14.3290 O.3   150  THP150     -0.1145
      5  P1        20.9480   -1.1900  -18.8040 P.3   150  THP150      0.5326
      6  O1P       21.9480   -0.6100  -19.7440 O.2   150  THP150     -0.2224
      7  O2P       21.7150   -2.3320  -18.0130 O.3   150  THP150     -0.1145
      8  O3P       20.3340   -0.2610  -17.7310 O.3   150  THP150     -0.1145
      9  O5'       17.7920   -4.7380  -16.5350 O.3   150  THP150     -0.2675
     10  C5'       17.6970   -3.4460  -17.1440 C.3   150  THP150      0.1857
     11  C4'       18.6320   -3.4760  -18.3440 C.3   150  THP150      0.1748
     12  O4'       18.3050   -4.5840  -19.1800 O.3   150  THP150     -0.3340
     13  C3'       18.6290   -2.2100  -19.2170 C.3   150  THP150      0.1600
     14  O3'       19.9270   -1.9580  -19.7770 O.3   150  THP150     -0.2700
     15  C2'       17.6250   -2.6250  -20.3340 C.3   150  THP150      0.0847
     16  C1'       17.8840   -4.1290  -20.4750 C.3   150  THP150      0.2089
     17  N1        16.6040   -4.7500  -20.8940 N.am  150  THP150     -0.1794
     18  C2        16.4260   -5.0220  -22.2240 C.1   150  THP150      0.2844
     19  O2        17.3260   -4.7210  -23.0600 O.2   150  THP150     -0.1918
     20  N3        15.2730   -5.5260  -22.6960 N.2   150  THP150     -0.2455
     21  C4        14.2660   -5.8030  -21.7890 C.1   150  THP150      0.2134
     22  O4        13.1820   -6.1750  -22.2120 O.2   150  THP150     -0.2088
     23  C5        14.4450   -5.5360  -20.4030 C.2   150  THP150      0.0891
     24  C5M       13.3460   -5.8310  -19.3940 C.3   150  THP150      0.0462
     25  C6        15.6170   -5.0280  -19.9230 C.2   150  THP150      0.0877
@<TRIPOS>BOND
     1    19    18    2
     2    20    18    2
     3    20    21    2
     4    18    17   am
     5    22    21    2
     6    21    23    1
     7    17    16    1
     8    17    25    1
     9    16    15    1
    10    16    12    1
    11    23    25    2
    12    23    24    1
    13    15    13    1
    14    14    13    1
    15    14     5    1
    16     6     5    2
    17    13    11    1
    18    12    11    1
    19     5     7    1
    20     5     8    1
    21    11    10    1
    22    10     9    1
    23     9     1    1
    24     1     2    2
    25     1     3    1
    26     1     4    1
