@<TRIPOS>MOLECULE
3ska_053_A_1.pdb
 31 34 0 0 0
SMALL
GASTEIGER

@<TRIPOS>ATOM
      1  C1        23.1410   46.1710   45.5350 C.2   578  053578      0.0848
      2  C2        23.4460   47.0140   46.5570 C.2   578  053578      0.0133
      3  C3        22.5840   48.1390   46.8960 C.2   578  053578      0.0222
      4  C4        21.4610   48.3640   46.1740 C.2   578  053578      0.1111
      5  N5        21.1090   47.5130   45.1490 N.2   578  053578     -0.1747
      6  C6        21.8530   46.4130   44.7760 C.1   578  053578      0.1545
      7  C7        26.9720   43.5420   42.3960 C.ar  578  053578      0.0048
      8  C8        27.5840   44.6090   43.0630 C.ar  578  053578      0.0353
      9  C9        28.7680   45.1400   42.5450 C.ar  578  053578      0.1695
     10  N10       29.3380   44.6730   41.4100 N.ar  578  053578     -0.2259
     11  C11       28.7310   43.6360   40.7830 C.ar  578  053578      0.1002
     12  C12       27.5710   43.0370   41.2310 C.ar  578  053578      0.0184
     13  C13       25.0390   42.7900   48.0340 C.ar  578  053578      0.0715
     14  C14       25.7770   41.8890   47.2540 C.ar  578  053578      0.0053
     15  C15       25.8830   42.0510   45.8840 C.ar  578  053578      0.0171
     16  C16       24.4020   43.8930   47.4550 C.ar  578  053578      0.0054
     17  C17       24.4890   44.0760   46.0650 C.ar  578  053578      0.0181
     18  C18       25.2200   43.1500   45.3090 C.ar  578  053578      0.0603
     19  N19       25.1160   43.5490   44.0090 N.ar  578  053578     -0.3178
     20  C20       24.3710   44.6910   43.8820 C.ar  578  053578      0.1416
     21  C21       23.9640   45.0360   45.1680 C.ar  578  053578      0.0347
     22  C22       24.1120   45.2850   42.5770 C.2   578  053578      0.4033
     23  O23       23.8030   44.6510   41.5900 O.co2 578  053578     -0.2389
     24  C24       25.7100   42.8770   42.8560 C.3   578  053578      0.1331
     25  C25       24.9450   42.5360   49.4940 C.3   578  053578      0.4186
     26  O26       24.0550   46.6290   42.5910 O.co2 578  053578     -0.2389
     27  F27       24.4710   41.3030   49.7530 F     578  053578     -0.1659
     28  F28       26.1380   42.6110   50.1120 F     578  053578     -0.1659
     29  F29       24.1600   43.4100   50.1460 F     578  053578     -0.1659
     30  O30       21.4870   45.6570   43.8610 O.2   578  053578     -0.2219
     31  N31       29.3730   46.1860   43.2360 N.pl3 578  053578     -0.1072
@<TRIPOS>BOND
     1    11    12   ar
     2    11    10   ar
     3    12     7   ar
     4    10     9   ar
     5    23    22   ar
     6     7    24    1
     7     7     8   ar
     8     9     8   ar
     9     9    31    1
    10    22    26   ar
    11    22    20    1
    12    24    19    1
    13    30     6    2
    14    20    19   ar
    15    20    21   ar
    16    19    18   ar
    17     6     5    2
    18     6     1    1
    19     5     4    1
    20    21     1    1
    21    21    17   ar
    22    18    15   ar
    23    18    17   ar
    24     1     2    2
    25    15    14   ar
    26    17    16   ar
    27     4     3    2
    28     2     3    1
    29    14    13   ar
    30    16    13   ar
    31    13    25    1
    32    25    27    1
    33    25    28    1
    34    25    29    1
