@<TRIPOS>MOLECULE
3skc_BR2_A_1.pdb
 32 35 0 0 0
SMALL
GASTEIGER

@<TRIPOS>ATOM
      1  C1        13.6810  -26.7530   -2.0530 C.2   801  BR2801      0.2735
      2  C2        12.8840  -27.9690   -2.3100 C.ar  801  BR2801      0.1115
      3  O3        13.2550  -25.6370   -2.3360 O.2   801  BR2801     -0.2679
      4  C4        12.5520  -28.2050   -3.6130 C.ar  801  BR2801      0.1633
      5  C5        11.8260  -29.3850   -3.9640 C.ar  801  BR2801      0.1186
      6  C6        11.4290  -30.3030   -2.9760 C.ar  801  BR2801      0.0226
      7  C7        11.7470  -30.0580   -1.6400 C.ar  801  BR2801      0.0313
      8  C8        12.4700  -28.9010   -1.2940 C.ar  801  BR2801      0.1468
      9  F9        12.7850  -28.6720   -0.0070 F     801  BR2801     -0.2039
     10  F10       12.9380  -27.3310   -4.5640 F     801  BR2801     -0.2025
     11  N11       11.5660  -29.5860   -5.2370 N.pl3 801  BR2801     -0.0943
     12  N12       14.8970  -27.0190   -1.5250 N.am  801  BR2801     -0.1737
     13  C13       15.9420  -26.1320   -1.1550 C.2   801  BR2801      0.0944
     14  C14       15.7210  -24.7700   -0.8910 C.2   801  BR2801      0.0330
     15  C15       16.8240  -24.0100   -0.5130 C.2   801  BR2801      0.1200
     16  C16       18.0700  -24.6140   -0.4240 C.1   801  BR2801      0.0613
     17  N17       18.3490  -25.9180   -0.6690 N.2   801  BR2801     -0.1894
     18  C18       17.2760  -26.6410   -1.0290 C.2   801  BR2801      0.1262
     19  C19       17.0100  -22.7010   -0.1810 C.2   801  BR2801      0.2541
     20  N20       18.2670  -22.4390    0.1120 N.2   801  BR2801     -0.1007
     21  N21       18.9000  -23.6400   -0.0450 N.2   801  BR2801     -0.0905
     22  O22       16.0720  -21.7360   -0.1330 O.2   801  BR2801     -0.4547
     23  C23       16.5120  -20.4370    0.2500 C.3   801  BR2801      0.2543
     24  S24       10.8180  -30.8810   -5.9920 S.O2  801  BR2801      0.0929
     25  C25       12.2410  -31.8610   -6.3890 C.ar  801  BR2801      0.1270
     26  C26       12.9800  -31.5550   -7.5410 C.ar  801  BR2801      0.0202
     27  C27       14.1260  -32.3000   -7.8560 C.ar  801  BR2801      0.0014
     28  C28       14.5360  -33.3620   -7.0020 C.ar  801  BR2801      0.0001
     29  C29       13.7830  -33.6600   -5.8410 C.ar  801  BR2801      0.0014
     30  C30       12.6340  -32.9000   -5.5390 C.ar  801  BR2801      0.0202
     31  O31        9.9970  -31.5610   -4.9830 O.2   801  BR2801     -0.1483
     32  O32       10.2350  -30.3420   -7.2220 O.2   801  BR2801     -0.1483
@<TRIPOS>BOND
     1    27    26   ar
     2    27    28   ar
     3    26    25   ar
     4    32    24    2
     5    28    29   ar
     6    25    24    1
     7    25    30   ar
     8    24    11    1
     9    24    31    2
    10    29    30   ar
    11    11     5    1
    12    10     4    1
    13     5     4   ar
    14     5     6   ar
    15     4     2   ar
    16     6     7   ar
    17     3     1    2
    18     2     1    1
    19     2     8   ar
    20     1    12   am
    21     7     8   ar
    22    12    13    1
    23     8     9    1
    24    13    18    2
    25    13    14    1
    26    18    17    1
    27    14    15    2
    28    17    16    2
    29    15    16    1
    30    15    19    1
    31    16    21    2
    32    19    22    1
    33    19    20    2
    34    22    23    1
    35    21    20    1
