@<TRIPOS>MOLECULE
3ske_054_A_1.pdb
 35 39 0 0 0
SMALL
GASTEIGER

@<TRIPOS>ATOM
      1  C1        25.0430   43.0600   48.2020 C.ar  578  054578      0.0716
      2  C2        25.7560   42.1080   47.4560 C.ar  578  054578      0.0053
      3  C3        25.8550   42.1990   46.0740 C.ar  578  054578      0.0172
      4  C4        24.3970   44.1490   47.5740 C.ar  578  054578      0.0066
      5  C5        24.4790   44.2550   46.1740 C.ar  578  054578      0.0322
      6  C6        25.2030   43.2830   45.4620 C.ar  578  054578      0.0616
      7  N7        25.1170   43.6210   44.1430 N.ar  578  054578     -0.3167
      8  C8        24.3820   44.7640   43.9420 C.ar  578  054578      0.1559
      9  C9        23.9700   45.1650   45.2100 C.ar  578  054578      0.0941
     10  C10       24.1360   45.3220   42.6090 C.2   578  054578      0.4045
     11  O11       24.0140   44.6840   41.5810 O.co2 578  054578     -0.2389
     12  O12       23.8830   46.6450   42.6070 O.co2 578  054578     -0.2389
     13  C13       25.7230   42.8710   43.0650 C.3   578  054578      0.1331
     14  C14       26.9830   43.4960   42.5530 C.ar  578  054578      0.0048
     15  C15       24.9910   42.8640   49.6830 C.3   578  054578      0.4186
     16  C16       27.5400   42.8900   41.4280 C.ar  578  054578      0.0184
     17  C17       28.7030   43.4120   40.9010 C.ar  578  054578      0.1002
     18  N18       29.3590   44.4710   41.4310 N.ar  578  054578     -0.2259
     19  C19       28.8350   45.0360   42.5490 C.ar  578  054578      0.1695
     20  C20       27.6510   44.5820   43.1370 C.ar  578  054578      0.0353
     21  N21       23.1910   46.3090   45.4330 N.am  578  054578     -0.1487
     22  C22       21.8730   46.2930   44.8800 C.1   578  054578      0.2785
     23  N23       21.1600   47.4710   45.0010 N.2   578  054578     -0.3241
     24  C24       23.8400   47.3680   46.0900 C.2   578  054578      0.2692
     25  O25       24.9800   47.3180   46.5450 O.2   578  054578     -0.2684
     26  O26       21.3720   45.2880   44.3400 O.2   578  054578     -0.1922
     27  C27       23.3810   49.7890   46.6620 C.2   578  054578      0.0381
     28  C28       23.0220   48.5760   46.1250 C.2   578  054578      0.0882
     29  C29       21.7130   48.6050   45.5870 C.2   578  054578      0.1392
     30  C30       21.1090   49.8300   45.7190 C.3   578  054578      0.1221
     31  S31       22.1390   50.9640   46.5040 S.3   578  054578     -0.1053
     32  F32       24.4840   41.6520   50.0050 F     578  054578     -0.1659
     33  F33       26.2170   42.9170   50.2440 F     578  054578     -0.1659
     34  F34       24.2690   43.7760   50.3610 F     578  054578     -0.1659
     35  N35       29.5120   46.1120   43.1280 N.pl3 578  054578     -0.1072
@<TRIPOS>BOND
     1    17    16   ar
     2    17    18   ar
     3    16    14   ar
     4    18    19   ar
     5    11    10   ar
     6    19    35    1
     7    19    20   ar
     8    14    13    1
     9    14    20   ar
    10    12    10   ar
    11    10     8    1
    12    13     7    1
    13     8     7   ar
    14     8     9   ar
    15     7     6   ar
    16    26    22    2
    17    22    23    2
    18    22    21   am
    19    23    29    2
    20     9    21    1
    21     9     5   ar
    22    21    24   am
    23     6     3   ar
    24     6     5   ar
    25    29    30    1
    26    29    28    1
    27    30    31    1
    28     3     2   ar
    29    24    28    1
    30    24    25    2
    31    28    27    2
    32     5     4   ar
    33    31    27    1
    34     2     1   ar
    35     4     1   ar
    36     1    15    1
    37    15    32    1
    38    15    33    1
    39    15    34    1
