@<TRIPOS>MOLECULE
3skf_PB7_A_1.pdb
 47 50 0 0 0
SMALL
GASTEIGER

@<TRIPOS>ATOM
      1  C1        87.3800   59.8290   81.9580 C.ar  394  PB7394     -0.0000
      2  C2        78.9510   66.5100   82.4900 C.ar  394  PB7394     -0.0000
      3  C3        86.4010   58.8870   82.6460 C.ar  394  PB7394     -0.0003
      4  C4        86.8570   60.8660   80.9700 C.ar  394  PB7394     -0.0003
      5  C5        79.4550   65.8650   83.7800 C.ar  394  PB7394     -0.0003
      6  C6        77.7220   65.9360   81.7800 C.ar  394  PB7394     -0.0003
      7  C7        80.2990   59.5200   90.4450 C.ar  394  PB7394      0.0028
      8  C8        84.9100   58.9900   82.3430 C.ar  394  PB7394     -0.0043
      9  C9        85.3670   60.9740   80.6650 C.ar  394  PB7394     -0.0043
     10  C10       78.7240   64.6460   84.3550 C.ar  394  PB7394     -0.0042
     11  C11       77.0020   64.7190   82.3560 C.ar  394  PB7394     -0.0042
     12  C12       80.0870   58.7180   89.1580 C.ar  394  PB7394     -0.0027
     13  C13       79.1070   60.0930   91.2210 C.ar  394  PB7394      0.0369
     14  C14       77.4740   59.0630   89.4300 C.ar  394  PB7394      0.0340
     15  C15       84.3940   60.0340   81.3610 C.ar  394  PB7394     -0.0221
     16  C16       77.4940   64.0750   83.6460 C.ar  394  PB7394     -0.0204
     17  C17       78.6640   58.4910   88.6540 C.ar  394  PB7394     -0.0018
     18  C18       77.6830   59.8660   90.7090 C.ar  394  PB7394      0.1385
     19  C19       80.0770   61.7620   79.7970 C.2   394  PB7394      0.2438
     20  C20       81.9500   62.4300   77.4850 C.2   394  PB7394      0.2422
     21  C21       80.0280   61.1450   83.5080 C.2   394  PB7394      0.2595
     22  C22       80.9250   63.9960   80.1050 C.3   394  PB7394      0.0504
     23  C23       80.8980   63.3490   81.4970 C.3   394  PB7394      0.0961
     24  C24       80.0500   63.1430   79.1660 C.3   394  PB7394      0.1484
     25  C25       82.3170   62.3960   76.0000 C.3   394  PB7394      0.0964
     26  C26       76.1640   62.8910   78.9960 C.3   394  PB7394      0.0001
     27  C27       78.4100   64.7780   78.1390 C.3   394  PB7394      0.0022
     28  C28       76.2890   61.7870   91.3720 C.3   394  PB7394      0.2525
     29  C29       82.9100   60.1200   81.0680 C.3   394  PB7394      0.0286
     30  C30       76.7680   62.8540   84.2090 C.3   394  PB7394      0.0506
     31  C31       78.4210   57.6980   87.3690 C.3   394  PB7394      0.1152
     32  C32       77.6060   62.5190   78.6730 C.3   394  PB7394      0.0021
     33  C33       82.1670   60.3680   82.3690 C.3   394  PB7394      0.0339
     34  C34       78.0640   59.7070   86.0340 C.3   394  PB7394      0.1237
     35  C35       80.7170   60.8040   82.1810 C.3   394  PB7394      0.1538
     36  C36       78.5890   63.6030   79.0980 C.3   394  PB7394      0.0269
     37  C37       77.7190   61.7150   84.5880 C.3   394  PB7394      0.1314
     38  C38       77.0530   60.4790   85.1990 C.3   394  PB7394      0.1894
     39  N39       80.5660   61.9250   81.1950 N.am  394  PB7394     -0.2715
     40  N40       80.6190   63.0070   77.7910 N.am  394  PB7394     -0.1999
     41  N41       78.5620   61.3640   83.3990 N.am  394  PB7394     -0.2028
     42  N42       77.4800   58.4090   86.4520 N.3   394  PB7394     -0.2105
     43  O43       79.6530   60.5770   79.1310 O.2   394  PB7394     -0.2731
     44  O44       82.8600   61.9260   78.4540 O.2   394  PB7394     -0.2733
     45  O45       80.7250   61.2310   84.7440 O.2   394  PB7394     -0.2716
     46  O46       75.9530   60.8460   86.0320 O.3   394  PB7394     -0.2197
     47  O47       76.5420   60.3790   91.4100 O.3   394  PB7394     -0.4714
@<TRIPOS>BOND
     1    25    20    1
     2    20    40   am
     3    20    44    2
     4    40    24    1
     5    27    36    1
     6    32    26    1
     7    32    36    1
     8    36    24    1
     9    43    19    2
    10    24    19    1
    11    24    22    1
    12    19    39   am
    13    22    23    1
    14     9     4   ar
    15     9    15   ar
    16     4     1   ar
    17    29    15    1
    18    29    33    1
    19    39    23    1
    20    39    35    1
    21    15     8   ar
    22     6    11   ar
    23     6     2   ar
    24     1     3   ar
    25    35    33    1
    26    35    21    1
    27     8     3   ar
    28    11    16   ar
    29     2     5   ar
    30    41    21   am
    31    41    37    1
    32    21    45    2
    33    16    30    1
    34    16    10   ar
    35     5    10   ar
    36    30    37    1
    37    37    38    1
    38    38    46    1
    39    38    34    1
    40    34    42    1
    41    42    31    1
    42    31    17    1
    43    17    12   ar
    44    17    14   ar
    45    12     7   ar
    46    14    18   ar
    47     7    13   ar
    48    18    13   ar
    49    18    47    1
    50    28    47    1
