@<TRIPOS>MOLECULE
3skg_PB8_A_1.pdb
 48 52 0 0 0
SMALL
GASTEIGER

@<TRIPOS>ATOM
      1  C1        -1.5440   16.6310   23.1560 C.ar  394  PB8394     -0.0000
      2  C2        -9.8050   18.5760   30.4490 C.ar  394  PB8394     -0.0003
      3  C3        -9.4670   20.0100   30.5480 C.ar  394  PB8394     -0.0003
      4  C4        -2.2240   17.7460   23.7180 C.ar  394  PB8394     -0.0003
      5  C5        -0.8310   15.6690   23.9750 C.ar  394  PB8394     -0.0003
      6  C6        -8.9530   17.6270   30.8610 C.ar  394  PB8394     -0.0045
      7  C7        -8.2730   20.2330   31.1110 C.ar  394  PB8394     -0.0032
      8  C8        -2.1540   17.8640   25.1370 C.ar  394  PB8394     -0.0043
      9  C9        -0.7910   15.8030   25.3690 C.ar  394  PB8394     -0.0043
     10  C10       -1.9510   11.8190   33.1080 C.ar  394  PB8394      0.0256
     11  C11       -3.8930   12.0070   31.8480 C.ar  394  PB8394      0.0256
     12  C12       -2.5440   10.0750   31.4990 C.ar  394  PB8394      0.0592
     13  C13       -7.6380   17.9110   31.4680 C.ar  394  PB8394     -0.0233
     14  C14       -7.3060   19.1570   31.5750 C.ar  394  PB8394     -0.0087
     15  C15       -1.4540   16.9060   25.9280 C.ar  394  PB8394     -0.0221
     16  C16       -3.0660   12.5370   32.8080 C.ar  394  PB8394     -0.0159
     17  C17       -1.7010   10.6130   32.4410 C.ar  394  PB8394      0.1421
     18  C18       -3.6440   10.8100   31.2060 C.ar  394  PB8394      0.1421
     19  C19        0.2030   15.2720   30.0840 C.2   394  PB8394      0.2514
     20  C20        2.6100   14.4490   28.4230 C.2   394  PB8394      0.2425
     21  C21       -3.1840   15.3310   30.3790 C.2   394  PB8394      0.2598
     22  C22       -6.8120   16.7550   31.9400 C.3   394  PB8394      0.0461
     23  C23       -5.9590   19.5720   32.1480 C.3   394  PB8394      0.1147
     24  C24        0.3720   12.8260   29.6650 C.2   394  PB8394      0.0180
     25  C25       -0.9850   13.4510   29.2990 C.2   394  PB8394      0.0655
     26  C26       -5.3950   17.0640   32.4840 C.3   394  PB8394      0.1095
     27  C27        1.0500   14.0570   30.3360 C.3   394  PB8394      0.1667
     28  C28        1.6310   14.4990   27.2780 C.3   394  PB8394      0.0964
     29  C29        3.2930   12.5860   32.2210 C.3   394  PB8394      0.0001
     30  C30        1.4590   12.1110   33.4640 C.3   394  PB8394      0.0001
     31  C31       -1.4190   17.0960   27.4410 C.3   394  PB8394      0.0286
     32  C32       -3.4220   13.8330   33.5330 C.3   394  PB8394      0.0508
     33  C33        1.2410   13.8370   31.8500 C.3   394  PB8394      0.0332
     34  C34       -2.3940   16.0860   28.0160 C.3   394  PB8394      0.0343
     35  C35       -2.0320   15.8200   29.4730 C.3   394  PB8394      0.1579
     36  C36       -4.6940   16.0010   33.4080 C.3   394  PB8394      0.1882
     37  C37        1.8010   12.4530   32.0540 C.3   394  PB8394      0.0025
     38  C38       -4.0740   14.8630   32.6060 C.3   394  PB8394      0.1313
     39  N39       -5.2610   18.5100   32.9990 N.3   394  PB8394     -0.2117
     40  N40       -0.9340   14.9170   29.5370 N.am  394  PB8394     -0.2491
     41  N41        2.3120   14.2750   29.7040 N.am  394  PB8394     -0.1957
     42  N42       -3.0240   15.3180   31.7210 N.am  394  PB8394     -0.2028
     43  O43        0.5080   16.3810   30.4150 O.2   394  PB8394     -0.2724
     44  O44        3.7800   14.5910   28.1590 O.2   394  PB8394     -0.2733
     45  O45       -4.2730   15.0100   29.9070 O.2   394  PB8394     -0.2715
     46  O46       -5.4720   15.4580   34.4830 O.3   394  PB8394     -0.2198
     47  F47       -0.5770    9.9130   32.7080 F     394  PB8394     -0.2041
     48  F48       -4.4890   10.3920   30.2770 F     394  PB8394     -0.2041
@<TRIPOS>BOND
     1     1     4   ar
     2     1     5   ar
     3     4     8   ar
     4     5     9   ar
     5     8    15   ar
     6     9    15   ar
     7    15    31    1
     8    28    20    1
     9    31    34    1
    10    34    35    1
    11    44    20    2
    12    20    41   am
    13    25    40    1
    14    25    24    2
    15    35    40    1
    16    35    21    1
    17    40    19   am
    18    24    27    1
    19    41    27    1
    20    45    21    2
    21    19    27    1
    22    19    43    2
    23    48    18    1
    24    27    33    1
    25    21    42   am
    26     2     3   ar
    27     2     6   ar
    28     3     7   ar
    29     6    13   ar
    30     7    14   ar
    31    18    12   ar
    32    18    11   ar
    33    13    14   ar
    34    13    22    1
    35    12    17   ar
    36    14    23    1
    37    42    38    1
    38    11    16   ar
    39    33    37    1
    40    22    26    1
    41    37    29    1
    42    37    30    1
    43    23    39    1
    44    17    47    1
    45    17    10   ar
    46    26    39    1
    47    26    36    1
    48    38    36    1
    49    38    32    1
    50    16    10   ar
    51    16    32    1
    52    36    46    1
