@<TRIPOS>MOLECULE
3skh_058_A_1.pdb
 27 30 0 0 0
SMALL
GASTEIGER

@<TRIPOS>ATOM
      1  C1        25.3360   42.9830   49.1900 C.ar  577  058577      0.0578
      2  F1        21.6070   45.8780   45.1850 F     577  058577     -0.2042
      3  N1        25.2380   43.7040   45.0960 N.ar  577  058577     -0.3178
      4  O1        24.5230   46.9150   43.8280 O.co2 577  058577     -0.2389
      5 CL1        25.3050   42.8100   50.9080 Cl    577  058577     -0.0822
      6  C2        25.9900   42.0370   48.4000 C.ar  577  058577      0.0129
      7  O2        23.7210   45.1040   42.7440 O.co2 577  058577     -0.2389
      8  C3        26.0190   42.1820   47.0050 C.ar  577  058577      0.0181
      9  C4        24.6860   44.0870   48.6070 C.ar  577  058577      0.0129
     10  C5        24.5070   44.8850   45.0050 C.ar  577  058577      0.1410
     11  C6        24.1630   45.2300   46.3190 C.ar  577  058577      0.0259
     12  C7        24.7030   44.2490   47.1970 C.ar  577  058577      0.0183
     13  C8        25.3690   43.3000   46.4180 C.ar  577  058577      0.0604
     14  C9        25.8040   43.0000   43.9530 C.3   577  058577      0.1329
     15  C10       24.1850   45.5980   43.7660 C.2   577  058577      0.4033
     16  C11       23.3800   46.4020   46.7080 C.ar  577  058577      0.0291
     17  C12       23.8750   47.2680   47.7010 C.ar  577  058577      0.0023
     18  C13       23.1280   48.3880   48.0920 C.ar  577  058577      0.0001
     19  C14       21.8830   48.6560   47.5000 C.ar  577  058577      0.0023
     20  C15       21.3830   47.8030   46.5180 C.ar  577  058577      0.0296
     21  C16       22.1230   46.6840   46.1280 C.ar  577  058577      0.1401
     22  C17       27.1050   43.6310   43.5300 C.ar  577  058577      0.0004
     23  C18       27.8010   43.1360   42.4150 C.ar  577  058577     -0.0024
     24  C19       29.0100   43.7240   42.0150 C.ar  577  058577     -0.0003
     25  C20       29.5430   44.8050   42.7300 C.ar  577  058577     -0.0000
     26  C21       28.8670   45.3050   43.8470 C.ar  577  058577     -0.0003
     27  C22       27.6560   44.7240   44.2410 C.ar  577  058577     -0.0024
@<TRIPOS>BOND
     1    24    23   ar
     2    24    25   ar
     3    23    22   ar
     4    25    26   ar
     5     7    15   ar
     6    22    14    1
     7    22    27   ar
     8    15     4   ar
     9    15    10    1
    10    26    27   ar
    11    14     3    1
    12    10     3   ar
    13    10    11   ar
    14     3    13   ar
    15     2    21    1
    16    21    20   ar
    17    21    16   ar
    18    11    16    1
    19    11    12   ar
    20    13     8   ar
    21    13    12   ar
    22    20    19   ar
    23    16    17   ar
    24     8     6   ar
    25    12     9   ar
    26    19    18   ar
    27    17    18   ar
    28     6     1   ar
    29     9     1   ar
    30     1     5    1
