@<TRIPOS>MOLECULE
3skk_4U7_A_1.pdb
 16 15 0 0 0
SMALL
GASTEIGER

@<TRIPOS>ATOM
      1  B1        24.3160  -16.2090   -5.4080 B     551  4U7551      0.0000
      2  C1        25.3160  -10.2220   -5.3570 C.3   551  4U7551      0.0000
      3  F1        26.4950   -8.4390   -6.3400 F     551  4U7551      0.0000
      4  N1        25.6390   -9.6780   -4.0730 N.3   551  4U7551      0.0000
      5  O1        23.6070   -9.6880   -6.9480 O.co2 551  4U7551      0.0000
      6  C2        23.9910   -9.6760   -5.7470 C.2   551  4U7551      0.0000
      7  F2        27.4950  -10.3830   -6.1430 F     551  4U7551      0.0000
      8  O2        25.0700  -16.2500   -4.2550 O.3   551  4U7551      0.0000
      9  C3        25.2880  -11.7140   -5.2940 C.2   551  4U7551      0.0000
     10  O3        23.1270  -16.8710   -5.1610 O.3   551  4U7551      0.0000
     11  C4        25.1780  -12.5310   -6.5410 C.2   551  4U7551      0.0000
     12  O4        24.9490  -16.9380   -6.3970 O.3   551  4U7551      0.0000
     13  C5        25.2670  -14.0190   -6.3840 C.2   551  4U7551      0.0000
     14  O5        23.2720   -9.1770   -4.8480 O.co2 551  4U7551      0.0000
     15  C6        24.1050  -14.7900   -5.8170 C.2   551  4U7551      0.0000
     16  C9        26.3400   -9.7630   -6.3330 C.3   551  4U7551      0.0000
@<TRIPOS>BOND
     1     5     6   ar
     2    11    13    1
     3    11     9    2
     4    12     1    1
     5    13    15    2
     6     3    16    1
     7    16     7    1
     8    16     2    1
     9    15     1    1
    10     6     2    1
    11     6    14   ar
    12     1    10    1
    13     1     8    1
    14     2     9    1
    15     2     4    1
