@<TRIPOS>MOLECULE
3sl0_FB5_A_1.pdb
 15 14 0 0 0
SMALL
GASTEIGER

@<TRIPOS>ATOM
      1  B1        41.8240  -15.1340   23.7720 B     414  FB5414      0.0000
      2  F1        34.6200  -17.6850   26.4660 F     414  FB5414      0.0000
      3  N1        35.6040  -17.4330   22.9480 N.3   414  FB5414      0.0000
      4  O1        42.1290  -15.2100   22.4360 O.3   414  FB5414      0.0000
      5  C2        35.1620  -15.9690   24.5850 C.2   414  FB5414      0.0000
      6  F2        34.8060  -19.4450   25.1140 F     414  FB5414      0.0000
      7  O2        42.8030  -15.1530   24.7270 O.3   414  FB5414      0.0000
      8  C3        35.7480  -17.3960   24.3990 C.3   414  FB5414      0.0000
      9  O3        35.3050  -15.3590   25.6370 O.co2 414  FB5414      0.0000
     10  C4        39.5310  -16.2560   24.4210 C.3   414  FB5414      0.0000
     11  O4        34.4630  -15.3830   23.5470 O.co2 414  FB5414      0.0000
     12  C5        40.3070  -14.9810   24.2320 C.3   414  FB5414      0.0000
     13  C6        37.1500  -17.1320   24.9780 C.3   414  FB5414      0.0000
     14  C7        34.6980  -18.1200   25.2120 C.3   414  FB5414      0.0000
     15  C8        38.0330  -16.1840   24.1860 C.3   414  FB5414      0.0000
@<TRIPOS>BOND
     1     4     1    1
     2     3     8    1
     3    11     5   ar
     4     1    12    1
     5     1     7    1
     6    15    10    1
     7    15    13    1
     8    12    10    1
     9     8     5    1
    10     8    13    1
    11     8    14    1
    12     5     9   ar
    13     6    14    1
    14    14     2    1
