@<TRIPOS>MOLECULE
3sl1_FB6_A_1.pdb
 13 12 0 0 0
SMALL
GASTEIGER

@<TRIPOS>ATOM
      1  B1        41.9280  -15.2230   23.6890 B     414  FB6414      0.0000
      2  C1        35.2820  -16.1330   24.3520 C.2   414  FB6414      0.0000
      3  N1        35.8720  -17.7880   22.7720 N.3   414  FB6414      0.0000
      4  O1        34.7300  -15.5970   23.3990 O.co2 414  FB6414      0.0000
      5  C2        35.9450  -17.5050   24.1900 C.3   414  FB6414      0.0000
      6  O2        42.8610  -15.3310   24.6820 O.3   414  FB6414      0.0000
      7  C3        39.6340  -16.2730   24.3710 C.2   414  FB6414      0.0000
      8  O3        42.2900  -15.3360   22.3710 O.3   414  FB6414      0.0000
      9  C4        40.3960  -15.0240   24.0920 C.3   414  FB6414      0.0000
     10  O4        35.2510  -15.5350   25.5890 O.co2 414  FB6414      0.0000
     11  C5        37.3450  -17.3140   24.6960 C.3   414  FB6414      0.0000
     12  C6        35.1270  -18.4310   25.0450 C.3   414  FB6414      0.0000
     13  C7        38.1880  -16.2870   24.0240 C.2   414  FB6414      0.0000
@<TRIPOS>BOND
     1     8     1    1
     2     3     5    1
     3     4     2   ar
     4     1     9    1
     5     1     6    1
     6    13     7    2
     7    13    11    1
     8     9     7    1
     9     5     2    1
    10     5    11    1
    11     5    12    1
    12     2    10   ar
