@<TRIPOS>MOLECULE
3sl2_ATP_A_1.pdb
 31 33 0 0 0
SMALL
GASTEIGER

@<TRIPOS>ATOM
      1  PG       -15.0420   20.0650   -9.2960 P.3   703  ATP703      0.5373
      2  O1G      -15.8960   19.2350   -8.2790 O.3   703  ATP703     -0.1143
      3  O2G      -14.7170   19.2950  -10.6250 O.2   703  ATP703     -0.2221
      4  O3G      -15.5830   21.3910   -9.5810 O.3   703  ATP703     -0.1143
      5  PB       -13.0870   19.6410   -7.2230 P.3   703  ATP703      0.2277
      6  O1B      -13.6360   18.2660   -7.0410 O.2   703  ATP703     -0.5168
      7  O2B      -11.6200   19.9110   -6.9440 O.3   703  ATP703     -0.4368
      8  O3B      -13.6360   20.1750   -8.6010 O.3   703  ATP703     -0.2258
      9  PA       -14.9450   20.4910   -5.0630 P.3   703  ATP703      0.2189
     10  O1A      -15.8270   19.3520   -5.4320 O.2   703  ATP703     -0.5170
     11  O2A      -15.6010   21.8190   -4.8920 O.3   703  ATP703     -0.4371
     12  O3A      -13.8950   20.7660   -6.3360 O.3   703  ATP703     -0.2700
     13  O5'      -13.9620   20.1530   -3.9120 O.3   703  ATP703     -0.3112
     14  C5'      -12.9850   21.1070   -3.4380 C.3   703  ATP703      0.1813
     15  C4'      -11.7280   20.4750   -2.8930 C.3   703  ATP703      0.1821
     16  O4'      -12.0360   19.8630   -1.6210 O.3   703  ATP703     -0.3135
     17  C3'      -11.1860   19.3770   -3.7920 C.3   703  ATP703      0.2184
     18  O3'      -10.3890   19.9380   -4.8700 O.3   703  ATP703     -0.2174
     19  C2'      -10.4470   18.5200   -2.7830 C.3   703  ATP703      0.2570
     20  O2'       -9.1740   19.0690   -2.4240 O.3   703  ATP703     -0.2130
     21  C1'      -11.2830   18.6560   -1.5110 C.3   703  ATP703      0.3186
     22  N9       -12.2520   17.5570   -1.2930 N.pl3 703  ATP703     -0.1439
     23  C8       -13.5850   17.5860   -1.5800 C.3   703  ATP703      0.3377
     24  N7       -14.1900   16.4300   -1.2190 N.2   703  ATP703     -0.2095
     25  C5       -13.2260   15.6460   -0.6930 C.2   703  ATP703      0.2526
     26  C6       -13.1740   14.2950   -0.1080 C.2   703  ATP703      0.4393
     27  N6       -14.3080   13.5590   -0.0450 N.pl3 703  ATP703      0.2180
     28  N1       -11.9580   13.8340    0.3230 N.2   703  ATP703      0.0021
     29  C2       -10.8430   14.5850    0.2420 C.3   703  ATP703      0.5254
     30  N3       -10.8150   15.8280   -0.2750 N.2   703  ATP703     -0.0055
     31  C4       -11.9600   16.3910   -0.7470 C.2   703  ATP703      0.3518
@<TRIPOS>BOND
     1     3     1    2
     2     4     1    1
     3     1     8    1
     4     1     2    1
     5     8     5    1
     6     5     6    2
     7     5     7    1
     8     5    12    1
     9    12     9    1
    10    10     9    2
    11     9    11    1
    12     9    13    1
    13    18    17    1
    14    13    14    1
    15    17    15    1
    16    17    19    1
    17    14    15    1
    18    15    16    1
    19    19    20    1
    20    19    21    1
    21    16    21    1
    22    23    22    1
    23    23    24    1
    24    21    22    1
    25    22    31    1
    26    24    25    2
    27    31    25    1
    28    31    30    2
    29    25    26    1
    30    30    29    1
    31    26    27    1
    32    26    28    2
    33    29    28    1
