@<TRIPOS>MOLECULE
3sl4_JN4_A_1.pdb
 29 31 0 0 0
SMALL
GASTEIGER

@<TRIPOS>ATOM
      1  C1       -21.7120   10.4640   27.7740 C.3    23  JN423       0.1262
      2  N2       -21.7410    9.7030   26.5330 N.am   23  JN423      -0.2359
      3  C3       -21.1610    8.3330   26.5270 C.2    23  JN423       0.0758
      4  C4       -21.4000    7.4820   27.7960 C.ar   23  JN423       0.0456
      5  C5       -21.7940    8.1610   29.0070 C.ar   23  JN423       0.0127
      6  C6       -21.9350    9.6800   29.0650 C.2    23  JN423      -0.0035
      7  C7       -22.6440   10.1420   25.5060 C.2    23  JN423       0.3273
      8  O8       -22.7430    9.5140   24.4640 O.2    23  JN423      -0.2504
      9  N9       -23.2570   11.4360   25.6380 N.am   23  JN423      -0.1882
     10  C10      -24.0290   12.0100   24.5690 C.3    23  JN423       0.1169
     11  C11      -24.1120   13.4980   24.4980 C.3    23  JN423       0.0253
     12  S12      -21.3460    5.7780   28.1250 S.2    23  JN423      -0.0689
     13  C13      -21.7480    5.6130   29.6500 C.ar   23  JN423       0.1090
     14  C14      -22.0300    7.0110   30.2250 C.ar   23  JN423       0.0973
     15  C15      -22.4590    7.3070   31.6300 C.2    23  JN423       0.3430
     16  O16      -22.8000    8.4910   31.9310 O.3    23  JN423      -0.4454
     17  C17      -23.1150    8.7870   33.2470 C.3    23  JN423       0.2089
     18  C18      -21.9690    8.9500   34.1920 C.3    23  JN423       0.0513
     19  O19      -22.5810    6.3720   32.4740 O.2    23  JN423      -0.2448
     20  N20      -21.9060    4.4320   30.4830 N.am   23  JN423      -0.1721
     21  C21      -21.8150    3.0730   30.0170 C.2    23  JN423       0.2505
     22  C22      -22.1060    1.9560   30.9860 C.3    23  JN423       0.1135
     23  C23      -22.4100    2.3650   32.4140 C.ar   23  JN423      -0.0130
     24  C24      -23.6540    2.8230   32.7630 C.ar   23  JN423      -0.0038
     25  C25      -21.3640    2.2930   33.4340 C.ar   23  JN423      -0.0038
     26  C26      -21.6250    2.6700   34.7640 C.ar   23  JN423      -0.0003
     27  C27      -22.9100    3.1450   35.1180 C.ar   23  JN423      -0.0000
     28  C28      -23.9250    3.2200   34.1310 C.ar   23  JN423      -0.0003
     29  O29      -21.3700    2.8560   28.9110 O.2    23  JN423      -0.2726
@<TRIPOS>BOND
     1     8     7    2
     2    11    10    1
     3    10     9    1
     4     7     9   am
     5     7     2   am
     6     3     2    1
     7     3     4    2
     8     2     1    1
     9     1     6    1
    10     4    12   ar
    11     4     5   ar
    12    12    13   ar
    13    29    21    2
    14     5     6    2
    15     5    14   ar
    16    13    14   ar
    17    13    20    1
    18    21    20   am
    19    21    22    1
    20    14    15    1
    21    22    23    1
    22    15    16    1
    23    15    19    2
    24    16    17    1
    25    23    24   ar
    26    23    25   ar
    27    24    28   ar
    28    17    18    1
    29    25    26   ar
    30    28    27   ar
    31    26    27   ar
