@<TRIPOS>MOLECULE
3sl5_J25_A_1.pdb
 28 30 0 0 0
SMALL
GASTEIGER

@<TRIPOS>ATOM
      1  C1       -21.7130    7.3930   28.9430 C.ar    1  J251       -0.0088
      2  C2       -21.6020    6.4030   30.0660 C.ar    1  J251        0.0934
      3  C3       -21.2550    5.0320   29.5550 C.ar    1  J251        0.1084
      4  S4       -21.0610    5.0390   27.8290 S.2     1  J251       -0.0732
      5  C5       -21.4320    6.7340   27.6580 C.ar    1  J251        0.0249
      6  C6       -21.4540    7.3890   26.3130 C.3     1  J251        0.1296
      7  N7       -22.2630    8.6210   26.3670 N.am    1  J251       -0.2411
      8  C8       -22.8220    9.1560   27.6290 C.3     1  J251        0.1018
      9  C9       -22.0420    8.8560   28.9190 C.3     1  J251        0.0485
     10  N10      -21.0610    3.9390   30.3470 N.am    1  J251       -0.1721
     11  C11      -21.2820    2.6720   29.9760 C.2     1  J251        0.2510
     12  C12      -22.4680    1.9940   30.6370 C.3     1  J251        0.1200
     13  C13      -22.6130    2.4530   32.0750 C.ar    1  J251        0.0165
     14  C14      -23.6850    2.8930   32.8430 C.ar    1  J251        0.0032
     15  C15      -23.3130    3.2210   34.1570 C.ar    1  J251        0.0072
     16  C16      -21.9680    3.0670   34.4940 C.ar    1  J251        0.0351
     17  S17      -21.1930    2.4810   33.0600 S.2     1  J251       -0.0903
     18  O18      -20.5770    2.0700   29.1710 O.2     1  J251       -0.2726
     19  C19      -21.8500    6.7800   31.4840 C.2     1  J251        0.3427
     20  O20      -21.8660    8.1890   31.8160 O.3     1  J251       -0.4454
     21  C21      -22.6760    8.6550   32.8900 C.3     1  J251        0.2089
     22  C22      -22.0450    9.9180   33.4340 C.3     1  J251        0.0513
     23  O23      -22.0700    5.9470   32.3560 O.2     1  J251       -0.2448
     24  C24      -22.5640    9.2640   25.2320 C.2     1  J251        0.4051
     25  O25      -21.5500    9.6160   24.2240 O.3     1  J251       -0.4345
     26  C26      -20.1410    9.4300   24.4230 C.3     1  J251        0.2102
     27  C27      -19.4440    9.1770   23.1000 C.3     1  J251        0.0513
     28  O28      -23.7300    9.5640   24.9990 O.2     1  J251       -0.2262
@<TRIPOS>BOND
     1    27    26    1
     2    25    26    1
     3    25    24    1
     4    28    24    2
     5    24     7   am
     6     6     7    1
     7     6     5    1
     8     7     8    1
     9     8     9    1
    10     5     4   ar
    11     5     1   ar
    12     4     3   ar
    13     9     1    1
    14     1     2   ar
    15    18    11    2
    16     3     2   ar
    17     3    10    1
    18    11    10   am
    19    11    12    1
    20     2    19    1
    21    12    13    1
    22    19    20    1
    23    19    23    2
    24    20    21    1
    25    13    14   ar
    26    13    17   ar
    27    14    15   ar
    28    21    22    1
    29    17    16   ar
    30    15    16   ar
