@<TRIPOS>MOLECULE
3sl6_JN8_A_1.pdb
 31 34 0 0 0
SMALL
GASTEIGER

@<TRIPOS>ATOM
      1  C1       -21.8460    7.6440   29.2400 C.ar  440  JN8440     -0.0088
      2  C2       -22.1420    6.5850   30.3060 C.ar  440  JN8440      0.0934
      3  C3       -21.9640    5.2400   29.7640 C.ar  440  JN8440      0.1084
      4  S4       -21.4690    5.2920   28.0990 S.2   440  JN8440     -0.0732
      5  C5       -21.4770    7.0350   28.0290 C.ar  440  JN8440      0.0248
      6  C6       -21.1770    7.7550   26.7610 C.3   440  JN8440      0.1279
      7  N7       -21.5570    9.1220   26.9380 N.am  440  JN8440     -0.2579
      8  C8       -21.0790    9.7080   28.1640 C.3   440  JN8440      0.1000
      9  C9       -21.8640    9.1480   29.3210 C.3   440  JN8440      0.0484
     10  N10      -22.1910    4.0680   30.5540 N.am  440  JN8440     -0.1721
     11  C11      -21.8990    2.7260   30.1100 C.2   440  JN8440      0.2510
     12  C12      -22.2590    1.5800   31.0130 C.3   440  JN8440      0.1200
     13  C13      -22.8300    2.0980   32.3000 C.ar  440  JN8440      0.0165
     14  C14      -24.1360    2.6120   32.4300 C.ar  440  JN8440      0.0032
     15  C15      -24.4260    3.0230   33.7430 C.ar  440  JN8440      0.0072
     16  C16      -23.3440    2.8230   34.6390 C.ar  440  JN8440      0.0351
     17  S17      -21.9940    2.1380   33.8400 S.2   440  JN8440     -0.0903
     18  O18      -21.5970    2.5000   28.9490 O.2   440  JN8440     -0.2726
     19  C19      -22.5390    6.9310   31.7210 C.2   440  JN8440      0.3426
     20  O20      -22.0580    8.0160   32.1990 O.3   440  JN8440     -0.4492
     21  C24      -22.8460    9.6390   26.4680 C.2   440  JN8440      0.3235
     22  C27      -22.6040    8.7640   33.2610 C.3   440  JN8440      0.1692
     23  C28      -23.9860    9.2580   33.0630 C.3   440  JN8440      0.0436
     24  N28      -23.7080    8.9160   25.5450 N.am  440  JN8440     -0.1884
     25  C29      -23.8320   10.6150   32.4310 C.3   440  JN8440      0.0038
     26  O29      -23.2410   10.6960   26.9520 O.2   440  JN8440     -0.2508
     27  C30      -22.4250   11.0570   32.7330 C.3   440  JN8440      0.0038
     28  C31      -21.8230    9.9880   33.6010 C.3   440  JN8440      0.0436
     29  O31      -23.0130    6.0390   32.4840 O.2   440  JN8440     -0.2448
     30  C32      -25.4390   10.7270   25.5500 C.3   440  JN8440      0.0253
     31  C33      -24.8390    9.5340   24.8450 C.3   440  JN8440      0.1168
@<TRIPOS>BOND
     1    31    24    1
     2    31    30    1
     3    24    21   am
     4    21     7   am
     5    21    26    2
     6     6     7    1
     7     6     5    1
     8     7     8    1
     9     5     4   ar
    10     5     1   ar
    11     4     3   ar
    12     8     9    1
    13    18    11    2
    14     1     9    1
    15     1     2   ar
    16     3     2   ar
    17     3    10    1
    18    11    10   am
    19    11    12    1
    20     2    19    1
    21    12    13    1
    22    19    20    1
    23    19    29    2
    24    20    22    1
    25    13    14   ar
    26    13    17   ar
    27    14    15   ar
    28    25    27    1
    29    25    23    1
    30    27    28    1
    31    23    22    1
    32    22    28    1
    33    15    16   ar
    34    17    16   ar
