@<TRIPOS>MOLECULE
3sl8_JN7_A_1.pdb
 31 34 0 0 0
SMALL
GASTEIGER

@<TRIPOS>ATOM
      1  C1        72.0580   -9.3670   29.6650 C.3    18  JN718       0.0485
      2  C2        71.7730  -10.0400   28.2930 C.3    18  JN718       0.1018
      3  N3        72.0160   -9.1480   27.1720 N.am   18  JN718      -0.2411
      4  C4        71.2150   -7.9180   27.0990 C.3    18  JN718       0.1296
      5  C5        71.3320   -7.1430   28.4070 C.ar   18  JN718       0.0249
      6  C6        71.7610   -7.8480   29.6770 C.ar   18  JN718      -0.0088
      7  S7        71.1130   -5.5850   28.7230 S.2    18  JN718      -0.0732
      8  C8        71.4400   -5.3840   30.3680 C.ar   18  JN718       0.1084
      9  C9        71.8260   -6.7130   30.9490 C.ar   18  JN718       0.0934
     10  C10       73.2510   -9.0580   26.4110 C.2    18  JN718       0.4051
     11  O11       73.5880   -7.9720   25.8530 O.2    18  JN718      -0.2262
     12  O12       74.0860  -10.0170   26.5060 O.3    18  JN718      -0.4345
     13  C13       75.2290  -10.1000   25.7260 C.3    18  JN718       0.2102
     14  C14       76.3030  -11.0340   26.1880 C.3    18  JN718       0.0513
     15  C15       72.2140   -6.9000   32.4040 C.2    18  JN718       0.3426
     16  N16       71.4180   -4.1500   31.1270 N.am   18  JN718      -0.1721
     17  C17       71.4240   -2.8130   30.5780 C.2    18  JN718       0.2510
     18  C18       71.4890   -1.7000   31.5820 C.3    18  JN718       0.1200
     19  C19       71.7690   -2.1030   33.0110 C.ar   18  JN718       0.0165
     20  S20       73.1950   -2.6440   33.6470 S.2    18  JN718      -0.0903
     21  C21       72.9270   -2.9530   35.2140 C.ar   18  JN718       0.0351
     22  C22       71.4600   -2.6310   35.5340 C.ar   18  JN718       0.0072
     23  C23       70.7260   -2.0990   34.1610 C.ar   18  JN718       0.0032
     24  O24       71.0760   -2.5890   29.4310 O.2    18  JN718      -0.2726
     25  O25       72.0200   -7.9490   33.1080 O.3    18  JN718      -0.4492
     26  O26       72.5510   -5.8680   33.0380 O.2    18  JN718      -0.2448
     27  C27       71.8820   -9.2350   32.6060 C.3    18  JN718       0.1692
     28  C28       70.7440  -10.1180   33.1510 C.3    18  JN718       0.0436
     29  C29       71.3820  -11.4670   33.5570 C.3    18  JN718       0.0038
     30  C30       72.6660  -11.5620   32.7340 C.3    18  JN718       0.0038
     31  C31       73.1220  -10.1240   32.5270 C.3    18  JN718       0.0436
@<TRIPOS>BOND
     1    13    14    1
     2    13    12    1
     3    11    10    2
     4    10    12    1
     5    10     3   am
     6     4     3    1
     7     4     5    1
     8     3     2    1
     9     2     1    1
    10     5     7   ar
    11     5     6   ar
    12     7     8   ar
    13    24    17    2
    14     1     6    1
    15     6     9   ar
    16     8     9   ar
    17     8    16    1
    18    17    16   am
    19    17    18    1
    20     9    15    1
    21    18    19    1
    22    15    26    2
    23    15    25    1
    24    31    27    1
    25    31    30    1
    26    27    25    1
    27    27    28    1
    28    30    29    1
    29    19    20   ar
    30    19    23   ar
    31    28    29    1
    32    20    21   ar
    33    23    22   ar
    34    21    22   ar
