@<TRIPOS>MOLECULE
3sld_FUC_A_1.pdb
 11 11 0 0 0
SMALL
GASTEIGER

@<TRIPOS>ATOM
      1  C1        67.8200   60.9250    4.4330 C.3     3  FUC3        0.3023
      2  C2        68.8900   59.8490    4.2360 C.3     3  FUC3        0.2434
      3  C3        68.2730   58.4490    4.2790 C.3     3  FUC3        0.2198
      4  C4        67.0330   58.3680    3.3860 C.3     3  FUC3        0.2118
      5  C5        66.0950   59.5500    3.6420 C.3     3  FUC3        0.1509
      6  C6        64.9060   59.4750    2.6820 C.3     3  FUC3        0.0350
      7  O1        67.2330   60.7830    5.7340 O.3     3  FUC3       -0.1869
      8  O2        69.8790   59.9660    5.2610 O.3     3  FUC3       -0.2148
      9  O3        69.2390   57.4880    3.8430 O.3     3  FUC3       -0.2174
     10  O4        67.4330   58.3650    2.0130 O.3     3  FUC3       -0.2177
     11  O5        66.8040   60.7790    3.4300 O.3     3  FUC3       -0.3264
@<TRIPOS>BOND
     1    10     4    1
     2     6     5    1
     3     4     5    1
     4     4     3    1
     5    11     5    1
     6    11     1    1
     7     9     3    1
     8     2     3    1
     9     2     1    1
    10     2     8    1
    11     1     7    1
