@<TRIPOS>MOLECULE
3sle_HEC_A_1.pdb
 43 50 0 0 0
SMALL
GASTEIGER

@<TRIPOS>ATOM
      1 FE         25.4270   36.9070  -81.7120 Fe    500  HEC500      0.0000
      2  CHA       25.3380   37.2640  -78.3800 C.2   500  HEC500      0.0000
      3  CHB       22.6860   38.8820  -82.0130 C.2   500  HEC500      0.0000
      4  CHC       25.9890   37.1100  -85.0760 C.2   500  HEC500      0.0000
      5  CHD       27.8720   34.5460  -81.5200 C.2   500  HEC500      0.0000
      6  NA        24.2370   37.8990  -80.4110 N.ar  500  HEC500      0.0000
      7  C1A       24.3040   37.8690  -79.0480 C.ar  500  HEC500      0.0000
      8  C2A       23.1560   38.5780  -78.4650 C.ar  500  HEC500      0.0000
      9  C3A       22.4470   39.0360  -79.4900 C.ar  500  HEC500      0.0000
     10  C4A       23.1100   38.6230  -80.7270 C.ar  500  HEC500      0.0000
     11  CMA       21.1230   39.8320  -79.4150 C.3   500  HEC500      0.0000
     12  CAA       22.8370   38.7920  -76.9480 C.3   500  HEC500      0.0000
     13  CBA       21.7980   37.8270  -76.3570 C.3   500  HEC500      0.0000
     14  CGA       21.8320   37.8100  -74.8270 C.2   500  HEC500      0.0000
     15  O1A       20.8720   37.3200  -74.1530 O.co2 500  HEC500      0.0000
     16  O2A       22.8400   38.2960  -74.2480 O.co2 500  HEC500      0.0000
     17  NB        24.4620   37.7700  -83.2570 N.2   500  HEC500      0.0000
     18  C1B       23.4410   38.6800  -83.1300 C.2   500  HEC500      0.0000
     19  C2B       23.2990   39.3930  -84.3720 C.2   500  HEC500      0.0000
     20  C3B       24.2080   38.8900  -85.2280 C.2   500  HEC500      0.0000
     21  C4B       24.9670   37.8760  -84.5320 C.2   500  HEC500      0.0000
     22  CMB       22.1830   40.4610  -84.6090 C.3   500  HEC500      0.0000
     23  CAB       24.4380   39.3050  -86.7010 C.3   500  HEC500      0.0000
     24  CBB       24.5940   40.8410  -86.7770 C.3   500  HEC500      0.0000
     25  NC        26.7010   35.9700  -83.0770 N.ar  500  HEC500      0.0000
     26  C1C       26.7820   36.2090  -84.4320 C.ar  500  HEC500      0.0000
     27  C2C       27.8690   35.4320  -84.9890 C.ar  500  HEC500      0.0000
     28  C3C       28.3160   34.6360  -84.0130 C.ar  500  HEC500      0.0000
     29  C4C       27.6420   35.0280  -82.7810 C.ar  500  HEC500      0.0000
     30  CMC       28.1930   35.2440  -86.4890 C.3   500  HEC500      0.0000
     31  CAC       29.4250   33.5440  -84.0840 C.3   500  HEC500      0.0000
     32  CBC       30.7310   33.9380  -84.8020 C.3   500  HEC500      0.0000
     33  ND        26.4230   36.0280  -80.2250 N.2   500  HEC500      0.0000
     34  C1D       27.4640   35.1300  -80.3490 C.2   500  HEC500      0.0000
     35  C2D       28.0330   34.8760  -79.0410 C.2   500  HEC500      0.0000
     36  C3D       27.2370   35.7500  -78.0790 C.2   500  HEC500      0.0000
     37  C4D       26.2670   36.4190  -78.8930 C.2   500  HEC500      0.0000
     38  CMD       29.2080   33.9710  -78.6270 C.3   500  HEC500      0.0000
     39  CAD       27.4690   35.9020  -76.5680 C.3   500  HEC500      0.0000
     40  CBD       28.6870   36.8200  -76.5260 C.3   500  HEC500      0.0000
     41  CGD       28.8760   37.3970  -75.1640 C.2   500  HEC500      0.0000
     42  O1D       30.0220   37.8040  -74.8670 O.co2 500  HEC500      0.0000
     43  O2D       27.8930   37.4610  -74.3660 O.co2 500  HEC500      0.0000
@<TRIPOS>BOND
     1    24    23    1
     2    23    20    1
     3    30    27    1
     4    20    21    1
     5    20    19    2
     6     4    21    2
     7     4    26    1
     8    27    26   ar
     9    27    28   ar
    10    32    31    1
    11    22    19    1
    12    21    17    1
    13    26    25   ar
    14    19    18    1
    15    31    28    1
    16    28    29   ar
    17    17    18    2
    18    17     1    1
    19    18     3    1
    20    25    29   ar
    21    25     1    1
    22    29     5    1
    23     3    10    2
    24     1     6    1
    25     1    33    1
    26     5    34    2
    27    10     6   ar
    28    10     9   ar
    29     6     7   ar
    30    34    33    1
    31    34    35    1
    32    33    37    2
    33     9    11    1
    34     9     8   ar
    35     7     8   ar
    36     7     2    2
    37    35    38    1
    38    35    36    2
    39    37     2    1
    40    37    36    1
    41     8    12    1
    42    36    39    1
    43    12    13    1
    44    39    40    1
    45    40    41    1
    46    13    14    1
    47    41    42   ar
    48    41    43   ar
    49    14    16   ar
    50    14    15   ar
