@<TRIPOS>MOLECULE
3slf_ACO_A_1.pdb
 48 50 0 0 0
SMALL
GASTEIGER

@<TRIPOS>ATOM
      1  N1A       21.4310    8.0620   14.4060 N.2   266  ACO266      0.0021
      2  C2A       22.2240    7.8870   13.3880 C.3   266  ACO266      0.5254
      3  N3A       22.3560    6.7640   12.7580 N.2   266  ACO266     -0.0055
      4  C4A       21.6880    5.6980   13.1430 C.2   266  ACO266      0.3518
      5  C5A       20.7790    5.7850   14.2480 C.2   266  ACO266      0.2526
      6  C6A       20.6700    7.0910   14.9020 C.2   266  ACO266      0.4393
      7  N6A       19.8910    7.2970   15.9620 N.pl3 266  ACO266      0.2180
      8  N7A       20.2670    4.5960   14.3640 N.2   266  ACO266     -0.2095
      9  C8A       20.7890    3.8310   13.4430 C.3   266  ACO266      0.3377
     10  N9A       21.6390    4.4830   12.7060 N.pl3 266  ACO266     -0.1439
     11  C1B       22.3860    3.9890   11.5630 C.3   266  ACO266      0.3185
     12  C2B       22.7380    2.5400   11.6180 C.3   266  ACO266      0.2543
     13  O2B       24.0760    2.4700   11.2810 O.3   266  ACO266     -0.2131
     14  C3B       21.8790    1.9910   10.5060 C.3   266  ACO266      0.1928
     15  O3B       22.3190    0.8410    9.8770 O.3   266  ACO266     -0.2673
     16  P3B       21.8240   -0.6020   10.2210 P.3   266  ACO266      0.5327
     17  O7A       22.8740   -1.3440    9.5450 O.2   266  ACO266     -0.2224
     18  O8A       21.8350   -0.6350   11.6820 O.3   266  ACO266     -0.1145
     19  O9A       20.5120   -0.8330    9.6890 O.3   266  ACO266     -0.1145
     20  C4B       21.7060    3.1200    9.5390 C.3   266  ACO266      0.1795
     21  O4B       21.5430    4.1140   10.4870 O.3   266  ACO266     -0.3136
     22  C5B       20.4750    2.9720    8.6720 C.3   266  ACO266      0.1812
     23  O5B       20.3150    4.0640    7.8090 O.3   266  ACO266     -0.3112
     24  P1A       20.2200    3.9190    6.3330 P.3   266  ACO266      0.2189
     25  O1A       19.2500    2.9300    6.1070 O.3   266  ACO266     -0.4371
     26  O2A       19.9880    5.2140    5.8190 O.2   266  ACO266     -0.5170
     27  O3A       21.5400    3.2750    5.8290 O.3   266  ACO266     -0.2703
     28  P2A       22.8880    4.0100    5.5130 P.3   266  ACO266      0.2188
     29  O4A       23.9280    3.0780    5.4800 O.2   266  ACO266     -0.5170
     30  O5A       22.9730    5.1680    6.3340 O.3   266  ACO266     -0.4371
     31  O6A       22.8040    4.3590    4.0430 O.3   266  ACO266     -0.3138
     32  CBP       21.5980    3.8240    1.9720 C.3   266  ACO266      0.0645
     33  CCP       22.5290    3.3900    3.0980 C.3   266  ACO266      0.1519
     34  CDP       20.1880    3.9860    2.4710 C.3   266  ACO266      0.0056
     35  CEP       21.5840    2.7420    0.9370 C.3   266  ACO266      0.0056
     36  CAP       22.0420    5.1390    1.3400 C.3   266  ACO266      0.2312
     37  OAP       23.4060    5.1750    1.1400 O.3   266  ACO266     -0.2131
     38  C9P       21.3070    5.4940    0.1090 C.2   266  ACO266      0.2719
     39  O9P       21.7030    5.1930   -0.9330 O.2   266  ACO266     -0.2706
     40  N8P       20.2260    6.1880    0.2690 N.am  266  ACO266     -0.2028
     41  C7P       19.5460    6.6890   -0.8570 C.3   266  ACO266      0.1248
     42  C6P       18.5600    5.7040   -1.4160 C.3   266  ACO266      0.1102
     43  C5P       17.7390    6.2030   -2.5760 C.2   266  ACO266      0.2432
     44  O5P       17.0370    7.1540   -2.4780 O.2   266  ACO266     -0.2733
     45  N4P       17.8440    5.4870   -3.6610 N.am  266  ACO266     -0.2044
     46  C3P       17.3020    5.8960   -4.8860 C.3   266  ACO266      0.1276
     47  C2P       17.5310    4.8950   -6.0040 C.3   266  ACO266      0.0920
     48  S1P       16.7260    5.3750   -7.4900 S.3   266  ACO266     -0.0802
@<TRIPOS>BOND
     1    48    47    1
     2    47    46    1
     3    46    45    1
     4    45    43   am
     5    43    44    2
     6    43    42    1
     7    42    41    1
     8    39    38    2
     9    41    40    1
    10    38    40   am
    11    38    36    1
    12    35    32    1
    13    37    36    1
    14    36    32    1
    15    32    34    1
    16    32    33    1
    17    33    31    1
    18    31    28    1
    19    29    28    2
    20    28    27    1
    21    28    30    1
    22    26    24    2
    23    27    24    1
    24    25    24    1
    25    24    23    1
    26    23    22    1
    27    22    20    1
    28    20    21    1
    29    20    14    1
    30    17    16    2
    31    19    16    1
    32    15    16    1
    33    15    14    1
    34    16    18    1
    35    21    11    1
    36    14    12    1
    37    13    12    1
    38    11    12    1
    39    11    10    1
    40    10     4    1
    41    10     9    1
    42     3     4    2
    43     3     2    1
    44     4     5    1
    45     2     1    1
    46     9     8    1
    47     5     8    2
    48     5     6    1
    49     1     6    2
    50     6     7    1
