@<TRIPOS>MOLECULE
3slh_SKM_A_1.pdb
 12 12 0 0 0
SMALL
GASTEIGER

@<TRIPOS>ATOM
      1  O12       -3.0200   32.4000  -46.9160 O.3   445  SKM445     -0.2173
      2  C8        -3.8440   32.1490  -45.7740 C.3   445  SKM445      0.2167
      3  C6        -3.3430   30.8930  -45.0730 C.3   445  SKM445      0.1896
      4  O7        -3.4470   29.7150  -45.9150 O.3   445  SKM445     -0.2200
      5  C5        -4.0880   30.7020  -43.7730 C.3   445  SKM445      0.0684
      6  C4        -4.3710   31.7720  -43.0180 C.2   445  SKM445      0.0584
      7  C1        -4.8060   31.5630  -41.6490 C.2   445  SKM445      0.3837
      8  O2        -4.8560   32.5530  -40.8620 O.co2 445  SKM445     -0.2409
      9  O3        -5.1060   30.3980  -41.3060 O.co2 445  SKM445     -0.2409
     10  C10       -4.2120   33.0240  -43.4620 C.2   445  SKM445      0.0111
     11  C9        -3.7300   33.3580  -44.8510 C.3   445  SKM445      0.2066
     12  O11       -2.3500   33.7510  -44.7700 O.3   445  SKM445     -0.2155
@<TRIPOS>BOND
     1     1     2    1
     2     4     3    1
     3     2     3    1
     4     2    11    1
     5     3     5    1
     6    11    12    1
     7    11    10    1
     8     5     6    1
     9    10     6    2
    10     6     7    1
    11     7     9   ar
    12     7     8   ar
