@<TRIPOS>MOLECULE
3slh_GPJ_A_1.pdb
 10 9 0 0 0
SMALL
GASTEIGER

@<TRIPOS>ATOM
      1  P1         0.6700   29.4360  -45.0630 P.3   444  GPJ444      0.1347
      2  O1         1.7860   28.4620  -45.4690 O.2   444  GPJ444     -0.4587
      3  O2        -0.2930   28.6320  -44.2200 O.3   444  GPJ444     -0.3562
      4  O3         1.1480   30.7410  -44.5200 O.3   444  GPJ444     -0.3562
      5  O4        -2.9520   27.5150  -48.1950 O.co2 444  GPJ444     -0.2440
      6  O5        -3.0230   28.6310  -50.1120 O.co2 444  GPJ444     -0.2440
      7  C1        -0.1200   30.0220  -46.5610 C.3   444  GPJ444      0.1476
      8  C2        -1.5690   29.4290  -48.4200 C.3   444  GPJ444      0.2033
      9  C3        -2.5640   28.4340  -48.9560 C.2   444  GPJ444      0.3823
     10  N1        -0.8980   28.9930  -47.2070 N.3   444  GPJ444     -0.1988
@<TRIPOS>BOND
     1     6     9   ar
     2     9     8    1
     3     9     5   ar
     4     8    10    1
     5    10     7    1
     6     7     1    1
     7     2     1    2
     8     1     4    1
     9     1     3    1
