@<TRIPOS>MOLECULE
3slh_S3P_A_1.pdb
 16 16 0 0 0
SMALL
GASTEIGER

@<TRIPOS>ATOM
      1  C1        -4.3780   31.7640  -42.9280 C.2   443  S3P443      0.0583
      2  C2        -4.1780   33.0460  -43.2860 C.2   443  S3P443      0.0084
      3  C3        -3.6780   33.4910  -44.6420 C.3   443  S3P443      0.1809
      4  C4        -3.7860   32.3290  -45.6560 C.3   443  S3P443      0.2140
      5  C5        -3.3360   30.9960  -45.0480 C.3   443  S3P443      0.1895
      6  C6        -4.2350   30.6040  -43.8870 C.3   443  S3P443      0.0684
      7  C7        -4.7430   31.4550  -41.5510 C.2   443  S3P443      0.3837
      8  O1        -2.3160   33.9940  -44.4720 O.3   443  S3P443     -0.2655
      9  O2        -2.9950   32.6310  -46.8100 O.3   443  S3P443     -0.2174
     10  O3        -3.3370   29.8960  -46.0010 O.3   443  S3P443     -0.2200
     11  O4        -4.6790   32.3530  -40.6720 O.co2 443  S3P443     -0.2409
     12  O5        -5.1190   30.2940  -41.2770 O.co2 443  S3P443     -0.2409
     13  P1        -1.9340   35.5310  -44.0380 P.3   443  S3P443      0.5329
     14  O6        -2.2960   35.6680  -42.5730 O.3   443  S3P443     -0.1145
     15  O7        -2.7770   36.3950  -44.9670 O.2   443  S3P443     -0.2224
     16  O8        -0.4380   35.6440  -44.3090 O.3   443  S3P443     -0.1145
@<TRIPOS>BOND
     1     9     4    1
     2    10     5    1
     3     4     5    1
     4     4     3    1
     5     5     6    1
     6    15    13    2
     7     3     8    1
     8     3     2    1
     9     8    13    1
    10    16    13    1
    11    13    14    1
    12     6     1    1
    13     2     1    2
    14     1     7    1
    15     7    12   ar
    16     7    11   ar
