@<TRIPOS>MOLECULE
3sli_SKD_A_1.pdb
 20 21 0 0 0
SMALL
GASTEIGER

@<TRIPOS>ATOM
      1  C1         1.7280    7.5690   36.0400 C.2   760  SKD760      0.4152
      2  C2         2.9740    7.2830   36.8620 C.3   760  SKD760      0.2863
      3  C3         4.1980    6.9900   35.9800 C.3   760  SKD760      0.1028
      4  C4         5.4610    7.5030   36.7240 C.3   760  SKD760      0.1797
      5  C5         5.3520    7.2700   38.2600 C.3   760  SKD760      0.1553
      6  C6         3.9790    7.7980   38.7960 C.3   760  SKD760      0.1701
      7  C7         3.1680    6.5210   39.0500 C.3   760  SKD760      0.1798
      8  C8         1.9520    6.7340   39.9670 C.3   760  SKD760      0.2142
      9  C9         2.3570    7.0700   41.4010 C.3   760  SKD760      0.2174
     10  C10        6.9560    7.3710   40.0720 C.2   760  SKD760      0.2420
     11  C11        8.1510    8.0670   40.7020 C.3   760  SKD760      0.0964
     12  N5         6.4740    7.8910   38.9440 N.am  760  SKD760     -0.2020
     13  O1A        1.6260    7.0680   34.8990 O.co2 760  SKD760     -0.2402
     14  O1B        0.8200    8.2600   36.5490 O.co2 760  SKD760     -0.2402
     15  O4         6.6310    6.8570   36.2200 O.3   760  SKD760     -0.2210
     16  O6         3.2930    8.3930   37.6960 O.3   760  SKD760     -0.3240
     17  O7         2.6960    6.1710   37.7350 O.3   760  SKD760     -0.3232
     18  O8         1.1410    7.7780   39.4510 O.3   760  SKD760     -0.2176
     19  O9         2.6380    8.4590   41.5080 O.3   760  SKD760     -0.2175
     20  O10        6.4530    6.3930   40.6340 O.2   760  SKD760     -0.2733
@<TRIPOS>BOND
     1    13     1   ar
     2     3     4    1
     3     3     2    1
     4     1    14   ar
     5     1     2    1
     6    15     4    1
     7     4     5    1
     8     2    16    1
     9     2    17    1
    10    16     6    1
    11    17     7    1
    12     5     6    1
    13     5    12    1
    14     6     7    1
    15    12    10   am
    16     7     8    1
    17    18     8    1
    18     8     9    1
    19    10    20    2
    20    10    11    1
    21     9    19    1
