@<TRIPOS>MOLECULE
3slj_C8E_A_1.pdb
 19 18 0 0 0
SMALL
GASTEIGER

@<TRIPOS>ATOM
      1  C1        -5.8360  -17.2750  -16.0700 C.3   1301  C8E1301     0.0000
      2  C2        -4.8260  -18.4170  -16.1060 C.3   1301  C8E1301     0.0000
      3  C3        -3.8380  -18.3120  -14.9510 C.3   1301  C8E1301     0.0000
      4  C4        -3.2560  -19.6700  -14.5710 C.3   1301  C8E1301     0.0000
      5  C5        -2.8530  -20.5050  -15.7850 C.3   1301  C8E1301     0.0001
      6  C6        -1.3490  -20.7790  -15.7950 C.3   1301  C8E1301     0.0026
      7  C7        -0.9870  -22.1460  -16.3760 C.3   1301  C8E1301     0.0321
      8  C8         0.4250  -22.1190  -16.9650 C.3   1301  C8E1301     0.1423
      9  O9         1.1110  -23.3430  -16.7750 O.3   1301  C8E1301    -0.3511
     10  C10        0.5260  -24.4250  -17.4810 C.3   1301  C8E1301     0.1741
     11  C11        1.5940  -25.4470  -17.8690 C.3   1301  C8E1301     0.1742
     12  O12        1.0360  -26.7020  -18.2190 O.3   1301  C8E1301    -0.3484
     13  C13        1.2270  -27.0260  -19.5800 C.3   1301  C8E1301     0.1742
     14  C14        0.6070  -28.3840  -19.8930 C.3   1301  C8E1301     0.1742
     15  O15        1.1700  -28.8580  -21.0980 O.3   1301  C8E1301    -0.3484
     16  C16        0.2640  -29.5260  -21.9540 C.3   1301  C8E1301     0.1742
     17  C17        0.5070  -31.0290  -21.9150 C.3   1301  C8E1301     0.1742
     18  O18       -0.3380  -31.6900  -22.8380 O.3   1301  C8E1301    -0.3484
     19  C19        0.0870  -31.5820  -24.1800 C.3   1301  C8E1301     0.1742
@<TRIPOS>BOND
     1    19    18    1
     2    18    17    1
     3    16    17    1
     4    16    15    1
     5    15    14    1
     6    14    13    1
     7    13    12    1
     8    12    11    1
     9    11    10    1
    10    10     9    1
    11     8     9    1
    12     8     7    1
    13     7     6    1
    14     2     1    1
    15     2     3    1
    16     6     5    1
    17     5     4    1
    18     3     4    1
