@<TRIPOS>MOLECULE
3slk_NDP_A_1.pdb
 48 52 0 0 0
SMALL
GASTEIGER

@<TRIPOS>ATOM
      1  PA        13.6090   98.0460   27.1390 P.3   801  NDP801      0.2189
      2  O1A       14.1740   96.7910   26.5070 O.2   801  NDP801     -0.5170
      3  O2A       13.5040   98.1510   28.6410 O.3   801  NDP801     -0.4371
      4  O5B       14.4230   99.3240   26.6090 O.3   801  NDP801     -0.3112
      5  C5B       15.1550   99.2620   25.3970 C.3   801  NDP801      0.1813
      6  C4B       16.6120   99.0480   25.7540 C.3   801  NDP801      0.1820
      7  O4B       17.3970   98.8750   24.5740 O.3   801  NDP801     -0.3136
      8  C3B       17.2010  100.2390   26.4910 C.3   801  NDP801      0.2157
      9  O3B       17.1450  100.0280   27.9070 O.3   801  NDP801     -0.2175
     10  C2B       18.6410  100.2560   26.0590 C.3   801  NDP801      0.2314
     11  O2B       19.3950   99.6260   27.0770 O.3   801  NDP801     -0.2630
     12  C1B       18.7100   99.3790   24.8170 C.3   801  NDP801      0.3158
     13  N9A       19.2100  100.1590   23.6600 N.pl3 801  NDP801     -0.1439
     14  C8A       20.0170   99.6750   22.7060 C.3   801  NDP801      0.3377
     15  N7A       20.3560  100.6770   21.8680 N.2   801  NDP801     -0.2095
     16  C5A       19.7590  101.7990   22.3100 C.2   801  NDP801      0.2526
     17  C6A       19.7400  103.1020   21.8460 C.2   801  NDP801      0.4393
     18  N6A       20.4230  103.4320   20.7270 N.pl3 801  NDP801      0.2180
     19  N1A       19.0370  104.0400   22.5170 N.2   801  NDP801      0.0021
     20  C2A       18.3550  103.7140   23.6220 C.3   801  NDP801      0.5254
     21  N3A       18.3470  102.4520   24.0820 N.2   801  NDP801     -0.0055
     22  C4A       19.0530  101.4780   23.4490 C.2   801  NDP801      0.3518
     23  O3        12.1510   98.3040   26.5090 O.3   801  NDP801     -0.2703
     24  PN        11.2060   97.0360   26.2560 P.3   801  NDP801      0.2189
     25  O1N        9.8200   97.3620   26.7400 O.2   801  NDP801     -0.5170
     26  O2N       11.9460   95.8350   26.7890 O.3   801  NDP801     -0.4371
     27  O5D       11.1630   96.9220   24.6630 O.3   801  NDP801     -0.3112
     28  C5D       12.3250   96.5480   23.9310 C.3   801  NDP801      0.1813
     29  C4D       12.0360   96.8610   22.4770 C.3   801  NDP801      0.1799
     30  O4D       11.1390   95.8680   21.9710 O.3   801  NDP801     -0.3327
     31  C3D       11.3120   98.1970   22.3840 C.3   801  NDP801      0.2158
     32  O3D       12.0090   99.0370   21.4660 O.3   801  NDP801     -0.2175
     33  C2D        9.9330   97.8970   21.8400 C.3   801  NDP801      0.2309
     34  O2D        9.6320   98.7660   20.7490 O.3   801  NDP801     -0.2158
     35  C1D       10.0200   96.4790   21.3280 C.3   801  NDP801      0.2263
     36  N1N        8.8120   95.7580   21.6770 N.pl3 801  NDP801     -0.2787
     37  C2N        8.0000   95.3560   20.6990 C.3   801  NDP801      0.1244
     38  C3N        6.8610   94.6330   20.9900 C.2   801  NDP801      0.0544
     39  C7N        5.9720   94.1770   19.8800 C.2   801  NDP801      0.2818
     40  O7N        4.9680   93.5460   20.1500 O.2   801  NDP801     -0.2670
     41  N7N        6.3210   94.4540   18.6250 N.am  801  NDP801     -0.0839
     42  C4N        6.5680   94.3130   22.3040 C.2   801  NDP801      0.0033
     43  C5N        7.4390   94.7290   23.2990 C.2   801  NDP801      0.0157
     44  C6N        8.5690   95.4590   22.9560 C.2   801  NDP801      0.0633
     45  P2B       20.9290   99.2770   26.7960 P.3   801  NDP801      0.5328
     46  O1X       21.0100   99.2680   25.2880 O.2   801  NDP801     -0.2224
     47  O2X       21.1260   97.9330   27.4560 O.3   801  NDP801     -0.1145
     48  O3X       21.6650  100.4200   27.4430 O.3   801  NDP801     -0.1145
@<TRIPOS>BOND
     1    41    39   am
     2    39    40    2
     3    39    38    1
     4    37    38    1
     5    37    36    1
     6    18    17    1
     7    34    33    1
     8    38    42    2
     9    35    36    1
    10    35    33    1
    11    35    30    1
    12    32    31    1
    13    36    44    1
    14    33    31    1
    15    17    16    1
    16    17    19    2
    17    15    16    2
    18    15    14    1
    19    30    29    1
    20    42    43    1
    21    16    22    1
    22    31    29    1
    23    29    28    1
    24    19    20    1
    25    14    13    1
    26    44    43    2
    27    22    13    1
    28    22    21    2
    29    20    21    1
    30    13    12    1
    31    28    27    1
    32     7    12    1
    33     7     6    1
    34    27    24    1
    35    12    10    1
    36    46    45    2
    37     5     6    1
    38     5     4    1
    39     6     8    1
    40    10     8    1
    41    10    11    1
    42    24    23    1
    43    24    25    2
    44    24    26    1
    45     8     9    1
    46     2     1    2
    47    23     1    1
    48     4     1    1
    49    45    11    1
    50    45    48    1
    51    45    47    1
    52     1     3    1
