@<TRIPOS>MOLECULE
3sln_FUC_A_1.pdb
 10 10 0 0 0
SMALL
GASTEIGER

@<TRIPOS>ATOM
      1  C1       -54.0530   61.0040    4.4620 C.3     1  FUC1        0.1776
      2  C2       -53.1690   59.8070    4.1090 C.3     1  FUC1        0.2141
      3  C3       -54.0000   58.5290    3.9850 C.3     1  FUC1        0.2172
      4  C4       -55.2310   58.7810    3.1120 C.3     1  FUC1        0.2116
      5  C5       -55.9750   60.0320    3.5360 C.3     1  FUC1        0.1483
      6  C6       -57.1600   60.2700    2.5990 C.3     1  FUC1        0.0349
      7  O2       -52.1740   59.6340    5.1210 O.3     1  FUC1       -0.2176
      8  O3       -53.1990   57.4920    3.4120 O.3     1  FUC1       -0.2175
      9  O4       -54.8400   58.8710    1.7440 O.3     1  FUC1       -0.2177
     10  O5       -55.0790   61.1510    3.4690 O.3     1  FUC1       -0.3508
@<TRIPOS>BOND
     1     9     4    1
     2     6     5    1
     3     4     5    1
     4     4     3    1
     5     8     3    1
     6    10     5    1
     7    10     1    1
     8     3     2    1
     9     2     1    1
    10     2     7    1
