@<TRIPOS>MOLECULE
3slo_C8E_A_2.pdb
 19 18 0 0 0
SMALL
GASTEIGER

@<TRIPOS>ATOM
      1  C1         4.8190    0.1320  -21.2030 C.3   1301  C8E1301     0.0000
      2  C2         5.1510    1.2100  -22.2490 C.3   1301  C8E1301     0.0000
      3  C3         4.3860    0.9230  -23.5500 C.3   1301  C8E1301     0.0000
      4  C4         4.3810    2.0530  -24.5910 C.3   1301  C8E1301     0.0000
      5  C5         3.4640    1.7490  -25.7910 C.3   1301  C8E1301     0.0001
      6  C6         4.1100    1.1980  -27.0740 C.3   1301  C8E1301     0.0026
      7  C7         4.1300    2.2680  -28.1760 C.3   1301  C8E1301     0.0321
      8  C8         3.7490    1.8160  -29.5970 C.3   1301  C8E1301     0.1423
      9  O9         2.8410    2.7650  -30.1410 O.3   1301  C8E1301    -0.3511
     10  C10        2.9030    3.0020  -31.5280 C.3   1301  C8E1301     0.1741
     11  C11        1.8050    4.0200  -31.8890 C.3   1301  C8E1301     0.1742
     12  O12        1.7640    4.2690  -33.2960 O.3   1301  C8E1301    -0.3484
     13  C13        0.7910    5.2220  -33.7070 C.3   1301  C8E1301     0.1742
     14  C14        0.8100    5.4560  -35.2340 C.3   1301  C8E1301     0.1742
     15  O15       -0.2710    4.8320  -35.9460 O.3   1301  C8E1301    -0.3484
     16  C16       -1.5540    5.4680  -35.8320 C.3   1301  C8E1301     0.1742
     17  C17       -1.9280    6.4530  -36.9560 C.3   1301  C8E1301     0.1742
     18  O18       -3.3360    6.6270  -36.9890 O.3   1301  C8E1301    -0.3484
     19  C19       -3.7490    7.7760  -37.7130 C.3   1301  C8E1301     0.1742
@<TRIPOS>BOND
     1    19    18    1
     2    18    17    1
     3    17    16    1
     4    15    16    1
     5    15    14    1
     6    14    13    1
     7    13    12    1
     8    12    11    1
     9    11    10    1
    10    10     9    1
    11     9     8    1
    12     8     7    1
    13     7     6    1
    14     6     5    1
    15     5     4    1
    16     4     3    1
    17     3     2    1
    18     2     1    1
