@<TRIPOS>MOLECULE
3sls_77D_A_1.pdb
 31 34 0 0 0
SMALL
GASTEIGER

@<TRIPOS>ATOM
      1  N01      -13.3300   22.6580  -34.4310 N.2   500  77D500     -0.2021
      2  C02      -14.4780   23.3490  -33.9110 C.3   500  77D500      0.1381
      3  C03      -15.4960   22.3550  -33.4100 C.3   500  77D500      0.0275
      4  C04      -16.8140   23.0640  -33.1920 C.3   500  77D500      0.0024
      5  C05      -15.6930   21.2560  -34.4380 C.3   500  77D500      0.0024
      6  C06      -15.0220   21.8250  -32.0670 C.3   500  77D500      0.0297
      7  C07      -13.8970   20.8660  -32.1140 C.ar  500  77D500      0.0011
      8  C08      -13.9110   19.6160  -31.4350 C.ar  500  77D500      0.0736
      9  C09      -14.9880   19.1060  -30.6240 C.2   500  77D500      0.2663
     10  N10      -15.6210   20.0960  -29.9160 N.am  500  77D500     -0.2019
     11  C11      -16.7340   19.8070  -29.0570 C.3   500  77D500      0.1130
     12  C12      -16.6430   20.6400  -27.7930 C.3   500  77D500      0.1103
     13  N13      -17.7800   20.2100  -26.9430 N.3   500  77D500     -0.2162
     14  C14      -19.1160   20.4620  -27.5480 C.3   500  77D500      0.0888
     15  C15      -19.1850   19.6820  -28.8450 C.3   500  77D500      0.0206
     16  C16      -18.0440   20.0850  -29.7590 C.3   500  77D500      0.0246
     17  O17      -15.2840   17.9200  -30.6000 O.2   500  77D500     -0.2683
     18  C18      -12.7600   18.8760  -31.6230 C.ar  500  77D500      0.1047
     19  N19      -12.5540   17.6450  -31.0770 N.pl3 500  77D500     -0.2036
     20  C20      -11.4350   16.8110  -31.2750 C.ar  500  77D500      0.0984
     21  C21      -11.6420   15.4740  -31.5570 C.ar  500  77D500      0.1557
     22  F22      -12.8960   14.9970  -31.6550 F     500  77D500     -0.2028
     23  C23      -10.5890   14.6100  -31.7400 C.ar  500  77D500      0.0368
     24  C24       -9.3050   15.0870  -31.6320 C.ar  500  77D500      0.0324
     25  I25       -7.6970   13.7930  -31.8910 I     500  77D500     -0.0424
     26  C26       -9.0780   16.4180  -31.3480 C.ar  500  77D500      0.0073
     27  C27      -10.1410   17.2760  -31.1700 C.ar  500  77D500      0.0192
     28  S28      -11.6560   19.7240  -32.6360 S.2   500  77D500     -0.0590
     29  C29      -12.7220   21.0620  -32.8090 C.ar  500  77D500      0.1095
     30  C30      -12.3260   22.1870  -33.6230 C.1   500  77D500      0.1559
     31  O31      -11.2110   22.6750  -33.6460 O.2   500  77D500     -0.2217
@<TRIPOS>BOND
     1     5     3    1
     2     1     2    1
     3     1    30    2
     4     2     3    1
     5    31    30    2
     6    30    29    1
     7     3     4    1
     8     3     6    1
     9    29    28   ar
    10    29     7   ar
    11    28    18   ar
    12     7     6    1
    13     7     8   ar
    14    25    24    1
    15    23    24   ar
    16    23    21   ar
    17    22    21    1
    18    24    26   ar
    19    18     8   ar
    20    18    19    1
    21    21    20   ar
    22     8     9    1
    23    26    27   ar
    24    20    27   ar
    25    20    19    1
    26     9    17    2
    27     9    10   am
    28    10    11    1
    29    16    11    1
    30    16    15    1
    31    11    12    1
    32    15    14    1
    33    12    13    1
    34    14    13    1
