@<TRIPOS>MOLECULE
3sls_ANP_A_1.pdb
 31 33 0 0 0
SMALL
GASTEIGER

@<TRIPOS>ATOM
      1  PG       -16.4090   17.3870  -24.9950 P.3   400  ANP400      0.4884
      2  O1G      -15.2020   16.4970  -25.0700 O.3   400  ANP400     -0.1240
      3  O2G      -16.1730   18.7070  -24.2890 O.3   400  ANP400     -0.1240
      4  O3G      -17.1170   17.5520  -26.3160 O.2   400  ANP400     -0.2331
      5  PB       -17.4130   14.9080  -23.4570 P.3   400  ANP400      0.4669
      6  O1B      -15.9970   14.4520  -23.6550 O.2   400  ANP400     -0.2351
      7  O2B      -18.0010   14.7100  -22.0940 O.3   400  ANP400     -0.1253
      8  N3B      -17.5250   16.6020  -23.8810 N.3   400  ANP400     -0.0163
      9  PA       -17.8480   13.6470  -25.9910 P.3   400  ANP400      0.2220
     10  O1A      -18.9670   14.0350  -26.9380 O.2   400  ANP400     -0.5170
     11  O2A      -16.4430   14.0550  -26.3230 O.3   400  ANP400     -0.4370
     12  O3A      -18.3150   14.0780  -24.4960 O.3   400  ANP400     -0.2360
     13  O5'      -17.7610   12.0480  -25.8260 O.3   400  ANP400     -0.3111
     14  C5'      -18.8180   11.2910  -25.2500 C.3   400  ANP400      0.1813
     15  C4'      -18.2690    9.9020  -24.9690 C.3   400  ANP400      0.1821
     16  O4'      -17.6250    9.4000  -26.1420 O.3   400  ANP400     -0.3135
     17  C3'      -17.2290    9.9220  -23.8580 C.3   400  ANP400      0.2184
     18  O3'      -17.6950    9.0950  -22.7780 O.3   400  ANP400     -0.2174
     19  C2'      -15.9740    9.3490  -24.4780 C.3   400  ANP400      0.2570
     20  O2'      -15.3930    8.3610  -23.6210 O.3   400  ANP400     -0.2130
     21  C1'      -16.4420    8.7050  -25.7720 C.3   400  ANP400      0.3186
     22  N9       -15.3880    8.8370  -26.8050 N.pl3 400  ANP400     -0.1439
     23  C8       -15.0410    9.9550  -27.4850 C.3   400  ANP400      0.3377
     24  N7       -14.0190    9.7040  -28.3410 N.2   400  ANP400     -0.2095
     25  C5       -13.7010    8.3970  -28.2160 C.2   400  ANP400      0.2526
     26  C6       -12.7170    7.4590  -28.8110 C.2   400  ANP400      0.4393
     27  N6       -11.8350    7.8650  -29.7470 N.pl3 400  ANP400      0.2180
     28  N1       -12.7260    6.1730  -28.3880 N.2   400  ANP400      0.0021
     29  C2       -13.5910    5.7230  -27.4540 C.3   400  ANP400      0.5254
     30  N3       -14.5010    6.5190  -26.8650 N.2   400  ANP400     -0.0055
     31  C4       -14.6070    7.8330  -27.2000 C.2   400  ANP400      0.3518
@<TRIPOS>BOND
     1    27    26    1
     2    26    28    2
     3    26    25    1
     4    28    29    1
     5    24    25    2
     6    24    23    1
     7    25    31    1
     8    23    22    1
     9    29    30    1
    10    31    30    2
    11    31    22    1
    12    10     9    2
    13    22    21    1
    14    11     9    1
    15     4     1    2
    16    16    21    1
    17    16    15    1
    18     9    13    1
    19     9    12    1
    20    13    14    1
    21    21    19    1
    22    14    15    1
    23     2     1    1
    24     1     3    1
    25     1     8    1
    26    15    17    1
    27    12     5    1
    28    19    17    1
    29    19    20    1
    30     8     5    1
    31    17    18    1
    32     6     5    2
    33     5     7    1
