@<TRIPOS>MOLECULE
3slt_C8E_A_1.pdb
 21 20 0 0 0
SMALL
GASTEIGER

@<TRIPOS>ATOM
      1  C1       -10.4620   31.7190   41.5950 C.3     1  C8E1        0.0000
      2  C2       -10.8990   30.4950   40.7940 C.3     1  C8E1        0.0000
      3  C3       -10.3420   29.2010   41.3930 C.3     1  C8E1        0.0000
      4  C4       -11.4130   28.1240   41.5530 C.3     1  C8E1        0.0000
      5  C5       -11.9520   27.6240   40.2090 C.3     1  C8E1        0.0001
      6  C6       -13.4590   27.3330   40.2720 C.3     1  C8E1        0.0026
      7  C7       -13.7780   26.0380   41.0290 C.3     1  C8E1        0.0321
      8  C8       -15.2260   25.5970   40.7820 C.3     1  C8E1        0.1423
      9  O9       -15.3050   24.3510   40.1110 O.3     1  C8E1       -0.3511
     10  C10      -14.9890   23.2210   40.9220 C.3     1  C8E1        0.1741
     11  C11      -13.9130   22.3710   40.2320 C.3     1  C8E1        0.1742
     12  O12      -13.6670   21.1600   40.9290 O.3     1  C8E1       -0.3484
     13  C13      -12.4930   20.4890   40.5210 C.3     1  C8E1        0.1742
     14  C14      -12.7210   19.6000   39.3070 C.3     1  C8E1        0.1742
     15  O15      -12.8450   20.3380   38.1140 O.3     1  C8E1       -0.3484
     16  C16      -13.6630   19.6610   37.1930 C.3     1  C8E1        0.1742
     17  C17      -13.6500   20.3870   35.8670 C.3     1  C8E1        0.1742
     18  O18      -14.9440   20.4900   35.3260 O.3     1  C8E1       -0.3483
     19  C19      -15.6470   21.6890   35.5990 C.3     1  C8E1        0.1777
     20  C20      -15.2830   22.8370   34.6430 C.3     1  C8E1        0.2140
     21  O21      -16.0030   24.0250   34.9940 O.3     1  C8E1       -0.2176
@<TRIPOS>BOND
     1    20    21    1
     2    20    19    1
     3    18    19    1
     4    18    17    1
     5    17    16    1
     6    16    15    1
     7    15    14    1
     8    14    13    1
     9     9     8    1
    10     9    10    1
    11     5     6    1
    12     5     4    1
    13    11    10    1
    14    11    12    1
    15     6     7    1
    16    13    12    1
    17     8     7    1
    18     2     3    1
    19     2     1    1
    20     3     4    1
