@<TRIPOS>MOLECULE
3sm0_AEK_A_1.pdb
 25 28 0 0 0
SMALL
GASTEIGER

@<TRIPOS>ATOM
      1  N1        19.0630   18.2860   16.1730 N.pl3 501  AEK501     -0.1499
      2  N3        14.1100   14.7760   17.7000 N.3   501  AEK501     -0.2180
      3  C4        16.3410   16.9230   19.9570 C.3   501  AEK501      0.0979
      4  C5        15.0170   16.4290   19.3650 C.3   501  AEK501      0.0319
      5  C6        15.2400   15.1070   18.5950 C.3   501  AEK501      0.0895
      6  C7        12.7590   14.9490   18.2860 C.3   501  AEK501      0.0887
      7  C8        11.6470   14.7750   17.1870 C.3   501  AEK501      0.0174
      8  C10        9.3200   15.2820   16.7140 C.3   501  AEK501      0.0000
      9  C13       16.6590   16.9100   21.3200 C.2   501  AEK501      0.0734
     10  C15       18.1460   17.2660   23.2810 C.1   501  AEK501      0.1532
     11  C17       18.9290   17.7730   20.9300 C.2   501  AEK501      0.0482
     12  C1        18.2510   18.1030   14.9560 C.3   501  AEK501      0.1504
     13  C2        18.5790   17.9880   17.4040 C.1   501  AEK501      0.2200
     14  N2        17.3720   17.5130   17.7540 N.2   501  AEK501     -0.3285
     15  C3        17.3560   17.3770   19.1110 C.2   501  AEK501      0.1581
     16  C9        10.2290   14.7440   17.8190 C.3   501  AEK501      0.0014
     17  C11       10.1580   16.2290   15.8440 C.3   501  AEK501      0.0000
     18  C12       11.6350   16.0450   16.2770 C.3   501  AEK501      0.0014
     19  N4        15.7170   16.4820   22.2000 N.2   501  AEK501     -0.2468
     20  C14       15.9490   16.4450   23.4810 C.3   501  AEK501      0.2622
     21  N5        17.1190   16.8180   24.0640 N.2   501  AEK501     -0.1752
     22  O1        19.2160   17.6130   23.7710 O.2   501  AEK501     -0.2221
     23  C16       17.9200   17.3230   21.7950 C.2   501  AEK501      0.0990
     24  C18       18.5920   17.7800   19.5800 C.2   501  AEK501      0.1723
     25  N6        19.3140   18.1460   18.5180 N.2   501  AEK501     -0.3247
@<TRIPOS>BOND
     1    12     1    1
     2    17    18    1
     3    17     8    1
     4     1    13    1
     5    18     7    1
     6     8    16    1
     7     7    16    1
     8     7     6    1
     9    13    14    2
    10    13    25    2
    11     2     6    1
    12     2     5    1
    13    14    15    2
    14    25    24    2
    15     5     4    1
    16    15    24    1
    17    15     3    1
    18     4     3    1
    19    24    11    1
    20     3     9    1
    21    11    23    2
    22     9    23    1
    23     9    19    2
    24    23    10    1
    25    19    20    1
    26    10    22    2
    27    10    21    2
    28    20    21    1
