@<TRIPOS>MOLECULE
3sm1_III_J_1.pdb
 31 30 0 0 0
SMALL
GASTEIGER

@<TRIPOS>ATOM
      1  CA        -5.5570    2.3350    8.7090 C.3     1  IVA1        0.0868
      2  CB        -6.8630    1.7240    9.2530 C.3     1  IVA1        0.0091
      3  CG1       -7.4860    2.5750   10.3510 C.3     1  IVA1        0.0005
      4  CG2       -7.9330    1.4430    8.2070 C.3     1  IVA1        0.0005
      5  C         -5.7340    3.7020    8.0740 C.2     1  IVA1        0.2418
      6  O         -5.6850    4.7340    8.7490 O.2     1  IVA1       -0.2733
      7  N         -5.9340    3.7530    6.7630 N.am    2  VAL2       -0.1978
      8  CA        -6.1770    5.0000    6.0470 C.3     2  VAL2        0.1726
      9  C         -7.3020    4.6580    5.0550 C.2     2  VAL2        0.2616
     10  O         -7.1610    3.7640    4.2040 O.2     2  VAL2       -0.2715
     11  CB        -4.9380    5.5340    5.2670 C.3     2  VAL2        0.0290
     12  CG1       -5.3120    6.6050    4.2230 C.3     2  VAL2        0.0023
     13  CG2       -3.8800    6.0900    6.2320 C.3     2  VAL2        0.0023
     14  N         -8.4030    5.3740    5.1580 N.am    3  VAL3       -0.1963
     15  CA        -9.5320    5.1990    4.2360 C.3     3  VAL3        0.1727
     16  C         -9.8190    6.5530    3.5930 C.2     3  VAL3        0.2612
     17  O         -9.7560    7.5620    4.2860 O.2     3  VAL3       -0.2715
     18  CB       -10.7850    4.7040    5.0200 C.3     3  VAL3        0.0290
     19  CG1      -12.0510    4.7800    4.1830 C.3     3  VAL3        0.0023
     20  CG2      -10.5830    3.2690    5.5220 C.3     3  VAL3        0.0023
     21  N        -10.1770    6.5700    2.2950 N.am    4  STA4       -0.2031
     22  CA       -10.5110    7.8280    1.6200 C.3     4  STA4        0.1257
     23  CB       -10.2050    7.7500    0.1180 C.3     4  STA4        0.0243
     24  CG        -8.7080    7.5630   -0.1880 C.3     4  STA4        0.0018
     25  CD1       -7.8540    8.7060    0.3530 C.3     4  STA4        0.0001
     26  CD2       -8.4400    7.4010   -1.6930 C.3     4  STA4        0.0001
     27  CH       -11.9590    8.2280    2.0080 C.3     4  STA4        0.1744
     28  OH       -12.3420    9.5130    1.5330 O.3     4  STA4       -0.2212
     29  CM       -12.9520    7.1970    1.5080 C.3     4  STA4        0.0702
     30  C        -14.3670    7.4150    2.0100 C.3     4  STA4        0.1848
     31  O        -14.6740    7.3690    3.3860 O.3     4  STA4       -0.2203
@<TRIPOS>BOND
     1    26    24    1
     2    24    23    1
     3    24    25    1
     4    23    22    1
     5    29    27    1
     6    29    30    1
     7    28    27    1
     8    22    27    1
     9    22    21    1
    10    30    31    1
    11    21    16   am
    12    16    15    1
    13    16    17    2
    14    19    18    1
    15    10     9    2
    16    12    11    1
    17    15    18    1
    18    15    14    1
    19    18    20    1
    20     9    14   am
    21     9     8    1
    22    11     8    1
    23    11    13    1
    24     8     7    1
    25     7     5   am
    26     5     1    1
    27     5     6    2
    28     4     2    1
    29     1     2    1
    30     2     3    1
