@<TRIPOS>MOLECULE
3sm2_478_A_1.pdb
 35 37 0 0 0
SMALL
GASTEIGER

@<TRIPOS>ATOM
      1  C1        -2.6620    1.3630   16.0670 C.3   126  478126      0.1856
      2  C2        -4.6390    1.2380   14.7350 C.3   126  478126      0.0784
      3  C3        -2.9240    2.7800   12.6580 C.2   126  478126      0.4211
      4  C4        -3.3930    2.0530   14.9290 C.3   126  478126      0.2024
      5  C5        -2.4950    3.1570   10.2390 C.3   126  478126      0.1347
      6  C6        -3.2700    2.2460    9.2490 C.3   126  478126      0.1898
      7  C7        -1.1280    3.7010    9.7720 C.3   126  478126      0.0508
      8  C8        -0.4530    4.4740   10.8970 C.ar  126  478126     -0.0204
      9  C9         0.6890    3.9330   11.5090 C.ar  126  478126     -0.0042
     10  C10       -0.9390    5.7200   11.3510 C.ar  126  478126     -0.0042
     11  C11        1.3410    4.5870   12.5630 C.ar  126  478126     -0.0003
     12  C12       -0.2850    6.3630   12.4130 C.ar  126  478126     -0.0003
     13  C13        0.8290    5.7990   13.0210 C.ar  126  478126     -0.0000
     14  C14       -3.7390    2.9320    7.9510 C.3   126  478126      0.1304
     15  C15       -6.1960    3.2670    7.7960 C.3   126  478126      0.0958
     16  C16       -6.8620    2.3120    8.8180 C.3   126  478126      0.0178
     17  C17       -4.6780    5.8180    6.4790 C.ar  126  478126      0.1223
     18  C18       -3.5070    5.9290    5.7220 C.ar  126  478126      0.0213
     19  C19       -3.5800    6.3140    4.3760 C.ar  126  478126      0.0194
     20  C20       -4.8250    6.5590    3.7970 C.ar  126  478126      0.0892
     21  C21       -5.9830    6.4460    4.5520 C.ar  126  478126      0.0194
     22  C22       -5.9140    6.0730    5.8960 C.ar  126  478126      0.0213
     23  C23       -7.0530    2.9420   10.1890 C.3   126  478126      0.0015
     24  C24       -8.2310    1.8280    8.3490 C.3   126  478126      0.0015
     25  C25       -4.4800    0.0600   15.6950 C.3   126  478126      0.1461
     26  N1        -2.2760    2.4850   11.5190 N.am  126  478126     -0.1675
     27  N2        -4.8990    3.7890    8.2890 N.3   126  478126     -0.1529
     28  N3        -4.9270    6.9220    2.4880 N.pl3 126  478126     -0.1281
     29  O1        -2.5610    1.9330   13.7820 O.3   126  478126     -0.4346
     30  O2        -3.7670    3.6550   12.7940 O.2   126  478126     -0.2246
     31  O3        -2.5190    1.0630    8.9000 O.3   126  478126     -0.2197
     32  O4        -3.2230    5.6300    8.4100 O.2   126  478126     -0.1528
     33  O5        -5.5280    6.0800    8.8380 O.2   126  478126     -0.1528
     34  O6        -3.0950    0.0100   16.0000 O.3   126  478126     -0.3498
     35  S1        -4.5770    5.3690    8.0220 S.O2  126  478126      0.0634
@<TRIPOS>BOND
     1    28    20    1
     2    20    19   ar
     3    20    21   ar
     4    19    18   ar
     5    21    22   ar
     6    18    17   ar
     7    22    17   ar
     8    17    35    1
     9    15    27    1
    10    15    16    1
    11    14    27    1
    12    14     6    1
    13    35    27    1
    14    35    32    2
    15    35    33    2
    16    24    16    1
    17    16    23    1
    18    31     6    1
    19     6     5    1
    20     7     5    1
    21     7     8    1
    22     5    26    1
    23     8    10   ar
    24     8     9   ar
    25    10    12   ar
    26     9    11   ar
    27    26     3   am
    28    12    13   ar
    29    11    13   ar
    30     3    30    2
    31     3    29    1
    32    29     4    1
    33     2     4    1
    34     2    25    1
    35     4     1    1
    36    25    34    1
    37    34     1    1
