@<TRIPOS>MOLECULE
3sm9_Z99_A_1.pdb
 26 29 0 0 0
SMALL
GASTEIGER

@<TRIPOS>ATOM
      1  NAA       36.7700   28.3510  -31.5560 N.3   485  Z99485     -0.1228
      2  OAB       36.8780   27.0790  -36.2850 O.co2 485  Z99485     -0.2457
      3  OAC       39.7890   30.0680  -32.5950 O.co2 485  Z99485     -0.2441
      4  OAD       35.7950   25.5860  -35.0510 O.co2 485  Z99485     -0.2457
      5  OAE       37.9310   30.7120  -31.5440 O.co2 485  Z99485     -0.2441
      6  CAF       40.9450   24.0330  -28.3050 C.ar  485  Z99485      0.0031
      7  CAG       41.9730   30.8790  -28.9570 C.ar  485  Z99485      0.0031
      8  CAH       39.5520   24.1810  -28.3040 C.ar  485  Z99485     -0.0001
      9  CAI       40.6040   31.1580  -28.9590 C.ar  485  Z99485     -0.0001
     10  CAJ       41.7450   25.0800  -28.7810 C.ar  485  Z99485      0.0372
     11  CAK       42.4220   29.5770  -29.2180 C.ar  485  Z99485      0.0372
     12  CAL       38.9600   25.3650  -28.7650 C.ar  485  Z99485     -0.0009
     13  CAM       39.6880   30.1240  -29.1740 C.ar  485  Z99485     -0.0009
     14  CAN       39.0870   27.4750  -31.3880 C.3   485  Z99485      0.0376
     15  CAO       39.0430   27.2630  -34.3620 C.3   485  Z99485      0.0138
     16  OAP       41.9580   27.2780  -29.7350 O.3   485  Z99485     -0.4541
     17  CAQ       36.6950   26.4340  -35.2230 C.2   485  Z99485      0.3644
     18  CAR       38.6580   29.8560  -32.0940 C.2   485  Z99485      0.3800
     19  CAS       41.1620   26.2660  -29.2540 C.ar  485  Z99485      0.1415
     20  CAT       41.5080   28.5500  -29.4700 C.ar  485  Z99485      0.1415
     21  CAU       39.7630   26.4110  -29.2330 C.ar  485  Z99485      0.0163
     22  CAV       40.1360   28.8340  -29.4940 C.ar  485  Z99485      0.0163
     23  CAW       39.1500   27.6960  -29.8190 C.3   485  Z99485      0.0525
     24  CAX       37.6640   26.6540  -34.0370 C.3   485  Z99485      0.1054
     25  CAY       38.1230   28.4280  -32.1620 C.3   485  Z99485      0.1709
     26  CAZ       37.9690   28.1180  -33.6810 C.3   485  Z99485      0.0380
@<TRIPOS>BOND
     1     2    17   ar
     2    17     4   ar
     3    17    24    1
     4    15    24    1
     5    15    26    1
     6    24    26    1
     7    26    25    1
     8     3    18   ar
     9    25    18    1
    10    25     1    1
    11    25    14    1
    12    18     5   ar
    13    14    23    1
    14    23    22    1
    15    23    21    1
    16    16    20    1
    17    16    19    1
    18    22    20   ar
    19    22    13   ar
    20    20    11   ar
    21    19    21   ar
    22    19    10   ar
    23    21    12   ar
    24    11     7   ar
    25    13     9   ar
    26     9     7   ar
    27    10     6   ar
    28    12     8   ar
    29     6     8   ar
