@<TRIPOS>MOLECULE
3smb_LE2_A_1.pdb
 11 11 0 0 0
SMALL
GASTEIGER

@<TRIPOS>ATOM
      1  C         36.2790   14.3920    9.7440 C.3   200  LE2200      0.1567
      2  N         35.0310   14.5360    9.1180 N.3   200  LE2200     -0.2051
      3  S         37.6750   15.1420    9.1310 S.3   200  LE2200     -0.0614
      4  C1        35.1300   15.3010    7.8680 C.3   200  LE2200      0.0944
      5  C2        34.9170   14.3730    6.6700 C.3   200  LE2200      0.0452
      6  C3        33.7900   13.3870    6.8800 C.ar  200  LE2200     -0.0207
      7  C4        32.4740   13.8280    6.9660 C.ar  200  LE2200     -0.0042
      8  C5        31.4390   12.9070    7.0950 C.ar  200  LE2200     -0.0003
      9  C6        31.7160   11.5460    7.1430 C.ar  200  LE2200     -0.0000
     10  C7        33.0330   11.1040    7.0610 C.ar  200  LE2200     -0.0003
     11  C8        34.0660   12.0250    6.9300 C.ar  200  LE2200     -0.0042
@<TRIPOS>BOND
     1     5     6    1
     2     5     4    1
     3     6    11   ar
     4     6     7   ar
     5    11    10   ar
     6     7     8   ar
     7    10     9   ar
     8     8     9   ar
     9     4     2    1
    10     2     1    1
    11     3     1    1
