@<TRIPOS>MOLECULE
3smc_LE3_A_1.pdb
 10 9 0 0 0
SMALL
GASTEIGER

@<TRIPOS>ATOM
      1  C        -48.3270   34.9930   22.6050 C.3   200  LE3200      0.1567
      2  N        -47.6050   35.2680   21.4350 N.3   200  LE3200     -0.2054
      3  S        -50.0060   34.7120   22.5440 S.3   200  LE3200     -0.0614
      4  C1       -48.5040   35.3790   20.2790 C.3   200  LE3200      0.0898
      5  C2       -48.2840   34.1940   19.3460 C.3   200  LE3200      0.0198
      6  C3       -46.8310   34.1000   18.8940 C.3   200  LE3200      0.0158
      7  C4       -46.6860   33.0980   17.7550 C.3   200  LE3200      0.0918
      8  S5       -45.1330   32.1530   17.8070 S.O   200  LE3200      0.0427
      9  O5A      -44.8900   31.6930   19.2110 O.2   200  LE3200     -0.2559
     10  C5B      -43.9730   33.4390   17.4140 C.3   200  LE3200      0.1061
@<TRIPOS>BOND
     1    10     8    1
     2     7     8    1
     3     7     6    1
     4     8     9    2
     5     6     5    1
     6     5     4    1
     7     4     2    1
     8     2     1    1
     9     3     1    1
