@<TRIPOS>MOLECULE
3smi_QDR_A_1.pdb
 20 22 0 0 0
SMALL
GASTEIGER

@<TRIPOS>ATOM
      1  CAA        2.1010   11.1610  -25.5150 C.3     1  QDR1        0.0122
      2  NAB        3.6210    6.2320  -33.0120 N.pl3   1  QDR1       -0.0327
      3  OAC       -3.3440   11.5290  -27.8630 O.2     1  QDR1       -0.2085
      4  CAD       -1.2750   12.4260  -24.5730 C.2     1  QDR1       -0.0033
      5  CAE        0.0530   12.1160  -24.5280 C.2     1  QDR1       -0.0193
      6  CAF       -2.0100   12.1150  -25.6840 C.2     1  QDR1        0.0147
      7  CAG        0.2590    9.6500  -30.0330 C.3     1  QDR1        0.1984
      8  NAH        2.0020    9.1270  -33.2270 N.2     1  QDR1       -0.0637
      9  NAI        2.8810    7.9880  -31.6240 N.2     1  QDR1       -0.2714
     10  NAJ        0.4430   10.6130  -27.7730 N.2     1  QDR1       -0.3454
     11  NAK        2.4600    8.1170  -33.7370 N.2     1  QDR1       -0.0541
     12  NAL       -1.6110   10.6660  -28.8490 N.2     1  QDR1       -0.2697
     13  SAM        1.7070   10.3710  -30.7760 S.3     1  QDR1       -0.0095
     14  CAN        0.6390   11.4980  -25.6050 C.3     1  QDR1        0.0760
     15  CAO        3.0110    7.3830  -32.7940 C.1     1  QDR1        0.2151
     16  CAP       -0.2940   10.3470  -28.8230 C.1     1  QDR1        0.1378
     17  CAQ        2.2190    9.1010  -31.9160 C.1     1  QDR1        0.1488
     18  CAR       -2.1800   11.2400  -27.8260 C.1     1  QDR1        0.2162
     19  CAS       -1.4280   11.5220  -26.7490 C.2     1  QDR1        0.1219
     20  CAT       -0.1090   11.1880  -26.7270 C.2     1  QDR1        0.1366
@<TRIPOS>BOND
     1    11     8    1
     2    11    15    2
     3     8    17    2
     4     2    15    1
     5    15     9    2
     6    17     9    2
     7    17    13    1
     8    13     7    1
     9     7    16    1
    10    12    16    2
    11    12    18    2
    12    16    10    2
    13     3    18    2
    14    18    19    1
    15    10    20    2
    16    19    20    1
    17    19     6    2
    18    20    14    1
    19     6     4    1
    20    14     1    1
    21    14     5    1
    22     4     5    2
