@<TRIPOS>MOLECULE
3smj_FDR_A_1.pdb
 14 16 0 0 0
SMALL
GASTEIGER

@<TRIPOS>ATOM
      1  CAA       20.2350  -10.1850  -16.2170 C.3     1  FDR1        0.1438
      2  OAB       21.4200   -6.3190  -13.7050 O.2     1  FDR1       -0.2085
      3  CAC       22.3520   -7.2590   -9.0150 C.3     1  FDR1        0.0056
      4  CAD       22.6300   -8.7710   -9.1090 C.3     1  FDR1        0.0157
      5  CAE       22.2970   -6.8330  -10.5120 C.3     1  FDR1        0.0238
      6  NAF       20.9410  -10.3960  -13.8760 N.2     1  FDR1       -0.3358
      7  NAG       20.8370   -8.2170  -14.8400 N.2     1  FDR1       -0.2706
      8  SAH       21.8300  -10.6180  -11.2930 S.3     1  FDR1       -0.0775
      9  CAI       20.6730   -9.5880  -14.9160 C.1     1  FDR1        0.1276
     10  CAJ       22.1750   -9.1980  -10.4620 C.3     1  FDR1        0.0734
     11  CAK       21.9870   -8.0680  -11.3000 C.2     1  FDR1       -0.0192
     12  CAL       21.2640   -7.5760  -13.7340 C.1     1  FDR1        0.2164
     13  CAM       21.3620   -9.7930  -12.7660 C.2     1  FDR1        0.1806
     14  CAN       21.5480   -8.4050  -12.6050 C.2     1  FDR1        0.1246
@<TRIPOS>BOND
     1     1     9    1
     2     9     7    2
     3     9     6    2
     4     7    12    2
     5     6    13    2
     6    12     2    2
     7    12    14    1
     8    13    14    1
     9    13     8    1
    10    14    11    2
    11    11     5    1
    12    11    10    1
    13     8    10    1
    14     5     3    1
    15    10     4    1
    16     4     3    1
