@<TRIPOS>MOLECULE
3smk_CW7_A_1.pdb
 44 50 0 0 0
SMALL
GASTEIGER

@<TRIPOS>ATOM
      1  C1        27.9760  -17.9670   -4.7370 C.3   232  CW7232      0.1742
      2  O1        27.9940  -16.5900   -5.1640 O.3   232  CW7232     -0.3484
      3  CAA       21.5870  -22.8180    0.4840 C.3   232  CW7232      0.0027
      4  CAB       22.8020  -22.1450    0.8240 C.3   232  CW7232      0.0333
      5  CAC       22.9060  -21.3000    2.0380 C.3   232  CW7232      0.0051
      6  CAD       22.9190  -22.0970    3.3920 C.3   232  CW7232      0.0028
      7  CAE       21.4160  -22.0920    3.9050 C.3   232  CW7232      0.0329
      8  CAF       20.8780  -20.7440    3.4340 C.3   232  CW7232      0.1537
      9  CAG       21.5050  -20.5630    2.0430 C.3   232  CW7232      0.0309
     10  CAH       21.3930  -19.1760    1.5010 C.3   232  CW7232      0.0063
     11  CAI       21.8220  -18.7770    0.1140 C.3   232  CW7232      0.0173
     12  CAJ       22.1970  -17.3100    0.2460 C.3   232  CW7232      0.0081
     13  CAK       23.7050  -17.4400    0.7250 C.3   232  CW7232      0.0218
     14  CAL       24.1370  -18.6060   -0.0270 C.2   232  CW7232     -0.0501
     15  CAM       23.0830  -19.4030   -0.3470 C.2   232  CW7232     -0.0235
     16  CAN       23.0570  -20.6750   -1.0660 C.3   232  CW7232      0.1657
     17  CAO       23.6640  -21.8620   -0.2660 C.3   232  CW7232      0.1828
     18  OAP       23.7980  -22.9190   -1.2610 O.3   232  CW7232     -0.2202
     19  OAQ       23.8170  -20.5180   -2.2630 O.3   232  CW7232     -0.3243
     20  CAR       23.2400  -20.7640   -3.4970 C.3   232  CW7232      0.2698
     21  CAS       24.5700  -20.9510   -4.1940 C.3   232  CW7232      0.2397
     22  CAT       25.1640  -19.6750   -4.8630 C.3   232  CW7232      0.2067
     23  CAU       24.2470  -18.4080   -4.8970 C.3   232  CW7232      0.2452
     24  CAV       23.0610  -18.3540   -3.9480 C.3   232  CW7232      0.2008
     25  OAW       22.4540  -19.6470   -3.9460 O.3   232  CW7232     -0.3233
     26  CAX       22.0680  -17.2430   -4.4150 C.3   232  CW7232      0.1769
     27  OAY       21.0890  -17.7740   -5.3360 O.3   232  CW7232     -0.3483
     28  CAZ       19.9230  -16.9300   -5.4920 C.3   232  CW7232      0.1742
     29  OBA       23.8020  -18.4100   -6.2640 O.3   232  CW7232     -0.3036
     30  CBB       25.1190  -18.4570   -6.8350 C.3   232  CW7232      0.2653
     31  OBC       25.5870  -19.7400   -6.2800 O.3   232  CW7232     -0.3232
     32  CBD       25.7740  -17.2640   -6.1150 C.3   232  CW7232      0.1739
     33  OBE       25.1090  -17.2340   -4.7830 O.3   232  CW7232     -0.3276
     34  CBF       25.4300  -15.9190   -6.8300 C.3   232  CW7232      0.0376
     35  CBG       27.3170  -17.5200   -6.0550 C.3   232  CW7232      0.1743
     36  OBJ       24.6300  -22.1680   -4.8150 O.3   232  CW7232     -0.2149
     37  CBK       25.6290  -18.9790   -0.3640 C.3   232  CW7232      0.0178
     38  CBL       26.4040  -19.3400    0.9170 C.3   232  CW7232      0.0043
     39  CBM       26.3750  -17.8700   -1.1240 C.3   232  CW7232      0.0043
     40  CBN       20.6070  -18.8640   -0.8380 C.3   232  CW7232      0.0041
     41  CBO       19.3310  -20.8310    3.2710 C.3   232  CW7232      0.1724
     42  OBP       18.6110  -21.0030    4.5360 O.3   232  CW7232     -0.3485
     43  CBQ       17.2780  -21.2950    4.2600 C.3   232  CW7232      0.1742
     44  OBR       21.3530  -19.8200    4.3910 O.3   232  CW7232     -0.2231
@<TRIPOS>BOND
     1    30    31    1
     2    30    29    1
     3    30    32    1
     4    34    32    1
     5    31    22    1
     6    29    23    1
     7    32    35    1
     8    32    33    1
     9    35     2    1
    10    35     1    1
    11    28    27    1
    12    27    26    1
    13     2     1    1
    14    23    22    1
    15    23    33    1
    16    23    24    1
    17    22    21    1
    18    36    21    1
    19    26    24    1
    20    21    20    1
    21    24    25    1
    22    25    20    1
    23    20    19    1
    24    19    16    1
    25    18    17    1
    26    39    37    1
    27    16    15    1
    28    16    17    1
    29    40    11    1
    30    37    14    1
    31    37    38    1
    32    15    14    2
    33    15    11    1
    34    17     4    1
    35    14    13    1
    36    11    12    1
    37    11    10    1
    38    12    13    1
    39     3     4    1
    40     4     5    1
    41    10     9    1
    42     5     9    1
    43     5     6    1
    44     9     8    1
    45    41     8    1
    46    41    42    1
    47     6     7    1
    48     8     7    1
    49     8    44    1
    50    43    42    1
