@<TRIPOS>MOLECULE
3sml_FW1_A_1.pdb
 29 31 0 0 0
SMALL
GASTEIGER

@<TRIPOS>ATOM
      1  CAA       23.0860  -22.2890    0.5040 C.3   232  FW1232      0.0371
      2  CAB       23.2510  -21.1830    1.5960 C.3   232  FW1232      0.0206
      3  CAC       22.0370  -20.2200    1.6740 C.2   232  FW1232     -0.0462
      4  CAD       21.7550  -19.1980    0.7820 C.2   232  FW1232     -0.0289
      5  CAE       22.2660  -18.7800   -0.4540 C.3   232  FW1232      0.0633
      6  CAF       23.5770  -19.5040   -0.8980 C.2   232  FW1232     -0.0141
      7  CAG       23.4420  -20.8190   -1.6230 C.3   232  FW1232      0.2002
      8  CAH       23.9750  -21.9290   -0.7070 C.3   232  FW1232      0.1862
      9  CAI       22.7480  -17.2890   -0.3870 C.3   232  FW1232      0.1630
     10  CAJ       24.1800  -17.4700    0.1670 C.3   232  FW1232      0.0551
     11  CAK       24.6630  -18.7240   -0.5510 C.2   232  FW1232     -0.0435
     12  CAL       23.3850  -21.7520    3.0310 C.3   232  FW1232      0.0045
     13  CAM       21.9370  -21.8070    3.5560 C.3   232  FW1232      0.0069
     14  CAN       21.3170  -20.5340    2.9900 C.3   232  FW1232      0.0476
     15  CAO       21.0930  -18.9860   -1.4760 C.3   232  FW1232      0.0110
     16  CAP       19.8150  -20.6670    2.7160 C.3   232  FW1232      0.1462
     17  CAQ       21.5910  -22.6320    0.0200 C.3   232  FW1232      0.0030
     18  OAR       24.0840  -23.0690   -1.5710 O.3   232  FW1232     -0.2201
     19  OAS       19.1910  -20.8970    4.0180 O.3   232  FW1232     -0.3508
     20  CAT       26.1370  -19.0650   -0.6920 C.3   232  FW1232      0.0617
     21  CAU       26.7650  -18.8840    0.6900 C.3   232  FW1232      0.0082
     22  CAV       26.8070  -18.0260   -1.6720 C.3   232  FW1232      0.2123
     23  OAW       24.2900  -20.6450   -2.7900 O.3   232  FW1232     -0.2159
     24  OAX       26.3550  -18.2200   -3.0380 O.3   232  FW1232     -0.4481
     25  OAY       21.9320  -16.4420    0.4410 O.3   232  FW1232     -0.2221
     26  CAZ       17.7470  -21.1780    3.9000 C.3   232  FW1232      0.1741
     27  CBA       27.0510  -19.1780   -3.8210 C.2   232  FW1232      0.3176
     28  CBB       27.9550  -18.7260   -4.9850 C.3   232  FW1232      0.1212
     29  OBC       26.9260  -20.4050   -3.6420 O.2   232  FW1232     -0.2501
@<TRIPOS>BOND
     1    28    27    1
     2    27    29    2
     3    27    24    1
     4    24    22    1
     5    23     7    1
     6    22    20    1
     7     7     6    1
     8     7     8    1
     9    18     8    1
    10    15     5    1
    11     6    11    2
    12     6     5    1
    13     8     1    1
    14    20    11    1
    15    20    21    1
    16    11    10    1
    17     5     9    1
    18     5     4    1
    19     9    10    1
    20     9    25    1
    21    17     1    1
    22     1     2    1
    23     4     3    2
    24     2     3    1
    25     2    12    1
    26     3    14    1
    27    16    14    1
    28    16    19    1
    29    14    13    1
    30    12    13    1
    31    26    19    1
