@<TRIPOS>MOLECULE
3sml_III_P_1.pdb
 49 48 0 0 0
SMALL
GASTEIGER

@<TRIPOS>ATOM
      1  N         30.5920   -7.5990   13.2470 N.3   370  ARG370     -0.1182
      2  CA        29.3240   -8.3300   13.5750 C.3   370  ARG370      0.1910
      3  C         29.4340   -9.8350   13.2220 C.2   370  ARG370      0.2634
      4  O         29.9960  -10.2120   12.1750 O.2   370  ARG370     -0.2714
      5  CB        28.1040   -7.6420   12.9060 C.2   370  ARG370      0.0007
      6  CG        26.8550   -8.5460   12.6310 C.2   370  ARG370      0.0176
      7  CD        25.4910   -7.7510   12.3510 C.3   370  ARG370      0.2464
      8  NE        24.8340   -7.5730   13.6340 N.pl3 370  ARG370     -0.0815
      9  CZ        23.7320   -8.1490   14.0760 C.cat 370  ARG370      0.5349
     10  NH1       22.9180   -8.9090   13.3310 N.pl3 370  ARG370      0.1354
     11  NH2       23.4170   -7.8790   15.3100 N.pl3 370  ARG370      0.1354
     12  N         28.9080  -10.7050   14.0850 N.am  371  ARG371     -0.1963
     13  CA        28.9530  -12.1590   13.8260 C.3   371  ARG371      0.1729
     14  C         28.2500  -12.4610   12.4880 C.2   371  ARG371      0.2616
     15  O         27.3830  -11.6860   12.0660 O.2   371  ARG371     -0.2715
     16  CB        28.3390  -12.9570   14.9870 C.3   371  ARG371      0.0348
     17  CG        26.7830  -13.0240   15.0160 C.3   371  ARG371      0.0492
     18  CD        26.1230  -11.6050   15.0960 C.3   371  ARG371      0.2205
     19  NE        24.6560  -11.7700   15.1340 N.pl3 371  ARG371     -0.0865
     20  CZ        23.9140  -12.0160   14.0400 C.cat 371  ARG371      0.5346
     21  NH1       24.4980  -12.0860   12.8500 N.pl3 371  ARG371      0.1354
     22  NH2       22.5800  -12.1850   14.1120 N.pl3 371  ARG371      0.1354
     23  N         28.6490  -13.5610   11.8450 N.am  372  LYS372     -0.1963
     24  CA        28.1710  -13.9140   10.5050 C.3   372  LYS372      0.1728
     25  C         26.9610  -14.8170   10.6380 C.2   372  LYS372      0.2617
     26  O         26.9240  -15.7330   11.4820 O.2   372  LYS372     -0.2715
     27  CB        29.2240  -14.6950    9.7400 C.3   372  LYS372      0.0311
     28  CG        30.5580  -13.9440    9.5740 C.3   372  LYS372      0.0038
     29  CD        30.2860  -12.5750    8.9260 C.3   372  LYS372      0.0206
     30  CE        31.4820  -11.5930    9.1230 C.3   372  LYS372      0.1093
     31  NZ        32.4580  -12.0390    8.1640 N.3   372  LYS372     -0.1314
     32  N         25.9710  -14.5570    9.7870 N.am  373  SER373     -0.1937
     33  CA        24.9460  -15.5590    9.5760 C.3   373  SER373      0.2027
     34  CB        23.6410  -15.1290   10.2600 C.3   373  SER373      0.1847
     35  OG        23.2690  -13.8720    9.7740 O.3   373  SER373     -0.2679
     36  C         24.7620  -15.6670    8.0800 C.2   373  SER373      0.2642
     37  O         25.3880  -14.9070    7.3110 O.2   373  SER373     -0.2714
     38  P         21.7490  -13.4020   10.1840 P.3   373  SER373      0.5327
     39  O1P       21.7210  -13.1400   11.7290 O.3   373  SER373     -0.1145
     40  O2P       21.5600  -12.0760    9.3360 O.2   373  SER373     -0.2224
     41  O3P       20.7240  -14.5800    9.7240 O.3   373  SER373     -0.1145
     42  N         23.9350  -16.5960    7.6240 N.am  374  VAL374     -0.1941
     43  CA        23.8270  -16.8020    6.1520 C.3   374  VAL374      0.1977
     44  C         22.4580  -17.2680    5.7830 C.2   374  VAL374      0.3842
     45  O         21.7480  -17.8090    6.6470 O.co2 374  VAL374     -0.2437
     46  CB        24.8620  -17.8720    5.6310 C.3   374  VAL374      0.0311
     47  CG1       24.4120  -19.2740    6.0300 C.3   374  VAL374      0.0023
     48  CG2       25.0580  -17.7860    4.1150 C.3   374  VAL374      0.0023
     49  OXT       22.0380  -17.0510    4.6360 O.co2 374  VAL374     -0.2437
@<TRIPOS>BOND
     1    48    46    1
     2    49    44   ar
     3    46    47    1
     4    46    43    1
     5    44    43    1
     6    44    45   ar
     7    43    42    1
     8    37    36    2
     9    42    36   am
    10    36    33    1
    11    31    30    1
    12    29    30    1
    13    29    28    1
    14    40    38    2
    15    28    27    1
    16    33    32    1
    17    33    34    1
    18    41    38    1
    19    27    24    1
    20    35    38    1
    21    35    34    1
    22    32    25   am
    23    38    39    1
    24    24    25    1
    25    24    23    1
    26    25    26    2
    27    23    14   am
    28    15    14    2
    29     4     3    2
    30     7     6    1
    31     7     8    1
    32    14    13    1
    33     6     5    2
    34    21    20    1
    35     5     2    1
    36     3     2    1
    37     3    12   am
    38     1     2    1
    39    10     9    1
    40     8     9    2
    41    13    12    1
    42    13    16    1
    43    20    22    1
    44    20    19    2
    45     9    11    1
    46    16    17    1
    47    17    18    1
    48    18    19    1
