@<TRIPOS>MOLECULE
3smm_FJA_A_1.pdb
 25 27 0 0 0
SMALL
GASTEIGER

@<TRIPOS>ATOM
      1  CAA       23.0820  -22.1350    0.4740 C.3   232  FJA232      0.0371
      2  CAB       23.2000  -20.9960    1.5660 C.3   232  FJA232      0.0206
      3  CAC       21.9500  -20.0980    1.6600 C.2   232  FJA232     -0.0462
      4  CAD       21.5900  -19.0760    0.7740 C.2   232  FJA232     -0.0289
      5  CAE       22.0870  -18.6140   -0.4620 C.3   232  FJA232      0.0633
      6  CAF       23.3980  -19.3100   -0.9060 C.2   232  FJA232     -0.0142
      7  CAG       23.3340  -20.6830   -1.6710 C.3   232  FJA232      0.2002
      8  CAH       23.9370  -21.7630   -0.7840 C.3   232  FJA232      0.1862
      9  CAI       23.3940  -21.5980    2.9600 C.3   232  FJA232      0.0045
     10  CAJ       21.9450  -21.6720    3.5520 C.3   232  FJA232      0.0069
     11  CAK       21.2420  -20.4200    2.9900 C.3   232  FJA232      0.0476
     12  CAL       22.5640  -17.1120   -0.3730 C.3   232  FJA232      0.1630
     13  CAM       23.9470  -17.2020    0.2380 C.3   232  FJA232      0.0550
     14  CAN       24.4360  -18.4670   -0.4640 C.2   232  FJA232     -0.0471
     15  CAO       20.8620  -18.7500   -1.4600 C.3   232  FJA232      0.0110
     16  CAP       19.7470  -20.6480    2.7180 C.3   232  FJA232      0.1462
     17  CAQ       21.6780  -22.6000    0.0570 C.3   232  FJA232      0.0030
     18  OAR       24.0150  -22.8920   -1.6340 O.3   232  FJA232     -0.2201
     19  OAS       24.1850  -20.5350   -2.8220 O.3   232  FJA232     -0.2159
     20  OAT       19.0330  -20.7930    4.0070 O.3   232  FJA232     -0.3508
     21  CAU       25.9490  -18.4200   -0.6150 C.3   232  FJA232      0.0179
     22  CAV       26.4480  -18.3750   -2.0610 C.3   232  FJA232      0.0043
     23  CAW       26.7150  -19.2350    0.3860 C.3   232  FJA232      0.0043
     24  OAX       21.7380  -16.3140    0.4590 O.3   232  FJA232     -0.2221
     25  CAY       17.6910  -21.2360    3.7670 C.3   232  FJA232      0.1741
@<TRIPOS>BOND
     1    19     7    1
     2    22    21    1
     3     7     6    1
     4     7     8    1
     5    18     8    1
     6    15     5    1
     7     6    14    2
     8     6     5    1
     9     8     1    1
    10    21    14    1
    11    21    23    1
    12    14    13    1
    13     5    12    1
    14     5     4    1
    15    12    13    1
    16    12    24    1
    17    17     1    1
    18     1     2    1
    19     4     3    2
    20     2     3    1
    21     2     9    1
    22     3    11    1
    23    16    11    1
    24    16    20    1
    25     9    10    1
    26    11    10    1
    27    25    20    1
