@<TRIPOS>MOLECULE
3smn_FC7_A_1.pdb
 41 46 0 0 0
SMALL
GASTEIGER

@<TRIPOS>ATOM
      1  C1        17.8070  -21.3510    4.0510 C.3   232  FC7232      0.2695
      2  O1        17.0010  -21.2210    2.8510 O.3   232  FC7232     -0.3285
      3  C2        17.0050  -21.8370    5.2490 C.3   232  FC7232      0.2404
      4  O2        16.3500  -23.0340    4.8880 O.3   232  FC7232     -0.2149
      5  C3        15.9610  -20.7870    5.6280 C.3   232  FC7232      0.2167
      6  O3        15.2020  -21.2260    6.7610 O.3   232  FC7232     -0.2175
      7  C4        16.6320  -19.4140    5.9460 C.3   232  FC7232      0.1801
      8  O4        15.6370  -18.3940    6.2300 O.3   232  FC7232     -0.3315
      9  C5        17.4710  -18.9920    4.7470 C.3   232  FC7232      0.1770
     10  O5        18.3680  -20.0440    4.3450 O.3   232  FC7232     -0.3259
     11  C6        18.2340  -17.7440    5.1370 C.3   232  FC7232      0.1767
     12  O6        17.2360  -16.6950    5.2780 O.3   232  FC7232     -0.3316
     13  OAA       17.0400  -23.3240    1.4150 O.3   232  FC7232     -0.2205
     14  CAB       17.0410  -22.1580    0.6510 C.3   232  FC7232      0.1789
     15  CAC       17.8240  -22.3940   -0.6470 C.3   232  FC7232      0.0329
     16  CAD       19.2860  -22.9030   -0.3020 C.3   232  FC7232      0.0027
     17  CAE       17.7620  -21.1460   -1.5460 C.3   232  FC7232      0.0026
     18  CAF       17.5790  -21.5640   -3.0320 C.3   232  FC7232      0.0002
     19  CAG       19.0400  -21.6060   -3.5840 C.3   232  FC7232      0.0025
     20  CAH       19.7260  -20.4180   -2.8880 C.3   232  FC7232      0.0297
     21  CAI       21.2550  -20.5790   -2.7480 C.3   232  FC7232      0.1422
     22  OAJ       21.8980  -20.7430   -4.0350 O.3   232  FC7232     -0.3511
     23  CAK       23.3100  -21.0650   -3.8840 C.3   232  FC7232      0.1741
     24  CAL       19.1410  -20.4350   -1.4860 C.3   232  FC7232      0.0026
     25  CAM       19.2470  -19.1280   -0.7840 C.3   232  FC7232      0.0025
     26  CAN       18.9560  -18.9700    0.7250 C.3   232  FC7232      0.0274
     27  CAO       20.1810  -19.0830    1.6710 C.3   232  FC7232      0.0025
     28  CAP       18.4640  -17.4650    0.7220 C.3   232  FC7232      0.1152
     29  OAQ       18.9810  -16.6390   -0.3260 O.3   232  FC7232     -0.3563
     30  CAR       17.9930  -16.5700   -1.4580 C.3   232  FC7232      0.1421
     31  CAS       16.6830  -17.2000   -1.0000 C.3   232  FC7232      0.0345
     32  CAT       16.9420  -17.5050    0.4730 C.3   232  FC7232      0.0298
     33  CAU       16.5260  -18.9310    0.6670 C.3   232  FC7232      0.0049
     34  CAV       15.1010  -18.8850    1.1850 C.3   232  FC7232      0.0002
     35  CAW       14.2280  -19.4960    0.0630 C.3   232  FC7232      0.0000
     36  CAX       14.8370  -19.4760    2.5650 C.3   232  FC7232      0.0000
     37  CAY       17.6830  -19.6110    1.3990 C.3   232  FC7232      0.0322
     38  CAZ       17.7410  -21.1450    1.5880 C.3   232  FC7232      0.1480
     39  CBG       16.0340  -16.9520    6.0570 C.3   232  FC7232      0.1875
     40  CBH       14.8910  -16.2110    5.3300 C.3   232  FC7232      0.0612
     41  CBI       16.2640  -16.3900    7.4630 C.3   232  FC7232      0.0612
@<TRIPOS>BOND
     1    22    23    1
     2    22    21    1
     3    19    18    1
     4    19    20    1
     5    18    17    1
     6    20    21    1
     7    20    24    1
     8    17    24    1
     9    17    15    1
    10    24    25    1
    11    30    31    1
    12    30    29    1
    13    31    32    1
    14    25    26    1
    15    15    16    1
    16    15    14    1
    17    29    28    1
    18    35    34    1
    19    32    33    1
    20    32    28    1
    21    14    13    1
    22    14    38    1
    23    33    34    1
    24    33    37    1
    25    28    26    1
    26    26    37    1
    27    26    27    1
    28    34    36    1
    29    37    38    1
    30    38     2    1
    31     2     1    1
    32     1    10    1
    33     1     3    1
    34    10     9    1
    35     9    11    1
    36     9     7    1
    37     4     3    1
    38    11    12    1
    39     3     5    1
    40    12    39    1
    41    40    39    1
    42     5     7    1
    43     5     6    1
    44     7     8    1
    45    39     8    1
    46    39    41    1
