@<TRIPOS>MOLECULE
3smo_FJA_A_1.pdb
 25 27 0 0 0
SMALL
GASTEIGER

@<TRIPOS>ATOM
      1  CAA      -17.8440  -22.0590    0.4510 C.3   232  FJA232      0.0334
      2  CAB      -17.7070  -20.9870    1.5650 C.3   232  FJA232      0.0026
      3  CAC      -19.0310  -20.2380    1.6030 C.3   232  FJA232      0.0029
      4  CAD      -19.3380  -19.0120    0.8690 C.3   232  FJA232      0.0063
      5  CAE      -18.8420  -18.6680   -0.4920 C.3   232  FJA232      0.0454
      6  CAF      -17.5150  -19.3020   -0.9340 C.2   232  FJA232     -0.0180
      7  CAG      -17.5420  -20.6200   -1.6700 C.3   232  FJA232      0.1999
      8  CAH      -16.9680  -21.7270   -0.7630 C.3   232  FJA232      0.1859
      9  CAI      -17.6090  -21.5920    2.9860 C.3   232  FJA232      0.0002
     10  CAJ      -19.0320  -21.6260    3.5920 C.3   232  FJA232      0.0025
     11  CAK      -19.6570  -20.3980    2.9460 C.3   232  FJA232      0.0297
     12  CAL      -18.3650  -17.1990   -0.3610 C.3   232  FJA232      0.1593
     13  CAM      -16.8950  -17.3010    0.1400 C.3   232  FJA232      0.0546
     14  CAN      -16.4720  -18.5500   -0.5780 C.2   232  FJA232     -0.0474
     15  CAO      -20.0150  -18.8080   -1.5020 C.3   232  FJA232      0.0067
     16  CAP      -21.1550  -20.6120    2.7060 C.3   232  FJA232      0.1422
     17  CAQ      -19.3320  -22.5410    0.0800 C.3   232  FJA232      0.0027
     18  OAR      -16.8580  -22.8990   -1.6360 O.3   232  FJA232     -0.2201
     19  OAS      -16.7910  -20.4180   -2.8850 O.3   232  FJA232     -0.2159
     20  OAT      -21.7150  -20.8590    4.0090 O.3   232  FJA232     -0.3511
     21  CAU      -15.0080  -18.8180   -0.8180 C.3   232  FJA232      0.0179
     22  CAV      -14.3210  -18.6950    0.5100 C.3   232  FJA232      0.0043
     23  CAW      -14.4820  -17.7580   -1.8220 C.3   232  FJA232      0.0043
     24  OAX      -19.1530  -16.3090    0.4320 O.3   232  FJA232     -0.2225
     25  CAY      -23.1640  -21.0160    3.9380 C.3   232  FJA232      0.1741
@<TRIPOS>BOND
     1    19     7    1
     2    23    21    1
     3     7     6    1
     4     7     8    1
     5    18     8    1
     6    15     5    1
     7     6    14    2
     8     6     5    1
     9    21    14    1
    10    21    22    1
    11     8     1    1
    12    14    13    1
    13     5    12    1
    14     5     4    1
    15    12    13    1
    16    12    24    1
    17    17     1    1
    18     1     2    1
    19     4     3    1
    20     2     3    1
    21     2     9    1
    22     3    11    1
    23    16    11    1
    24    16    20    1
    25    11    10    1
    26     9    10    1
    27    25    20    1
