@<TRIPOS>MOLECULE
3smq_TDU_A_1.pdb
 21 23 0 0 0
SMALL
GASTEIGER

@<TRIPOS>ATOM
      1  OAA        3.0980   -4.5800   12.0230 O.2     1  TDU1       -0.2488
      2  CAB        5.0630   -6.2080    6.9110 C.2     1  TDU1       -0.0346
      3  CAC       -0.8350   -4.8290   13.5660 C.ar    1  TDU1        0.0183
      4  CAD       -1.2720   -5.2010   14.8350 C.ar    1  TDU1        0.0228
      5  CAE        1.3850   -5.5820   14.0960 C.ar    1  TDU1        0.0262
      6  CAF        6.2640   -6.4890    6.2600 C.3     1  TDU1        0.0254
      7  CAG        7.3630   -5.4440    6.5670 C.3     1  TDU1        0.0050
      8  CAH        6.8700   -3.9940    6.7030 C.3     1  TDU1        0.0047
      9  CAI        3.2780   -3.9240    9.3750 C.3     1  TDU1        0.1212
     10  CAJ        5.7460   -3.8830    7.7470 C.3     1  TDU1        0.0218
     11  CAK        3.3460   -4.9480    8.2400 C.3     1  TDU1        0.0452
     12  NAL        0.3250   -6.6670   17.6510 N.ar    1  TDU1       -0.1094
     13  NAM       -0.6260   -6.1840   17.0100 N.ar    1  TDU1       -0.1405
     14  NAN        2.0290   -4.1700   10.1110 N.am    1  TDU1       -0.1866
     15  NAO        0.8270   -4.6470   11.9500 N.am    1  TDU1       -0.1610
     16  SAP        1.6630   -6.6310   16.7100 S.2     1  TDU1        0.0373
     17  CAQ        4.7380   -5.0380    7.6110 C.2     1  TDU1       -0.0467
     18  CAR        2.0390   -4.4890   11.3990 C.2     1  TDU1        0.3435
     19  CAS        0.4960   -5.0080   13.1920 C.ar    1  TDU1        0.0756
     20  CAT       -0.3900   -5.7680   15.7440 C.ar    1  TDU1        0.1109
     21  CAU        0.9350   -5.9420   15.3610 C.ar    1  TDU1        0.0697
@<TRIPOS>BOND
     1     6     7    1
     2     6     2    1
     3     7     8    1
     4     8    10    1
     5     2    17    2
     6    17    10    1
     7    17    11    1
     8    11     9    1
     9     9    14    1
    10    14    18   am
    11    18    15    1
    12    18     1    2
    13    15    19    2
    14    19     3   ar
    15    19     5   ar
    16     3     4   ar
    17     5    21   ar
    18     4    20   ar
    19    21    20    1
    20    21    16   ar
    21    20    13   ar
    22    16    12   ar
    23    13    12   ar
