@<TRIPOS>MOLECULE
3smr_NP7_A_1.pdb
 26 28 0 0 0
SMALL
GASTEIGER

@<TRIPOS>ATOM
      1  CAA      123.3430   44.7610   29.2500 C.3   1000  NP71000     0.0897
      2  OAB      125.5860   42.5790   22.5030 O.2   1000  NP71000    -0.2680
      3  OAC      127.4000   48.4610   20.1920 O.2   1000  NP71000    -0.1261
      4  OAD      127.2170   46.1280   19.5170 O.2   1000  NP71000    -0.1261
      5 CLAE      124.4240   40.3200   24.1830 Cl    1000  NP71000    -0.0821
      6  CAF      120.9190   40.5210   22.2850 C.ar  1000  NP71000     0.0009
      7  CAG      120.9990   41.7520   21.6370 C.ar  1000  NP71000     0.0002
      8  CAH      121.9870   40.0890   23.0670 C.ar  1000  NP71000     0.0115
      9  CAI      122.1390   42.5490   21.7700 C.ar  1000  NP71000     0.0054
     10  CAJ      126.7520   47.5210   22.8020 C.ar  1000  NP71000     0.0254
     11  CAK      126.1930   47.1600   24.0260 C.ar  1000  NP71000     0.0175
     12  CAL      125.5810   45.7080   21.7540 C.ar  1000  NP71000     0.0419
     13  CAM      123.5660   46.3440   27.5020 C.3   1000  NP71000     0.0938
     14  CAN      124.2250   44.0390   27.1440 C.3   1000  NP71000     0.0938
     15  CAO      124.4440   46.8770   26.3650 C.3   1000  NP71000     0.1082
     16  CAP      125.1010   44.3940   25.9390 C.3   1000  NP71000     0.1082
     17  NAQ      124.1720   44.2970   22.9540 N.am  1000  NP71000    -0.1741
     18  CAR      124.4510   43.0250   22.6760 C.2   1000  NP71000     0.2698
     19  CAS      123.1240   40.8880   23.2020 C.ar  1000  NP71000     0.0621
     20  CAT      126.4470   46.7960   21.6590 C.ar  1000  NP71000     0.1443
     21  CAU      125.0270   45.3270   22.9810 C.ar  1000  NP71000     0.0886
     22  CAV      123.2070   42.1220   22.5620 C.ar  1000  NP71000     0.0659
     23  CAW      125.3160   46.0840   24.1310 C.ar  1000  NP71000     0.0636
     24  NAX      124.1890   45.1540   28.1120 N.3   1000  NP71000    -0.2686
     25  NAY      124.8420   45.7810   25.4310 N.pl3 1000  NP71000    -0.3036
     26  NAZ      126.9930   47.1280   20.4810 N.pl3 1000  NP71000     0.0577
@<TRIPOS>BOND
     1     4    26    2
     2     3    26    2
     3    26    20    1
     4     7     9   ar
     5     7     6   ar
     6    20    12   ar
     7    20    10   ar
     8    12    21   ar
     9     9    22   ar
    10     6     8   ar
    11     2    18    2
    12    22    18    1
    13    22    19   ar
    14    18    17   am
    15    10    11   ar
    16    17    21    1
    17    21    23   ar
    18     8    19   ar
    19    19     5    1
    20    11    23   ar
    21    23    25    1
    22    25    16    1
    23    25    15    1
    24    16    14    1
    25    15    13    1
    26    14    24    1
    27    13    24    1
    28    24     1    1
