@<TRIPOS>MOLECULE
3sms_ADP_A_1.pdb
 27 29 0 0 0
SMALL
GASTEIGER

@<TRIPOS>ATOM
      1  PB        27.3060   13.5930    0.3240 P.3   373  ADP373      0.5373
      2  O1B       25.9280   13.9510    0.8370 O.3   373  ADP373     -0.1143
      3  O2B       27.3210   13.2610   -1.1500 O.2   373  ADP373     -0.2221
      4  O3B       28.4220   14.5240    0.7520 O.3   373  ADP373     -0.1143
      5  PA        27.4250   11.5110    2.4350 P.3   373  ADP373      0.2231
      6  O1A       26.6460   12.3720    3.4050 O.3   373  ADP373     -0.4370
      7  O2A       28.7360   10.9160    2.8380 O.2   373  ADP373     -0.5169
      8  O3A       27.6370   12.1520    0.9830 O.3   373  ADP373     -0.2261
      9  O5'       26.5270   10.2170    2.0870 O.3   373  ADP373     -0.3111
     10  C5'       25.2610   10.2770    1.4280 C.3   373  ADP373      0.1813
     11  C4'       24.7110    8.8500    1.2940 C.3   373  ADP373      0.1821
     12  O4'       24.4070    8.3120    2.5600 O.3   373  ADP373     -0.3135
     13  C3'       23.4060    8.7250    0.5440 C.3   373  ADP373      0.2184
     14  O3'       23.6260    8.6380   -0.8500 O.3   373  ADP373     -0.2174
     15  C2'       22.7690    7.4750    1.1300 C.3   373  ADP373      0.2570
     16  O2'       23.1760    6.3120    0.4140 O.3   373  ADP373     -0.2130
     17  C1'       23.3190    7.3850    2.5370 C.3   373  ADP373      0.3186
     18  N9        22.4420    7.7820    3.6600 N.pl3 373  ADP373     -0.1439
     19  C8        22.5840    7.2970    4.9110 C.3   373  ADP373      0.3377
     20  N7        21.7100    7.8550    5.7670 N.2   373  ADP373     -0.2095
     21  C5        20.9990    8.7340    5.0610 C.2   373  ADP373      0.2526
     22  C6        19.9200    9.6730    5.3830 C.2   373  ADP373      0.4393
     23  N6        19.4380    9.7070    6.6370 N.pl3 373  ADP373      0.2180
     24  N1        19.4150   10.4290    4.3940 N.2   373  ADP373      0.0021
     25  C2        19.9010   10.3680    3.1330 C.3   373  ADP373      0.5254
     26  N3        20.9000    9.5310    2.7700 N.2   373  ADP373     -0.0055
     27  C4        21.4740    8.6990    3.6750 C.2   373  ADP373      0.3518
@<TRIPOS>BOND
     1     3     1    2
     2    14    13    1
     3     1     4    1
     4     1     2    1
     5     1     8    1
     6    16    15    1
     7    13    15    1
     8    13    11    1
     9     8     5    1
    10    15    17    1
    11    11    10    1
    12    11    12    1
    13    10     9    1
    14     9     5    1
    15     5     7    2
    16     5     6    1
    17    17    12    1
    18    17    18    1
    19    26    25    1
    20    26    27    2
    21    25    24    1
    22    18    27    1
    23    18    19    1
    24    27    21    1
    25    24    22    2
    26    19    20    1
    27    21    22    1
    28    21    20    2
    29    22    23    1
