@<TRIPOS>MOLECULE
3sms_RNH_A_1.pdb
 22 21 0 0 0
SMALL
GASTEIGER

@<TRIPOS>ATOM
      1  CAA       36.0250    8.3250  -16.5730 C.3   374  RNH374      0.0000
      2  CAB       33.5170   14.9290   -5.3430 C.3   374  RNH374      0.0057
      3  CAC       31.6370   15.1860   -6.9570 C.3   374  RNH374      0.0057
      4  OAD       34.6410   10.5240  -10.2850 O.2   374  RNH374     -0.2733
      5  OAE       33.7320   12.1260   -6.5870 O.2   374  RNH374     -0.2706
      6  OAG       30.3820   12.8530   -5.6210 O.3   374  RNH374     -0.2131
      7  CAJ       34.8610    9.0140  -15.8410 C.3   374  RNH374      0.0001
      8  CAK       35.3490    9.9220  -14.7010 C.3   374  RNH374      0.0018
      9  CAL       34.1860   10.6810  -13.9770 C.3   374  RNH374      0.0234
     10  CAM       33.5470    9.8210  -12.8610 C.3   374  RNH374      0.1151
     11  CAN       32.2060   10.8400   -8.5260 C.3   374  RNH374      0.1248
     12  CAO       32.6740   11.7220   -9.6690 C.3   374  RNH374      0.1102
     13  CAP       31.1640   15.2920   -4.5110 C.3   374  RNH374      0.1849
     14  NAQ       32.9100   10.6370  -11.8000 N.am  374  RNH374     -0.2054
     15  NAR       31.6880   11.7060   -7.4790 N.am  374  RNH374     -0.2028
     16  OAS       31.2260   14.5960   -3.1890 O.3   374  RNH374     -0.2203
     17  CAT       33.5170   10.9120  -10.6310 C.2   374  RNH374      0.2432
     18  CAU       32.5080   12.2850   -6.5930 C.2   374  RNH374      0.2719
     19  CAV       31.7990   13.1040   -5.5140 C.3   374  RNH374      0.2313
     20  CAW       32.0430   14.6210   -5.5960 C.3   374  RNH374      0.0674
     21  CAY       35.5120    7.4830  -17.7510 C.3   374  RNH374      0.0000
     22  CAZ       36.6830    6.9760  -18.6210 C.3   374  RNH374      0.0000
@<TRIPOS>BOND
     1    22    21    1
     2    21     1    1
     3     1     7    1
     4     7     8    1
     5     8     9    1
     6     9    10    1
     7    10    14    1
     8    14    17   am
     9    17     4    2
    10    17    12    1
    11    12    11    1
    12    11    15    1
    13    15    18   am
    14     3    20    1
    15    18     5    2
    16    18    19    1
    17     6    19    1
    18    20    19    1
    19    20     2    1
    20    20    13    1
    21    13    16    1
