@<TRIPOS>MOLECULE
3smt_SAM_A_1.pdb
 27 29 0 0 0
SMALL
GASTEIGER

@<TRIPOS>ATOM
      1  N         37.3340    6.1620   -2.8370 N.3   1000  SAM1000    -0.1208
      2  CA        36.0050    6.1830   -2.1450 C.3   1000  SAM1000     0.1952
      3  C         34.8750    6.4320   -3.1240 C.2   1000  SAM1000     0.3819
      4  O         35.0830    6.4120   -4.3190 O.co2 1000  SAM1000    -0.2441
      5  OXT       33.7070    6.6910   -2.7270 O.co2 1000  SAM1000    -0.2441
      6  CB        36.0660    7.4360   -1.1850 C.3   1000  SAM1000     0.0414
      7  CG        36.6960    7.0960    0.1850 C.3   1000  SAM1000     0.0503
      8  SD        35.5720    5.9630    1.0670 S.3   1000  SAM1000    -0.1761
      9  CE        35.5530    6.4380    2.8010 C.3   1000  SAM1000     0.0590
     10  C5'       36.6200    4.4890    1.2970 C.3   1000  SAM1000     0.0806
     11  C4'       36.9930    3.6210    0.0900 C.3   1000  SAM1000     0.1622
     12  O4'       38.0560    4.2360   -0.6600 O.3   1000  SAM1000    -0.3153
     13  C3'       37.6530    2.3270    0.5880 C.3   1000  SAM1000     0.2168
     14  O3'       36.6300    1.3570    0.8220 O.3   1000  SAM1000    -0.2175
     15  C2'       38.5190    1.8990   -0.6290 C.3   1000  SAM1000     0.2569
     16  O2'       37.6640    1.3990   -1.7370 O.3   1000  SAM1000    -0.2130
     17  C1'       39.0980    3.3220   -1.0100 C.3   1000  SAM1000     0.3185
     18  N9        40.3420    3.7860   -0.4330 N.pl3 1000  SAM1000    -0.1439
     19  C8        40.5610    4.7640    0.5410 C.3   1000  SAM1000     0.3377
     20  N7        41.8440    4.9290    0.6660 N.2   1000  SAM1000    -0.2095
     21  C5        42.5010    4.0760   -0.1520 C.2   1000  SAM1000     0.2526
     22  C6        43.8810    3.7650   -0.4330 C.2   1000  SAM1000     0.4393
     23  N6        44.9000    4.4470    0.1780 N.pl3 1000  SAM1000     0.2180
     24  N1        44.1480    2.8680   -1.4330 N.2   1000  SAM1000     0.0021
     25  C2        43.1790    2.2570   -2.0970 C.3   1000  SAM1000     0.5254
     26  N3        41.9060    2.4600   -1.8040 N.2   1000  SAM1000    -0.0055
     27  C4        41.5510    3.3860   -0.8860 C.2   1000  SAM1000     0.3518
@<TRIPOS>BOND
     1     4     3   ar
     2     3     5   ar
     3     3     2    1
     4     1     2    1
     5     2     6    1
     6    25    26    1
     7    25    24    1
     8    26    27    2
     9    16    15    1
    10    24    22    2
    11     6     7    1
    12    17    12    1
    13    17    15    1
    14    17    18    1
    15    27    18    1
    16    27    21    1
    17    12    11    1
    18    15    13    1
    19    18    19    1
    20    22    21    1
    21    22    23    1
    22    21    20    2
    23    11    13    1
    24    11    10    1
    25     7     8    1
    26    19    20    1
    27    13    14    1
    28     8    10    1
    29     8     9    1
