@<TRIPOS>MOLECULE
3sn4_AKG_A_1.pdb
 10 9 0 0 0
SMALL
GASTEIGER

@<TRIPOS>ATOM
      1  C1        24.1340   46.3490   18.1410 C.2   500  AKG500      0.4219
      2  O1        23.2020   45.5150   18.3320 O.co2 500  AKG500     -0.2373
      3  O2        25.3460   46.0230   18.3450 O.co2 500  AKG500     -0.2373
      4  C2        23.8310   47.7170   17.6390 C.2   500  AKG500      0.2526
      5  O5        24.7080   48.5770   17.6060 O.2   500  AKG500     -0.2843
      6  C3        22.4910   48.1190   17.0690 C.3   500  AKG500      0.0881
      7  C4        21.4710   48.8290   17.9780 C.3   500  AKG500      0.1224
      8  C5        21.8400   50.0670   18.7780 C.2   500  AKG500      0.3653
      9  O3        22.5310   49.8960   19.8110 O.co2 500  AKG500     -0.2456
     10  O4        21.3940   51.1980   18.4230 O.co2 500  AKG500     -0.2456
@<TRIPOS>BOND
     1     6     4    1
     2     6     7    1
     3     5     4    2
     4     4     1    1
     5     7     8    1
     6     1     2   ar
     7     1     3   ar
     8    10     8   ar
     9     8     9   ar
