@<TRIPOS>MOLECULE
3sn5_HEM_A_1.pdb
 43 50 0 0 0
SMALL
GASTEIGER

@<TRIPOS>ATOM
      1  CHA       19.1550    3.7740  -26.5870 C.2   601  HEM601      0.0000
      2  CHB       21.3210    0.6310  -23.6140 C.2   601  HEM601      0.0000
      3  CHC       19.0720    2.6770  -19.9090 C.2   601  HEM601      0.0000
      4  CHD       16.8990    5.8130  -22.8300 C.2   601  HEM601      0.0000
      5  C1A       19.9630    2.7620  -26.0790 C.ar  601  HEM601      0.0000
      6  C2A       20.8200    1.9130  -26.8600 C.ar  601  HEM601      0.0000
      7  C3A       21.4530    1.0690  -26.0080 C.ar  601  HEM601      0.0000
      8  C4A       20.9820    1.3700  -24.7160 C.ar  601  HEM601      0.0000
      9  CMA       22.4460   -0.0250  -26.3530 C.3   601  HEM601      0.0000
     10  CAA       21.0120    1.9580  -28.3480 C.3   601  HEM601      0.0000
     11  CBA       22.4810    2.3640  -28.6580 C.3   601  HEM601      0.0000
     12  CGA       22.6630    2.3720  -30.1890 C.2   601  HEM601      0.0000
     13  O1A       22.1030    3.2930  -30.7970 O.co2 601  HEM601      0.0000
     14  O2A       23.3960    1.4000  -30.8820 O.co2 601  HEM601      0.0000
     15  C1B       20.8370    0.9320  -22.3570 C.2   601  HEM601      0.0000
     16  C2B       21.2820    0.2070  -21.2060 C.2   601  HEM601      0.0000
     17  C3B       20.6200    0.7890  -20.1240 C.2   601  HEM601      0.0000
     18  C4B       19.8080    1.8550  -20.7010 C.2   601  HEM601      0.0000
     19  CMB       22.3190   -0.9180  -21.2430 C.3   601  HEM601      0.0000
     20  CAB       20.6880    0.5120  -18.6860 C.2   601  HEM601      0.0000
     21  CBB       21.4950   -0.4310  -18.2020 C.2   601  HEM601      0.0000
     22  C1C       18.2910    3.7210  -20.3780 C.ar  601  HEM601      0.0000
     23  C2C       17.5250    4.5570  -19.5150 C.ar  601  HEM601      0.0000
     24  C3C       16.9040    5.4680  -20.3260 C.ar  601  HEM601      0.0000
     25  C4C       17.3020    5.1650  -21.7050 C.ar  601  HEM601      0.0000
     26  CMC       17.4390    4.4660  -18.0080 C.3   601  HEM601      0.0000
     27  CAC       16.0090    6.5490  -19.7680 C.2   601  HEM601      0.0000
     28  CBC       15.2090    7.3380  -20.5010 C.2   601  HEM601      0.0000
     29  C1D       17.3320    5.4380  -24.1050 C.2   601  HEM601      0.0000
     30  C2D       16.7910    6.0920  -25.3190 C.2   601  HEM601      0.0000
     31  C3D       17.4540    5.5840  -26.3700 C.2   601  HEM601      0.0000
     32  C4D       18.3620    4.5580  -25.8100 C.2   601  HEM601      0.0000
     33  CMD       15.7360    7.1570  -25.3140 C.3   601  HEM601      0.0000
     34  CAD       17.2330    5.9500  -27.8180 C.3   601  HEM601      0.0000
     35  CBD       18.0360    7.1950  -28.2530 C.3   601  HEM601      0.0000
     36  CGD       17.6120    7.6600  -29.6480 C.2   601  HEM601      0.0000
     37  O1D       17.5930    8.8170  -29.9930 O.co2 601  HEM601      0.0000
     38  O2D       17.2430    6.7540  -30.5670 O.co2 601  HEM601      0.0000
     39  NA        20.0930    2.4550  -24.7270 N.ar  601  HEM601      0.0000
     40  NB        19.9820    1.9510  -22.0400 N.2   601  HEM601      0.0000
     41  NC        18.2050    4.1020  -21.7140 N.ar  601  HEM601      0.0000
     42  ND        18.2560    4.5000  -24.4470 N.2   601  HEM601      0.0000
     43 FE         19.2780    3.3500  -23.2160 Fe    601  HEM601      0.0000
@<TRIPOS>BOND
     1    14    12   ar
     2    13    12   ar
     3    38    36   ar
     4    12    11    1
     5    37    36   ar
     6    36    35    1
     7    11    10    1
     8    10     6    1
     9    35    34    1
    10    34    31    1
    11     6     5   ar
    12     6     7   ar
    13     1     5    2
    14     1    32    1
    15    31    32    1
    16    31    30    2
    17     9     7    1
    18     5    39   ar
    19     7     8   ar
    20    32    42    2
    21    30    33    1
    22    30    29    1
    23    39     8   ar
    24    39    43    1
    25     8     2    2
    26    42    29    1
    27    42    43    1
    28    29     4    2
    29     2    15    1
    30    43    40    1
    31    43    41    1
    32     4    25    1
    33    15    40    2
    34    15    16    1
    35    40    18    1
    36    41    25   ar
    37    41    22   ar
    38    25    24   ar
    39    19    16    1
    40    16    17    2
    41    18    17    1
    42    18     3    2
    43    28    27    2
    44    22     3    1
    45    22    23   ar
    46    24    27    1
    47    24    23   ar
    48    17    20    1
    49    23    26    1
    50    20    21    2
