@<TRIPOS>MOLECULE
3sn5_K2B_A_1.pdb
 28 31 0 0 0
SMALL
GASTEIGER

@<TRIPOS>ATOM
      1  C1        18.8350   -0.7270  -30.5890 C.3   1429  K2B1429     0.0118
      2  C2        19.7050   -1.9760  -30.4720 C.3   1429  K2B1429     0.0694
      3  C3        20.1550   -2.2280  -29.0440 C.2   1429  K2B1429     0.1725
      4  C4        19.4080   -1.7840  -27.9670 C.2   1429  K2B1429     0.0289
      5  C5        18.2470   -1.0550  -28.1520 C.2   1429  K2B1429    -0.0420
      6  C6        17.5220   -0.5790  -26.8920 C.3   1429  K2B1429     0.0221
      7  C7        17.1450    0.8910  -27.0600 C.3   1429  K2B1429     0.0044
      8  C8        16.3090    1.0700  -28.3300 C.3   1429  K2B1429     0.0006
      9  C9        17.1080    0.7060  -29.6020 C.3   1429  K2B1429     0.0035
     10  C10       17.7040   -0.7120  -29.5710 C.3   1429  K2B1429     0.0157
     11  C11       16.3130    0.9780  -30.9120 C.3   1429  K2B1429     0.0003
     12  C12       15.7210    2.4070  -30.9550 C.3   1429  K2B1429     0.0000
     13  C13       14.9220    2.7120  -29.6740 C.3   1429  K2B1429     0.0000
     14  C14       15.8410    2.5020  -28.4670 C.3   1429  K2B1429     0.0000
     15  C15       15.0440    3.0440  -27.2930 C.3   1429  K2B1429     0.0000
     16  C16       14.3460    4.2740  -27.9150 C.3   1429  K2B1429     0.0000
     17  C17       14.6160    4.2010  -29.4410 C.3   1429  K2B1429     0.0000
     18  C18       13.6630    1.8260  -29.6200 C.3   1429  K2B1429     0.0000
     19  C19       16.6480   -1.7560  -29.9670 C.3   1429  K2B1429     0.0041
     20  C20       13.4570    4.8180  -30.2580 C.3   1429  K2B1429     0.0000
     21  C21       13.8450    4.9840  -31.7310 C.3   1429  K2B1429     0.0000
     22  C22       13.1230    6.1960  -29.6680 C.3   1429  K2B1429     0.0000
     23  C23       11.8750    6.8430  -30.2700 C.3   1429  K2B1429     0.0000
     24  C24       11.6200    8.1730  -29.5520 C.3   1429  K2B1429     0.0000
     25  C25       10.1420    8.5490  -29.3640 C.3   1429  K2B1429     0.0000
     26  C27        9.2290    8.0740  -30.4990 C.3   1429  K2B1429     0.0000
     27  C26       10.0260   10.0620  -29.1900 C.3   1429  K2B1429     0.0000
     28  O1        21.1780   -2.8690  -28.8440 O.2   1429  K2B1429    -0.2914
@<TRIPOS>BOND
     1    21    20    1
     2    12    11    1
     3    12    13    1
     4    11     9    1
     5     1     2    1
     6     1    10    1
     7    26    25    1
     8     2     3    1
     9    23    22    1
    10    23    24    1
    11    20    22    1
    12    20    17    1
    13    19    10    1
    14    13    18    1
    15    13    17    1
    16    13    14    1
    17     9    10    1
    18     9     8    1
    19    10     5    1
    20    24    25    1
    21    17    16    1
    22    25    27    1
    23     3    28    2
    24     3     4    1
    25    14     8    1
    26    14    15    1
    27     8     7    1
    28     5     4    2
    29     5     6    1
    30    16    15    1
    31     7     6    1
