@<TRIPOS>MOLECULE
3sn6_P0G_R_1.pdb
 27 29 0 0 0
SMALL
GASTEIGER

@<TRIPOS>ATOM
      1  CAA       23.9740    7.0940  -14.7090 C.3   366  P0G366      0.0307
      2  CAB       22.2670    5.6660  -12.3670 C.3   366  P0G366      0.0178
      3  CAC       20.4550    7.3650  -12.2040 C.3   366  P0G366      0.0178
      4  OAD       15.4730    2.1740  -10.5770 O.2   366  P0G366     -0.2103
      5  OAE       17.8500    1.5120   -6.6000 O.2   366  P0G366     -0.2840
      6  OAF       20.2190    7.0960   -8.0220 O.3   366  P0G366     -0.2170
      7  CAG       21.9300   10.0400  -15.9090 C.ar  366  P0G366     -0.0003
      8  CAH       21.4030   10.5230  -14.7180 C.ar  366  P0G366     -0.0003
      9  CAI       22.7620    8.9280  -15.8960 C.ar  366  P0G366     -0.0046
     10  CAJ       21.7130    9.8930  -13.5190 C.ar  366  P0G366     -0.0045
     11  CAK       19.2370    3.4470   -6.4570 C.2   366  P0G366      0.0232
     12  CAL       19.7840    4.5780   -7.0530 C.3   366  P0G366      0.0571
     13  CAM       16.9780    3.9920  -10.8130 C.3   366  P0G366      0.3391
     14  CAN       21.4120    5.7570   -9.6190 C.3   366  P0G366      0.1257
     15  CAO       22.8700    8.1030  -12.1880 C.3   366  P0G366      0.0421
     16  NAP       21.9400    6.9080  -10.3300 N.3   366  P0G366     -0.2174
     17  NAQ       17.2690    2.1530   -9.2380 N.2   366  P0G366     -0.3271
     18  OAR       18.3010    4.3030  -10.3830 O.2   366  P0G366     -0.4554
     19  CAS       16.5110    2.6910  -10.1950 C.1   366  P0G366      0.2263
     20  CAT       23.0690    8.2970  -14.6960 C.ar  366  P0G366     -0.0258
     21  CAU       18.3860    2.6210   -7.1820 C.2   366  P0G366      0.2250
     22  CAV       22.5390    8.7730  -13.5060 C.ar  366  P0G366     -0.0248
     23  CAW       19.4830    4.8770   -8.3760 C.2   366  P0G366      0.0281
     24  CAX       18.0860    2.9320   -8.4960 C.2   366  P0G366      0.2156
     25  CAY       18.6280    4.0530   -9.0820 C.2   366  P0G366      0.1684
     26  CAZ       20.0500    6.0820   -9.0180 C.3   366  P0G366      0.1909
     27  CBA       21.8760    7.0150  -11.7780 C.3   366  P0G366      0.0636
@<TRIPOS>BOND
     1     7     9   ar
     2     7     8   ar
     3     9    20   ar
     4     8    10   ar
     5     1    20    1
     6    20    22   ar
     7    10    22   ar
     8    22    15    1
     9     2    27    1
    10     3    27    1
    11    15    27    1
    12    27    16    1
    13    13    18    1
    14    13    19    1
    15     4    19    2
    16    18    25    1
    17    16    14    1
    18    19    17    2
    19    14    26    1
    20    17    24    2
    21    25    24    1
    22    25    23    2
    23    26    23    1
    24    26     6    1
    25    24    21    1
    26    23    12    1
    27    21     5    1
    28    21    11    2
    29    12    11    1
