@<TRIPOS>MOLECULE
3sn7_540_A_1.pdb
 25 28 0 0 0
SMALL
GASTEIGER

@<TRIPOS>ATOM
      1  C1        17.4080  -11.0410  -35.1670 C.3   780  540780      0.0328
      2  F1        20.4070  -10.0460  -38.9650 F     780  540780     -0.2043
      3  N1        17.7320   -7.2280  -34.9590 N.ar  780  540780     -0.2426
      4  O1        22.7030  -14.2690  -37.9940 O.2   780  540780     -0.4690
      5  C2        18.0160   -9.6870  -34.8110 C.ar  780  540780      0.0010
      6  N2        20.1100  -10.8650  -32.3660 N.2   780  540780     -0.3935
      7  C3        17.2700   -8.5170  -35.2270 C.ar  780  540780      0.0947
      8  N3        20.6080  -11.5370  -34.3870 N.pl3 780  540780     -0.2653
      9  C4        18.9230   -7.0220  -34.2070 C.ar  780  540780      0.0990
     10  N4        22.0960  -13.9040  -35.2640 N.2   780  540780     -0.4077
     11  C5        19.7460   -8.0930  -33.7210 C.ar  780  540780      0.0242
     12  C6        19.2770   -9.4380  -34.0550 C.ar  780  540780      0.0430
     13  C7        20.0080  -10.6190  -33.6240 C.2   780  540780      0.1833
     14  C8        20.7930  -12.0610  -32.1760 C.2   780  540780      0.1132
     15  C9        21.1330  -12.5230  -33.4480 C.3   780  540780      0.1720
     16  C10       20.8610  -11.7240  -35.8030 C.3   780  540780      0.1557
     17  C11       20.4660  -10.8150  -36.7750 C.2   780  540780      0.0303
     18  C12       20.7930  -11.0110  -38.1280 C.2   780  540780      0.1410
     19  C13       21.5180  -12.1570  -38.6050 C.2   780  540780      0.0686
     20  C14       21.9580  -13.1630  -37.6350 C.2   780  540780      0.1681
     21  C15       21.6410  -12.9440  -36.2170 C.2   780  540780      0.1642
     22  C16       21.8860  -13.7030  -33.9740 C.2   780  540780      0.1114
     23  C17       22.4060  -14.7110  -33.0680 C.3   780  540780      0.0637
     24  C18       23.1510  -14.3620  -39.3610 C.3   780  540780      0.2526
     25  C19       21.1010  -12.5790  -30.7960 C.3   780  540780      0.0638
@<TRIPOS>BOND
     1    24     4    1
     2     2    18    1
     3    19    18    1
     4    19    20    2
     5    18    17    2
     6     4    20    1
     7    20    21    1
     8    17    16    1
     9    21    16    1
    10    21    10    2
    11    16     8    1
    12    10    22    2
    13     7     3   ar
    14     7     5   ar
    15     1     5    1
    16     3     9   ar
    17     5    12   ar
    18     8    13    1
    19     8    15    1
    20     9    11   ar
    21    12    11   ar
    22    12    13    1
    23    22    15    1
    24    22    23    1
    25    13     6    2
    26    15    14    1
    27     6    14    2
    28    14    25    1
