@<TRIPOS>MOLECULE
3sn9_ANP_A_1.pdb
 31 33 0 0 0
SMALL
GASTEIGER

@<TRIPOS>ATOM
      1  PG        29.0850  -26.7100   14.0790 P.3   300  ANP300      0.4884
      2  O1G       29.5100  -27.8690   13.2070 O.3   300  ANP300     -0.1240
      3  O2G       28.0120  -27.0210   15.1110 O.3   300  ANP300     -0.1240
      4  O3G       28.7620  -25.5260   13.2010 O.2   300  ANP300     -0.2331
      5  PB        30.3940  -25.0890   16.3520 P.3   300  ANP300      0.4669
      6  O1B       28.9170  -24.7030   16.3920 O.2   300  ANP300     -0.2351
      7  O2B       31.0450  -25.6690   17.5930 O.3   300  ANP300     -0.1253
      8  N3B       30.5100  -26.2670   15.0400 N.3   300  ANP300     -0.0163
      9  PA        32.7870  -23.4990   15.8350 P.3   300  ANP300      0.2220
     10  O1A       33.3640  -22.3700   16.6330 O.3   300  ANP300     -0.4370
     11  O2A       33.4410  -24.8400   15.8970 O.2   300  ANP300     -0.5170
     12  O3A       31.1930  -23.6880   16.0520 O.3   300  ANP300     -0.2360
     13  O5'       32.7720  -23.0390   14.3140 O.3   300  ANP300     -0.3111
     14  C5'       32.1480  -23.9030   13.3760 C.3   300  ANP300      0.1813
     15  C4'       31.9110  -23.1880   12.0670 C.3   300  ANP300      0.1821
     16  O4'       33.0580  -22.4580   11.6690 O.3   300  ANP300     -0.3135
     17  C3'       31.6120  -24.1510   10.9420 C.3   300  ANP300      0.2184
     18  O3'       30.2150  -24.4290   10.8690 O.3   300  ANP300     -0.2174
     19  C2'       32.0800  -23.3680    9.7530 C.3   300  ANP300      0.2570
     20  O2'       30.9990  -22.5100    9.3390 O.3   300  ANP300     -0.2130
     21  C1'       33.2300  -22.5340   10.2740 C.3   300  ANP300      0.3186
     22  N9        34.5320  -23.1710   10.0530 N.pl3 300  ANP300     -0.1439
     23  C8        34.9120  -24.3800   10.4840 C.3   300  ANP300      0.3377
     24  N7        36.1960  -24.6500   10.1150 N.2   300  ANP300     -0.2095
     25  C5        36.6370  -23.5810    9.4520 C.2   300  ANP300      0.2526
     26  C6        37.8900  -23.2160    8.7890 C.2   300  ANP300      0.4393
     27  N6        38.9160  -24.0920    8.7940 N.pl3 300  ANP300      0.2180
     28  N1        37.9650  -22.0030    8.2080 N.2   300  ANP300      0.0021
     29  C2        36.9240  -21.1520    8.2100 C.3   300  ANP300      0.5254
     30  N3        35.7410  -21.4340    8.7890 N.2   300  ANP300     -0.0055
     31  C4        35.5440  -22.6110    9.4150 C.2   300  ANP300      0.3518
@<TRIPOS>BOND
     1    28    29    1
     2    28    26    2
     3    29    30    1
     4    30    31    2
     5    26    27    1
     6    26    25    1
     7    20    19    1
     8    31    25    1
     9    31    22    1
    10    25    24    2
    11    19    21    1
    12    19    17    1
    13    22    21    1
    14    22    23    1
    15    24    23    1
    16    21    16    1
    17    18    17    1
    18    17    15    1
    19    16    15    1
    20    15    14    1
    21     4     1    2
    22     2     1    1
    23    14    13    1
    24     1     8    1
    25     1     3    1
    26    13     9    1
    27     8     5    1
    28     9    11    2
    29     9    12    1
    30     9    10    1
    31    12     5    1
    32     5     6    2
    33     5     7    1
