@<TRIPOS>MOLECULE
3sne_III_H_1.pdb
 42 41 0 0 0
SMALL
GASTEIGER

@<TRIPOS>ATOM
      1  C         27.9570   51.4620   -4.5190 C.2     0  ACE0        0.2423
      2  O         27.4580   51.9900   -5.5260 O.2     0  ACE0       -0.2733
      3  CH3       28.4890   52.3020   -3.3800 C.3     0  ACE0        0.0964
      4  N         27.7910   50.1990   -4.2310 N.am    1  GLU1       -0.1978
      5  CA        28.1170   49.0220   -5.0790 C.3     1  GLU1        0.1733
      6  C         26.8460   48.2460   -5.5660 C.2     1  GLU1        0.2617
      7  O         25.9280   48.8320   -6.1360 O.2     1  GLU1       -0.2715
      8  CB        29.1230   48.0700   -4.3500 C.3     1  GLU1        0.0429
      9  CG        30.6040   48.5520   -4.2510 C.3     1  GLU1        0.1163
     10  CD        31.4870   48.0560   -5.3990 C.2     1  GLU1        0.3649
     11  OE1       32.3130   47.1420   -5.1650 O.co2   1  GLU1       -0.2457
     12  OE2       31.3560   48.5720   -6.5360 O.co2   1  GLU1       -0.2457
     13  N         26.8260   46.9270   -5.3550 N.am    2  SER2       -0.1936
     14  CA        25.6700   46.0670   -5.6550 C.3     2  SER2        0.2055
     15  C         25.7470   44.7730   -4.8260 C.2     2  SER2        0.2644
     16  O         26.8410   44.2290   -4.6180 O.2     2  SER2       -0.2714
     17  CB        25.5970   45.7400   -7.1470 C.3     2  SER2        0.2130
     18  OG        24.3920   45.0590   -7.4330 O.3     2  SER2       -0.2179
     19  N         24.5890   44.2890   -4.3660 N.am    3  THR3       -0.1936
     20  CA        24.5190   43.2290   -3.3440 C.3     3  THR3        0.2028
     21  C         23.7330   41.9950   -3.8160 C.2     3  THR3        0.2642
     22  O         22.5060   42.0060   -3.8380 O.2     3  THR3       -0.2714
     23  CB        23.9250   43.7740   -1.9800 C.3     3  THR3        0.1808
     24  OG1       24.6090   44.9740   -1.5980 O.3     3  THR3       -0.2208
     25  CG2       23.9990   42.7280   -0.8330 C.3     3  THR3        0.0379
     26  N         24.4600   40.9350   -4.1690 N.am    4  LEU4       -0.1963
     27  CA        23.8560   39.6510   -4.4980 C.3     4  LEU4        0.1728
     28  C         23.5770   38.8630   -3.2150 C.2     4  LEU4        0.2612
     29  O         24.5170   38.3680   -2.5640 O.2     4  LEU4       -0.2715
     30  CB        24.7820   38.8300   -5.4090 C.3     4  LEU4        0.0311
     31  CG        25.5190   39.4670   -6.5880 C.3     4  LEU4        0.0022
     32  CD1       26.6110   38.5450   -6.9830 C.3     4  LEU4        0.0001
     33  CD2       24.6390   39.7730   -7.8130 C.3     4  LEU4        0.0001
     34  C         21.0260   36.6080   -2.0530 C.3     5  GLN5        0.2036
     35  N         22.4180   38.4220   -2.9050 N.am    5  GLN5       -0.2030
     36  O         21.3780   35.7460   -0.9540 O.3     5  GLN5       -0.2185
     37  CA        21.5270   38.0330   -1.8050 C.3     5  GLN5        0.1287
     38  CB        20.3460   39.0080   -1.6220 C.3     5  GLN5        0.0340
     39  CD        19.4790   41.2890   -1.2280 C.2     5  GLN5        0.2608
     40  CG        20.7280   40.4690   -1.4230 C.3     5  GLN5        0.0904
     41  OE1       18.6970   41.3900   -2.1320 O.2     5  GLN5       -0.2717
     42  NE2       19.2930   41.9080   -0.0620 N.am    5  GLN5       -0.0878
@<TRIPOS>BOND
     1    33    31    1
     2    18    17    1
     3    17    14    1
     4    32    31    1
     5    31    30    1
     6    12    10   ar
     7     7     6    2
     8    14    13    1
     9    14    15    1
    10     6    13   am
    11     6     5    1
    12     2     1    2
    13    30    27    1
    14    10    11   ar
    15    10     9    1
    16     5     8    1
    17     5     4    1
    18    15    16    2
    19    15    19   am
    20     1     4   am
    21     1     3    1
    22    27    26    1
    23    27    28    1
    24    19    20    1
    25     8     9    1
    26    26    21   am
    27    22    21    2
    28    21    20    1
    29    20    23    1
    30    28    35   am
    31    28    29    2
    32    35    37    1
    33    41    39    2
    34    34    37    1
    35    34    36    1
    36    23    24    1
    37    23    25    1
    38    37    38    1
    39    38    40    1
    40    40    39    1
    41    39    42   am
