@<TRIPOS>MOLECULE
3sni_546_A_1.pdb
 24 27 0 0 0
SMALL
GASTEIGER

@<TRIPOS>ATOM
      1  C1        17.3740  -11.1860  -34.8170 C.3   782  546782      0.0313
      2  N1        19.3420   -7.3570  -34.9590 N.ar  782  546782     -0.2422
      3  O1        20.2970  -10.7660  -38.9190 O.2   782  546782     -0.4476
      4  C2        18.0910   -9.8680  -34.8500 C.ar  782  546782     -0.0150
      5  N2        20.1340  -10.9330  -32.3180 N.2   782  546782     -0.3931
      6  C3        17.4490   -8.7800  -35.4640 C.ar  782  546782      0.0166
      7  N3        20.7830  -11.7920  -34.2550 N.pl3 782  546782     -0.2252
      8  C4        18.1140   -7.5620  -35.4920 C.ar  782  546782      0.0986
      9  N4        20.5120  -11.2460  -36.5840 N.2   782  546782     -0.3493
     10  C5        19.9460   -8.4170  -34.3650 C.ar  782  546782      0.1024
     11  N5        22.3090  -14.0430  -34.9140 N.2   782  546782     -0.4045
     12  C6        19.3740   -9.6880  -34.2830 C.ar  782  546782      0.0595
     13  C7        20.0890  -10.7760  -33.6270 C.2   782  546782      0.1898
     14  C8        20.8810  -12.0640  -32.0730 C.2   782  546782      0.1136
     15  C9        21.2970  -12.6250  -33.2700 C.3   782  546782      0.1774
     16  C10       21.0140  -12.0620  -35.6300 C.2   782  546782      0.2226
     17  C11       21.7830  -13.1990  -35.9140 C.2   782  546782      0.1750
     18  C12       22.0290  -13.4870  -37.2580 C.2   782  546782      0.0420
     19  C13       21.5270  -12.6620  -38.2660 C.2   782  546782      0.0744
     20  C14       20.7790  -11.5520  -37.8800 C.2   782  546782      0.2790
     21  C15       20.0090   -9.4050  -38.5940 C.3   782  546782      0.2553
     22  C16       22.0820  -13.7820  -33.6570 C.2   782  546782      0.1121
     23  C17       22.6650  -14.7200  -32.6360 C.3   782  546782      0.0637
     24  C18       21.1060  -12.4810  -30.6700 C.3   782  546782      0.0638
@<TRIPOS>BOND
     1     3    21    1
     2     3    20    1
     3    19    20    1
     4    19    18    2
     5    20     9    2
     6    18    17    1
     7     9    16    2
     8    17    16    1
     9    17    11    2
    10    16     7    1
    11     8     6   ar
    12     8     2   ar
    13     6     4   ar
    14     2    10   ar
    15    11    22    2
    16     4     1    1
    17     4    12   ar
    18    10    12   ar
    19    12    13    1
    20     7    13    1
    21     7    15    1
    22    22    15    1
    23    22    23    1
    24    13     5    2
    25    15    14    1
    26     5    14    2
    27    14    24    1
