@<TRIPOS>MOLECULE
3snl_548_B_1.pdb
 27 30 0 0 0
SMALL
GASTEIGER

@<TRIPOS>ATOM
      1  C1        14.8990  -40.8760  -20.2600 C.3     1  5481        0.0328
      2  F1        14.1700  -37.4510  -23.9710 F       1  5481       -0.1659
      3  N1        11.4050  -40.3000  -21.5770 N.ar    1  5481       -0.2426
      4 CL1        19.0790  -35.1640  -20.9710 Cl      1  5481       -0.0799
      5  C2        13.5440  -40.2590  -20.4340 C.ar    1  5481        0.0010
      6  F2        15.9920  -36.6960  -24.8820 F       1  5481       -0.1659
      7  N2        13.7460  -38.5910  -17.4100 N.2     1  5481       -0.3935
      8  C3        12.6450  -40.7900  -21.3530 C.ar    1  5481        0.0947
      9  F3        15.8260  -38.8030  -24.3740 F       1  5481       -0.1659
     10  N3        15.1220  -37.7410  -18.9430 N.pl3   1  5481       -0.2654
     11  C4        11.0310  -39.2260  -20.8530 C.ar    1  5481        0.0990
     12  N4        17.4170  -36.1670  -18.6740 N.2     1  5481       -0.4099
     13  C5        11.8420  -38.6180  -19.9130 C.ar    1  5481        0.0242
     14  C6        13.1210  -39.1410  -19.6980 C.ar    1  5481        0.0430
     15  C7        13.9820  -38.5020  -18.7070 C.2     1  5481        0.1833
     16  C8        14.7330  -37.8860  -16.7760 C.2     1  5481        0.1132
     17  C9        15.6000  -37.3480  -17.7050 C.3     1  5481        0.1720
     18  C10       15.7950  -37.3480  -20.1300 C.3     1  5481        0.1512
     19  C11       15.3710  -37.7060  -21.4160 C.2     1  5481        0.0044
     20  C12       16.0840  -37.2840  -22.5520 C.2     1  5481        0.0701
     21  C13       17.2290  -36.4980  -22.3800 C.2     1  5481        0.0173
     22  C14       17.6540  -36.1390  -21.0970 C.2     1  5481        0.0848
     23  C15       16.9500  -36.5540  -19.9530 C.2     1  5481        0.1409
     24  C16       16.7820  -36.5400  -17.6080 C.2     1  5481        0.1113
     25  C17       17.3130  -36.1060  -16.2700 C.3     1  5481        0.0637
     26  C18       15.5270  -37.5510  -23.9310 C.3     1  5481        0.4184
     27  C19       14.7300  -37.8070  -15.2970 C.3     1  5481        0.0638
@<TRIPOS>BOND
     1     6    26    1
     2     9    26    1
     3     2    26    1
     4    26    20    1
     5    20    21    1
     6    20    19    2
     7    21    22    2
     8     3     8   ar
     9     3    11   ar
    10    19    18    1
    11     8     5   ar
    12    22     4    1
    13    22    23    1
    14    11    13   ar
    15     5     1    1
    16     5    14   ar
    17    18    23    1
    18    18    10    1
    19    23    12    2
    20    13    14   ar
    21    14    15    1
    22    10    15    1
    23    10    17    1
    24    15     7    2
    25    12    24    2
    26    17    24    1
    27    17    16    1
    28    24    25    1
    29     7    16    2
    30    16    27    1
