@<TRIPOS>MOLECULE
3snm_IAC_A_1.pdb
 13 14 0 0 0
SMALL
GASTEIGER

@<TRIPOS>ATOM
      1  C         -0.7330  -33.2580  -10.8080 C.2   242  IAC242      0.0574
      2  C1        -1.0770  -32.8240  -12.1780 C.3   242  IAC242      0.0642
      3  C2        -0.0660  -32.7010  -13.1780 C.2   242  IAC242     -0.0204
      4  C3         1.2530  -32.9600  -12.7540 C.2   242  IAC242     -0.0042
      5  C4         1.5580  -33.3630  -11.4390 C.2   242  IAC242      0.0009
      6  C5         0.5820  -33.5200  -10.4490 C.2   242  IAC242      0.0146
      7  C7        -2.5750  -32.6830  -12.2130 C.3   242  IAC242      0.0452
      8  C8        -3.0410  -32.6840  -10.7320 C.3   242  IAC242      0.1263
      9  C17       -3.2720  -31.6240  -13.1140 C.3   242  IAC242      0.1167
     10  C18       -4.1490  -32.4830  -14.0180 C.2   242  IAC242      0.3649
     11  N         -1.8720  -33.3340  -10.0570 N.2   242  IAC242     -0.2744
     12  O2        -3.9790  -32.5330  -15.2940 O.co2 242  IAC242     -0.2457
     13  O3        -5.0360  -33.2000  -13.4380 O.co2 242  IAC242     -0.2457
@<TRIPOS>BOND
     1    12    10   ar
     2    10    13   ar
     3    10     9    1
     4     3     4    2
     5     3     2    1
     6     9     7    1
     7     4     5    1
     8     7     2    1
     9     7     8    1
    10     2     1    1
    11     5     6    2
    12     1     6    1
    13     1    11    2
    14     8    11    1
