@<TRIPOS>MOLECULE
3snn_DCP_A_1.pdb
 28 29 0 0 0
SMALL
GASTEIGER

@<TRIPOS>ATOM
      1  N1         0.2520   53.9500   19.4410 N.am  904  DCP904     -0.1802
      2  C2         0.6940   54.7090   20.5460 C.1   904  DCP904      0.2756
      3  N3         0.7090   54.1620   21.7830 N.2   904  DCP904     -0.3024
      4  C4         0.3220   52.8800   21.9760 C.2   904  DCP904      0.2346
      5  C5        -0.1130   52.1070   20.8990 C.2   904  DCP904      0.0687
      6  C6        -0.1330   52.6710   19.6280 C.2   904  DCP904      0.0835
      7  O2         1.0650   55.8920   20.3840 O.2   904  DCP904     -0.1925
      8  N4         0.3630   52.3540   23.2190 N.pl3 904  DCP904     -0.0921
      9  C1'        0.2600   54.5800   18.1100 C.3   904  DCP904      0.2090
     10  C2'        1.6930   54.5180   17.5870 C.3   904  DCP904      0.0874
     11  C3'        1.6690   53.3790   16.5900 C.3   904  DCP904      0.1857
     12  C4'        0.2680   53.5200   16.0220 C.3   904  DCP904      0.1773
     13  O4'       -0.5470   53.8830   17.1530 O.3   904  DCP904     -0.3339
     14  O3'        2.7150   53.4900   15.6160 O.3   904  DCP904     -0.2203
     15  C5'       -0.2440   52.2410   15.3850 C.3   904  DCP904      0.1812
     16  O5'       -0.3150   51.2290   16.3780 O.3   904  DCP904     -0.3112
     17  PA         0.0570   49.6880   16.0900 P.3   904  DCP904      0.2189
     18  O1A       -0.5440   48.8940   17.2180 O.3   904  DCP904     -0.4371
     19  O2A       -0.3260   49.3230   14.6700 O.2   904  DCP904     -0.5170
     20  O3A        1.6560   49.6510   16.3060 O.3   904  DCP904     -0.2700
     21  PB         2.7850   50.0620   15.2400 P.3   904  DCP904      0.2277
     22  O1B        3.6890   51.0700   15.9060 O.3   904  DCP904     -0.4368
     23  O2B        2.1560   50.4210   13.9160 O.2   904  DCP904     -0.5168
     24  O3B        3.6560   48.7080   15.1040 O.3   904  DCP904     -0.2258
     25  PG         3.2470   47.3850   14.2650 P.3   904  DCP904      0.5373
     26  O1G        1.9230   47.6930   13.6090 O.3   904  DCP904     -0.1143
     27  O2G        4.4170   47.2190   13.3310 O.2   904  DCP904     -0.2221
     28  O3G        3.1470   46.2950   15.2990 O.3   904  DCP904     -0.1143
@<TRIPOS>BOND
     1    27    25    2
     2    26    25    1
     3    23    21    2
     4    25    24    1
     5    25    28    1
     6    19    17    2
     7    24    21    1
     8    21    22    1
     9    21    20    1
    10    15    12    1
    11    15    16    1
    12    14    11    1
    13    12    11    1
    14    12    13    1
    15    17    20    1
    16    17    16    1
    17    17    18    1
    18    11    10    1
    19    13     9    1
    20    10     9    1
    21     9     1    1
    22     1     6    1
    23     1     2   am
    24     6     5    2
    25     7     2    2
    26     2     3    2
    27     5     4    1
    28     3     4    2
    29     4     8    1
