@<TRIPOS>MOLECULE
3so9_017_A_1.pdb
 38 41 0 0 0
SMALL
GASTEIGER

@<TRIPOS>ATOM
      1  N1        15.9970   -8.6550  -16.3070 N.pl3 100  017100     -0.1281
      2  C2        15.5710   -8.8720  -15.0410 C.ar  100  017100      0.0892
      3  C3        16.0760   -9.9620  -14.3290 C.ar  100  017100      0.0194
      4  C4        15.6590  -10.1860  -13.0230 C.ar  100  017100      0.0213
      5  C5        14.7860   -9.2880  -12.3990 C.ar  100  017100      0.1223
      6  C6        14.2210   -8.2340  -13.1410 C.ar  100  017100      0.0213
      7  C7        14.6500   -7.9980  -14.4440 C.ar  100  017100      0.0194
      8  S8        14.2530   -9.6630  -10.9430 S.O2  100  017100      0.0634
      9  O9        14.6520  -11.0040  -10.6670 O.2   100  017100     -0.1528
     10  O10       12.8250   -9.6020  -10.9810 O.2   100  017100     -0.1528
     11  N11       14.7630   -8.8060   -9.7910 N.3   100  017100     -0.1529
     12  C12       15.5650   -9.4750   -8.7700 C.3   100  017100      0.0958
     13  C13       16.3140   -8.3820   -8.0130 C.3   100  017100      0.0178
     14  C14       17.7120   -8.1400   -8.5910 C.3   100  017100      0.0015
     15  C15       16.3590   -8.6990   -6.5220 C.3   100  017100      0.0015
     16  C16       14.4670   -7.3740   -9.6990 C.3   100  017100      0.1304
     17  C17       13.4520   -7.0740   -8.5770 C.3   100  017100      0.1898
     18  O18       12.9560   -5.7420   -8.8220 O.3   100  017100     -0.2197
     19  C19       12.2250   -7.9810   -8.4910 C.3   100  017100      0.1347
     20  N20       11.6240   -7.9130   -7.1620 N.am  100  017100     -0.1675
     21  C21       11.9570   -8.6660   -6.1180 C.2   100  017100      0.4211
     22  O22       11.8420   -9.8810   -6.0760 O.2   100  017100     -0.2246
     23  O23       12.4610   -7.9310   -4.9770 O.3   100  017100     -0.4345
     24  C24       12.0940   -8.4170   -3.6880 C.3   100  017100      0.2048
     25  C25       12.4380   -7.3400   -2.6560 C.3   100  017100      0.1884
     26  O26       11.2870   -7.1770   -1.8110 O.3   100  017100     -0.3265
     27  C27       10.1600   -7.8750   -2.3190 C.3   100  017100      0.2388
     28  O28        9.2120   -6.9140   -2.7690 O.3   100  017100     -0.3304
     29  C29        8.8050   -7.1660   -4.1200 C.3   100  017100      0.1451
     30  C30        9.7920   -8.1700   -4.6960 C.3   100  017100      0.0409
     31  C31       10.6100   -8.6740   -3.5260 C.3   100  017100      0.1016
     32  C32       11.1480   -7.5010   -9.4690 C.3   100  017100      0.0508
     33  C33        8.8070   -6.9960   -8.6780 C.ar  100  017100     -0.0042
     34  C34        7.5570   -7.4120   -8.2260 C.ar  100  017100     -0.0003
     35  C35        7.2830   -8.7670   -8.0570 C.ar  100  017100     -0.0000
     36  C36        8.2640   -9.7080   -8.3440 C.ar  100  017100     -0.0003
     37  C37        9.5110   -9.2870   -8.7980 C.ar  100  017100     -0.0042
     38  C38        9.7880   -7.9360   -8.9710 C.ar  100  017100     -0.0204
@<TRIPOS>BOND
     1     1     2    1
     2     2     7   ar
     3     2     3   ar
     4     7     6   ar
     5     3     4   ar
     6     6     5   ar
     7     4     5   ar
     8     5     8    1
     9    10     8    2
    10     8     9    2
    11     8    11    1
    12    11    16    1
    13    11    12    1
    14    16    17    1
    15    32    38    1
    16    32    19    1
    17    38    37   ar
    18    38    33   ar
    19    18    17    1
    20    37    36   ar
    21    12    13    1
    22    33    34   ar
    23    14    13    1
    24    17    19    1
    25    19    20    1
    26    36    35   ar
    27    34    35   ar
    28    13    15    1
    29    20    21   am
    30    21    22    2
    31    21    23    1
    32    23    24    1
    33    30    29    1
    34    30    31    1
    35    29    28    1
    36    24    31    1
    37    24    25    1
    38    31    27    1
    39    28    27    1
    40    25    26    1
    41    27    26    1
