@<TRIPOS>MOLECULE
3soa_DB8_A_1.pdb
 36 39 0 0 0
SMALL
GASTEIGER

@<TRIPOS>ATOM
      1  CAA      -46.2890  -11.8980   31.9630 C.3   445  DB8445      0.2526
      2  O02      -40.7340   -3.3480   34.4650 O.3   445  DB8445     -0.4705
      3  CAC      -45.9370  -16.7140   33.9290 C.3   445  DB8445      0.0760
      4  NAD      -42.0470   -5.6070   36.9580 N.1   445  DB8445     -0.1907
      5 CL1       -41.6410   -2.5430   31.7040 Cl    445  DB8445     -0.0791
      6 CL2       -43.8530   -7.4090   31.5070 Cl    445  DB8445     -0.0809
      7  CAG      -42.6040   -6.4970   36.8710 C.1   445  DB8445      0.1033
      8  CAH      -44.1270   -8.3740   37.7730 C.ar  445  DB8445      0.1104
      9  CAI      -42.6710   -5.0430   31.8540 C.ar  445  DB8445      0.0272
     10  CAJ      -41.7470   -5.6360   34.3880 C.ar  445  DB8445      0.0551
     11  CAK      -45.8070  -11.4630   36.5110 C.ar  445  DB8445      0.0592
     12  CAL      -44.4960  -10.5590   34.1910 C.ar  445  DB8445      0.0429
     13  CAM      -46.3970  -15.2540   33.9000 C.3   445  DB8445      0.0646
     14  CAN      -46.3040  -14.6450   35.2980 C.3   445  DB8445      0.2070
     15  CAO      -49.7410  -20.4620   32.0550 C.3   445  DB8445      0.0897
     16  CAP      -46.9010  -18.9560   34.0040 C.3   445  DB8445      0.0897
     17  CAQ      -47.5400  -17.3980   32.3130 C.3   445  DB8445      0.0897
     18  CAR      -48.0990  -19.8290   33.6830 C.3   445  DB8445      0.0897
     19  CAS      -48.7550  -18.2620   32.0640 C.3   445  DB8445      0.0897
     20  NAT      -44.8800   -9.5430   37.6960 N.ar  445  DB8445     -0.2429
     21  NAU      -42.7700   -7.9670   34.2760 N.pl3 445  DB8445     -0.2107
     22  OAV      -45.3390  -12.3390   32.8620 O.3   445  DB8445     -0.4684
     23  OAW      -46.8510  -13.3800   35.2230 O.3   445  DB8445     -0.4723
     24  CAX      -41.4640   -4.3120   33.7870 C.ar  445  DB8445      0.1505
     25  CAY      -41.9390   -4.0440   32.5110 C.ar  445  DB8445      0.0924
     26  CAZ      -42.9410   -6.2980   32.4360 C.ar  445  DB8445      0.0739
     27  CBA      -43.4290   -7.8160   36.7070 C.ar  445  DB8445      0.1027
     28  CBB      -42.4850   -6.6150   33.7650 C.ar  445  DB8445      0.0841
     29  CBC      -45.2610  -11.7280   34.1420 C.ar  445  DB8445      0.1725
     30  CBD      -45.9310  -12.2080   35.3090 C.ar  445  DB8445      0.1737
     31  CBE      -43.5260   -8.4920   35.4760 C.ar  445  DB8445      0.0831
     32  CBF      -44.9960  -10.2460   36.5210 C.ar  445  DB8445      0.0858
     33  CBG      -44.3210   -9.7500   35.3900 C.ar  445  DB8445      0.0368
     34  NBH      -47.1180  -17.5460   33.6690 N.3   445  DB8445     -0.2702
     35  NBI      -48.5470  -19.6570   32.3240 N.3   445  DB8445     -0.2691
     36  C01      -39.4020   -2.8960   34.0930 C.3   445  DB8445      0.2525
@<TRIPOS>BOND
     1     6    26    1
     2     5    25    1
     3     9    26   ar
     4     9    25   ar
     5     1    22    1
     6    15    35    1
     7    19    17    1
     8    19    35    1
     9    17    34    1
    10    35    18    1
    11    26    28   ar
    12    25    24   ar
    13    22    29    1
    14    34     3    1
    15    34    16    1
    16    18    16    1
    17    28    21    1
    18    28    10   ar
    19    24    10   ar
    20    24     2    1
    21    13     3    1
    22    13    14    1
    23    36     2    1
    24    29    12   ar
    25    29    30   ar
    26    12    33   ar
    27    21    31    1
    28    23    14    1
    29    23    30    1
    30    30    11   ar
    31    33    31   ar
    32    33    32   ar
    33    31    27   ar
    34    11    32   ar
    35    32    20   ar
    36    27     7    1
    37    27     8   ar
    38     7     4    3
    39    20     8   ar
