@<TRIPOS>MOLECULE
3soc_GVD_A_1.pdb
 29 33 0 0 0
SMALL
GASTEIGER

@<TRIPOS>ATOM
      1  CAL       98.7630   38.3870   -1.3250 C.3     1  GVD1        0.0061
      2  CAM       99.5260   38.3370   -2.6570 C.3     1  GVD1        0.0061
      3  CBB       98.2400   39.1660   -2.5370 C.3     1  GVD1        0.0406
      4  CAX       98.3700   40.7020   -2.4650 C.2     1  GVD1        0.0951
      5  CAK       99.4810   41.4420   -2.3230 C.3     1  GVD1        0.1690
      6  NAS       97.2870   41.5220   -2.5490 N.2     1  GVD1       -0.0426
      7  NAN       97.7000   42.6900   -2.4780 N.2     1  GVD1        0.0793
      8  CAV       99.0300   42.7240   -2.3330 C.2     1  GVD1        0.3768
      9  NAR       99.6980   43.9080   -2.1910 N.pl3   1  GVD1        0.0227
     10  C6       101.0420   44.0410   -2.0870 C.2     1  GVD1        0.3131
     11  N1       101.7710   42.9420   -1.7830 N.2     1  GVD1       -0.2868
     12  C5       101.7270   45.2840   -2.2500 C.3     1  GVD1        0.1716
     13  CAJ      101.0750   46.4960   -2.5350 C.2     1  GVD1       -0.0084
     14  CAD      101.7820   47.6890   -2.6960 C.2     1  GVD1       -0.0036
     15  CAC      103.1780   47.6870   -2.5500 C.2     1  GVD1        0.0020
     16  CAI      103.8500   46.4950   -2.2430 C.2     1  GVD1        0.0294
     17  C4       103.1350   45.3000   -2.0960 C.2     1  GVD1        0.1369
     18  N3       103.7960   44.1500   -1.7960 N.2     1  GVD1       -0.3303
     19  C2       103.1200   42.9840   -1.6380 C.1     1  GVD1        0.2272
     20  NAQ      103.8100   41.8640   -1.3610 N.pl3   1  GVD1       -0.1254
     21  CAU      103.2940   40.8100   -0.7010 C.ar    1  GVD1        0.0835
     22  CAG      102.4320   40.9970    0.3900 C.ar    1  GVD1        0.0171
     23  CAE      101.9390   39.8820    1.0750 C.ar    1  GVD1       -0.0019
     24  CAB      100.9040   36.5190    0.6020 C.1     1  GVD1        0.0780
     25  NAA      100.3260   35.7700   -0.0290 N.1     1  GVD1       -0.1955
     26  CAF      103.1470   38.3930   -0.4170 C.ar    1  GVD1       -0.0019
     27  CAH      103.6530   39.5090   -1.0970 C.ar    1  GVD1        0.0171
     28  CA0      101.7180   37.3880    1.4420 C.3     1  GVD1        0.1316
     29  CAT      102.2870   38.5860    0.6710 C.ar    1  GVD1       -0.0070
@<TRIPOS>BOND
     1    14    15    1
     2    14    13    2
     3     2     3    1
     4     2     1    1
     5    15    16    2
     6     6     7    1
     7     6     4    2
     8     3     4    1
     9     3     1    1
    10    13    12    1
    11     7     8    2
    12     4     5    1
    13     8     5    1
    14     8     9    1
    15    12    17    1
    16    12    10    1
    17    16    17    1
    18     9    10    1
    19    17    18    2
    20    10    11    2
    21    18    19    2
    22    11    19    2
    23    19    20    1
    24    20    21    1
    25    27    21   ar
    26    27    26   ar
    27    21    22   ar
    28    26    29   ar
    29    25    24    3
    30    22    23   ar
    31    24    28    1
    32    29    23   ar
    33    29    28    1
