@<TRIPOS>MOLECULE
3sop_GDP_A_1.pdb
 28 30 0 0 0
SMALL
GASTEIGER

@<TRIPOS>ATOM
      1  PB         6.5360   31.3610   26.6510 P.3   402  GDP402      0.5373
      2  O1B        7.6430   32.3700   26.4730 O.3   402  GDP402     -0.1143
      3  O2B        6.8600   30.1180   25.8590 O.2   402  GDP402     -0.2221
      4  O3B        6.4070   31.0070   28.1130 O.3   402  GDP402     -0.1143
      5  O3A        5.1500   31.9860   26.1250 O.3   402  GDP402     -0.2261
      6  PA         4.0510   32.5240   27.1690 P.3   402  GDP402      0.2231
      7  O1A        4.4090   32.1070   28.5750 O.3   402  GDP402     -0.4370
      8  O2A        2.6750   32.0270   26.7980 O.2   402  GDP402     -0.5169
      9  O5'        4.1320   34.1240   27.0170 O.3   402  GDP402     -0.3111
     10  C5'        4.4500   34.7180   25.7600 C.3   402  GDP402      0.1813
     11  C4'        3.7290   36.0530   25.6340 C.3   402  GDP402      0.1799
     12  O4'        3.3900   36.2910   24.2650 O.3   402  GDP402     -0.3326
     13  C3'        2.4400   36.0580   26.4390 C.3   402  GDP402      0.2158
     14  O3'        2.4900   37.0810   27.4370 O.3   402  GDP402     -0.2175
     15  C2'        1.3260   36.3500   25.4550 C.3   402  GDP402      0.2310
     16  O2'        0.6250   37.5330   25.8490 O.3   402  GDP402     -0.2158
     17  C1'        1.9950   36.5640   24.1070 C.3   402  GDP402      0.2293
     18  N9         1.4100   35.6410   23.1030 N.pl3 402  GDP402     -0.2354
     19  C8         1.0050   34.3790   23.3340 C.3   402  GDP402      0.2246
     20  N7         0.5160   33.8070   22.2040 N.2   402  GDP402     -0.2322
     21  C5         0.6060   34.7180   21.2190 C.2   402  GDP402      0.2182
     22  C6         0.2680   34.7690   19.7770 C.1   402  GDP402      0.2372
     23  O6        -0.2360   33.7830   19.1980 O.2   402  GDP402     -0.2069
     24  N1         0.5190   35.9040   19.1130 N.2   402  GDP402     -0.2485
     25  C2         1.0610   36.9820   19.7100 C.1   402  GDP402      0.2531
     26  N2         1.2820   38.0910   18.9640 N.pl3 402  GDP402     -0.0226
     27  N3         1.3950   37.0060   21.0260 N.2   402  GDP402     -0.3074
     28  C4         1.1950   35.9250   21.8160 C.2   402  GDP402      0.2300
@<TRIPOS>BOND
     1    26    25    1
     2    24    25    2
     3    24    22    2
     4    23    22    2
     5    25    27    2
     6    22    21    1
     7    27    28    2
     8    21    28    1
     9    21    20    2
    10    28    18    1
    11    20    19    1
    12    18    19    1
    13    18    17    1
    14    17    12    1
    15    17    15    1
    16    12    11    1
    17    15    16    1
    18    15    13    1
    19    11    10    1
    20    11    13    1
    21    10     9    1
    22     3     1    2
    23     5     1    1
    24     5     6    1
    25    13    14    1
    26     2     1    1
    27     1     4    1
    28     8     6    2
    29     9     6    1
    30     6     7    1
