@<TRIPOS>MOLECULE
3sor_O58_A_1.pdb
 38 41 0 0 0
SMALL
GASTEIGER

@<TRIPOS>ATOM
      1  C1        -5.7410  -12.7530   12.7750 C.ar  626  O58626      0.0198
      2  C2        -6.3280  -11.4860   12.6450 C.ar  626  O58626      0.0129
      3  C3        -7.6600  -11.3770   12.2450 C.ar  626  O58626      0.0575
      4  C4        -8.3940  -12.5270   11.9470 C.ar  626  O58626      0.0086
      5  C5        -7.8220  -13.8080   12.0670 C.ar  626  O58626     -0.0031
      6  C6        -6.4720  -13.9430   12.4940 C.ar  626  O58626      0.0823
      7  N7        -5.8330  -15.2430   12.5930 N.ar  626  O58626     -0.1889
      8  C8        -4.6200  -15.6540   12.0810 C.ar  626  O58626      0.2258
      9  N9        -4.4050  -16.9180   12.3680 N.ar  626  O58626     -0.1045
     10  N10       -5.5050  -17.3310   13.0520 N.ar  626  O58626     -0.0222
     11  N11       -6.3690  -16.3430   13.1790 N.ar  626  O58626     -0.0385
     12 CL12       -8.4220   -9.8400   12.0670 Cl    626  O58626     -0.0823
     13  C13       -8.7490  -14.9370   11.7110 C.3   626  O58626      0.0375
     14  C14       -9.4440  -15.4740   12.9500 C.3   626  O58626      0.0915
     15  C15      -10.5290  -16.4490   12.5820 C.2   626  O58626      0.2421
     16  N16      -10.2790  -17.3120   11.5280 N.am  626  O58626     -0.1974
     17  O17      -11.5800  -16.4600   13.1920 O.2   626  O58626     -0.2733
     18  C18      -11.3390  -18.2650   11.1430 C.3   626  O58626      0.1774
     19  C19      -11.1420  -19.5320   11.9900 C.2   626  O58626      0.2657
     20  O20      -10.1200  -20.2130   11.8490 O.2   626  O58626     -0.2711
     21  N21      -12.2260  -19.7350   12.8270 N.am  626  O58626     -0.1778
     22  C22      -12.5310  -20.7420   13.7710 C.ar  626  O58626      0.0734
     23  C23      -13.8210  -20.9090   14.2630 C.ar  626  O58626      0.0163
     24  C24      -14.1210  -21.8980   15.2120 C.ar  626  O58626     -0.0024
     25  C25      -13.1260  -22.7590   15.6730 C.ar  626  O58626     -0.0109
     26  C26      -11.8240  -22.5960   15.1790 C.ar  626  O58626     -0.0024
     27  C27      -11.5220  -21.5960   14.2360 C.ar  626  O58626      0.0163
     28  C28      -11.3850  -18.6900    9.6570 C.3   626  O58626      0.0574
     29  C29      -12.4800  -19.6910    9.3220 C.ar  626  O58626     -0.0200
     30  C30      -13.8050  -19.5270    9.7750 C.ar  626  O58626     -0.0042
     31  C31      -14.7960  -20.4670    9.4550 C.ar  626  O58626     -0.0003
     32  C32      -14.4870  -21.5740    8.6600 C.ar  626  O58626     -0.0000
     33  C33      -13.1840  -21.7550    8.1980 C.ar  626  O58626     -0.0003
     34  C34      -12.1930  -20.8150    8.5330 C.ar  626  O58626     -0.0042
     35  C35      -13.4560  -23.8270   16.6900 C.3   626  O58626      0.1404
     36  C36      -12.9890  -25.2220   16.3580 C.2   626  O58626      0.3692
     37  O37      -12.0580  -25.6370   17.2500 O.co2 626  O58626     -0.2453
     38  O38      -13.3440  -25.9520   15.4500 O.co2 626  O58626     -0.2453
@<TRIPOS>BOND
     1    33    34   ar
     2    33    32   ar
     3    34    29   ar
     4    32    31   ar
     5    29    28    1
     6    29    30   ar
     7    31    30   ar
     8    28    18    1
     9    18    16    1
    10    18    19    1
    11    16    15   am
    12    13     5    1
    13    13    14    1
    14    20    19    2
    15     4     5   ar
    16     4     3   ar
    17    19    21   am
    18     5     6   ar
    19    12     3    1
    20     8     9   ar
    21     8     7   ar
    22     3     2   ar
    23     9    10   ar
    24     6     7    1
    25     6     1   ar
    26    15    14    1
    27    15    17    2
    28     7    11   ar
    29     2     1   ar
    30    21    22    1
    31    10    11   ar
    32    22    27   ar
    33    22    23   ar
    34    27    26   ar
    35    23    24   ar
    36    26    25   ar
    37    24    25   ar
    38    38    36   ar
    39    25    35    1
    40    36    35    1
    41    36    37   ar
