@<TRIPOS>MOLECULE
3sos_O61_A_1.pdb
 39 43 0 0 0
SMALL
GASTEIGER

@<TRIPOS>ATOM
      1  C20      -11.2460  -20.4500   12.9580 C.2   703  O61703      0.2495
      2  C21      -12.1550  -21.0960   13.9640 C.3   703  O61703      0.1227
      3  O22      -10.2530  -21.0490   12.5210 O.2   703  O61703     -0.2726
      4  C23      -13.5520  -20.9750   13.9500 C.2   703  O61703     -0.0103
      5  C24      -14.3510  -21.6330   14.9050 C.2   703  O61703      0.0297
      6  C25      -11.5700  -21.9170   14.9400 C.2   703  O61703     -0.0042
      7  C26      -12.3460  -22.5870   15.8920 C.2   703  O61703      0.0533
      8  C27      -13.7510  -22.4510   15.8950 C.2   703  O61703      0.1491
      9  N28      -14.5220  -23.1330   16.8790 N.2   703  O61703     -0.3352
     10  C29      -14.1480  -24.2980   17.5320 C.1   703  O61703      0.1919
     11  C30      -12.7660  -24.8870   17.2890 C.3   703  O61703      0.1965
     12  S31      -11.4970  -23.6020   17.0850 S.3   703  O61703     -0.0924
     13  O32      -14.9270  -24.8520   18.3080 O.2   703  O61703     -0.2132
     14  N19      -11.6020  -19.2030   12.5350 N.am  703  O61703     -0.1969
     15  C17      -10.8740  -18.4320   11.5240 C.3   703  O61703      0.1770
     16  C16      -10.5070  -17.0670   12.1290 C.2   703  O61703      0.2616
     17  O39      -11.1020  -16.5640   13.0870 O.2   703  O61703     -0.2715
     18  C18      -11.7810  -18.1900   10.3010 C.3   703  O61703      0.0574
     19  C33      -12.2480  -19.4240    9.5440 C.ar  703  O61703     -0.0200
     20  C34      -11.3330  -20.3840    9.0580 C.ar  703  O61703     -0.0042
     21  C38      -13.6240  -19.6260    9.3020 C.ar  703  O61703     -0.0042
     22  C35      -11.8020  -21.5030    8.3460 C.ar  703  O61703     -0.0003
     23  C37      -14.0810  -20.7480    8.5800 C.ar  703  O61703     -0.0003
     24  C36      -13.1720  -21.6830    8.0840 C.ar  703  O61703     -0.0000
     25  C1        -5.2830  -12.4570   12.7870 C.ar  703  O61703      0.0198
     26  C2        -5.8510  -11.1770   12.6950 C.ar  703  O61703      0.0129
     27  C3        -7.1100  -10.9780   12.1180 C.ar  703  O61703      0.0575
     28  C4        -7.8150  -12.0710   11.6210 C.ar  703  O61703      0.0087
     29  C5        -7.2670  -13.3670   11.7160 C.ar  703  O61703     -0.0018
     30  C6        -5.9850  -13.5740   12.3040 C.ar  703  O61703      0.0824
     31 CL7        -7.7980   -9.3880   12.0250 Cl    703  O61703     -0.0823
     32  N8        -5.4120  -14.8940   12.3780 N.ar  703  O61703     -0.1889
     33  C9        -5.8560  -16.0070   13.0650 C.ar  703  O61703      0.2258
     34  N10       -5.0630  -17.0360   12.8280 N.ar  703  O61703     -0.1045
     35  N11       -4.1110  -16.5840   11.9640 N.ar  703  O61703     -0.0222
     36  N12       -4.3120  -15.2970   11.6830 N.ar  703  O61703     -0.0385
     37  C13       -8.1280  -14.4560   11.1220 C.3   703  O61703      0.0513
     38  C14       -9.0780  -15.1310   12.0910 C.3   703  O61703      0.1199
     39  N15       -9.4580  -16.4170   11.5430 N.am  703  O61703     -0.2036
@<TRIPOS>BOND
     1    24    22   ar
     2    24    23   ar
     3    22    20   ar
     4    23    21   ar
     5    20    19   ar
     6    21    19   ar
     7    19    18    1
     8    18    15    1
     9    37    29    1
    10    37    38    1
    11    15    16    1
    12    15    14    1
    13    39    38    1
    14    39    16   am
    15    28    29   ar
    16    28    27   ar
    17    36    35   ar
    18    36    32   ar
    19    29    30   ar
    20    35    34   ar
    21    31    27    1
    22    27    26   ar
    23    16    17    2
    24    30    32    1
    25    30    25   ar
    26    32    33   ar
    27     3     1    2
    28    14     1   am
    29    26    25   ar
    30    34    33   ar
    31     1     2    1
    32     4     2    1
    33     4     5    2
    34     2     6    1
    35     5     8    1
    36     6     7    2
    37     7     8    1
    38     7    12    1
    39     8     9    2
    40     9    10    2
    41    12    11    1
    42    11    10    1
    43    10    13    2
