@<TRIPOS>MOLECULE
3sov_FUC_A_1.pdb
 10 10 0 0 0
SMALL
GASTEIGER

@<TRIPOS>ATOM
      1  C1       -22.5690  -17.4500  -17.3290 C.3   401  FUC401      0.1776
      2  C2       -23.8070  -18.1520  -16.8240 C.3   401  FUC401      0.2141
      3  C3       -23.4870  -18.9980  -15.6010 C.3   401  FUC401      0.2172
      4  C4       -22.8440  -18.1320  -14.5290 C.3   401  FUC401      0.2116
      5  C5       -21.6160  -17.4690  -15.1170 C.3   401  FUC401      0.1483
      6  C6       -21.0370  -16.5110  -14.1020 C.3   401  FUC401      0.0349
      7  O2       -24.1890  -18.9980  -17.8830 O.3   401  FUC401     -0.2176
      8  O3       -24.6660  -19.5560  -15.0780 O.3   401  FUC401     -0.2175
      9  O4       -23.7290  -17.1250  -14.1010 O.3   401  FUC401     -0.2177
     10  O5       -21.8560  -16.7490  -16.3210 O.3   401  FUC401     -0.3508
@<TRIPOS>BOND
     1     7     2    1
     2     1     2    1
     3     1    10    1
     4     2     3    1
     5    10     5    1
     6     3     8    1
     7     3     4    1
     8     5     4    1
     9     5     6    1
    10     4     9    1
