@<TRIPOS>MOLECULE
3sow_III_D_1.pdb
 47 46 0 0 0
SMALL
GASTEIGER

@<TRIPOS>ATOM
      1  N          8.7410   17.2420   44.5740 N.3     1  ALA1       -0.1231
      2  CA         8.0170   16.9320   43.3480 C.3     1  ALA1        0.1694
      3  C          8.9800   16.9590   42.1650 C.2     1  ALA1        0.2592
      4  O         10.0560   17.5460   42.2520 O.2     1  ALA1       -0.2718
      5  CB         6.8830   17.9130   43.1400 C.3     1  ALA1        0.0304
      6  N          8.5830   16.3850   41.0550 N.am    2  ARG2       -0.1966
      7  CA         9.4330   16.2490   39.9150 C.3     2  ARG2        0.1729
      8  C          9.5640   17.5500   39.1500 C.2     2  ARG2        0.2617
      9  O          8.6200   18.2340   39.0010 O.2     2  ARG2       -0.2715
     10  CB         8.8570   15.2000   38.9810 C.3     2  ARG2        0.0348
     11  CG         8.5940   13.8690   39.6180 C.3     2  ARG2        0.0492
     12  CD         8.1260   12.8160   38.6120 C.3     2  ARG2        0.2205
     13  NE         6.7870   13.0370   38.0860 N.pl3   2  ARG2       -0.0865
     14  CZ         6.5830   13.4210   36.8480 C.cat   2  ARG2        0.5346
     15  NH1        7.6320   13.6110   36.0990 N.pl3   2  ARG2        0.1354
     16  NH2        5.3810   13.5750   36.3410 N.pl3   2  ARG2        0.1354
     17  N         10.7420   17.8380   38.6230 N.am    3  THR3       -0.1937
     18  CA        10.8870   18.9920   37.7300 C.3     3  THR3        0.2028
     19  C         11.4490   18.5790   36.3710 C.2     3  THR3        0.2642
     20  O         12.0790   17.5330   36.2420 O.2     3  THR3       -0.2714
     21  CB        11.7750   20.1030   38.3300 C.3     3  THR3        0.1808
     22  OG1       13.0890   19.5910   38.5650 O.3     3  THR3       -0.2208
     23  CG2       11.1890   20.6250   39.6540 C.3     3  THR3        0.0379
     24  N         11.2140   19.4200   35.3650 N.am    4  LYS4       -0.1963
     25  CA        11.6700   19.1800   34.0170 C.3     4  LYS4        0.1728
     26  CB        11.2730   20.3340   33.0990 C.3     4  LYS4        0.0310
     27  CG        11.5020   20.1600   31.6250 C.3     4  LYS4        0.0001
     28  CD        10.7140   19.0400   30.9750 C.3     4  LYS4       -0.0222
     29  CE        10.6100   19.1350   29.4670 C.3     4  LYS4       -0.0733
     30  NZ        10.2890   17.9130   28.7330 N.4     4  LYS4        0.3857
     31  C         13.1250   18.8310   33.8930 C.2     4  LYS4        0.2616
     32  O         13.4840   17.8890   33.1910 O.2     4  LYS4       -0.2715
     33  CM1        8.8740   17.6210   28.9390 C.3     4  LYS4       -0.0960
     34  CM2       11.4020   17.0190   28.9050 C.3     4  LYS4       -0.0960
     35  CM3       10.3330   18.1310   27.2900 C.3     4  LYS4       -0.0960
     36  N         13.9630   19.6020   34.5720 N.am    5  GLN5       -0.1963
     37  CA        15.3820   19.3130   34.6670 C.3     5  GLN5        0.1728
     38  C         15.8000   19.3440   36.1270 C.2     5  GLN5        0.2616
     39  O         15.1270   19.9480   36.9670 O.2     5  GLN5       -0.2715
     40  CB        16.1770   20.3100   33.8760 C.3     5  GLN5        0.0334
     41  N         16.9100   18.6810   36.4260 N.am    6  THR6       -0.1951
     42  CA        17.4130   18.5840   37.7920 C.3     6  THR6        0.1897
     43  C         18.7910   19.2340   37.9250 C.2     6  THR6        0.2313
     44  O         19.2060   19.6370   39.0180 O.2     6  THR6       -0.2863
     45  CB        17.4690   17.1040   38.2510 C.3     6  THR6        0.1794
     46  OG1       16.1300   16.6010   38.3920 O.3     6  THR6       -0.2208
     47  CG2       18.2010   16.9710   39.5800 C.3     6  THR6        0.0378
@<TRIPOS>BOND
     1    35    30    1
     2    30    34    1
     3    30    33    1
     4    30    29    1
     5    29    28    1
     6    28    27    1
     7    27    26    1
     8    26    25    1
     9    32    31    2
    10    40    37    1
    11    31    25    1
    12    31    36   am
    13    25    24    1
    14    36    37    1
    15    37    38    1
    16    24    19   am
    17    15    14    1
    18    38    41   am
    19    38    39    2
    20    20    19    2
    21    16    14    1
    22    19    18    1
    23    41    42    1
    24    14    13    2
    25    18    21    1
    26    18    17    1
    27    42    43    1
    28    42    45    1
    29    43    44    2
    30    13    12    1
    31    45    46    1
    32    45    47    1
    33    21    22    1
    34    21    23    1
    35    12    11    1
    36    17     8   am
    37    10    11    1
    38    10     7    1
    39     9     8    2
    40     8     7    1
    41     7     6    1
    42     6     3   am
    43     3     4    2
    44     3     2    1
    45     5     2    1
    46     2     1    1
