@<TRIPOS>MOLECULE
3sp1_AMP_A_1.pdb
 23 25 0 0 0
SMALL
GASTEIGER

@<TRIPOS>ATOM
      1  P         -2.6200    7.3790  -72.2610 P.3   482  AMP482      0.5327
      2  O1P       -3.1620    8.6900  -72.8030 O.2   482  AMP482     -0.2224
      3  O2P       -1.0990    7.1630  -72.3500 O.3   482  AMP482     -0.1145
      4  O3P       -3.2350    7.0190  -70.9320 O.3   482  AMP482     -0.1145
      5  O5'       -3.2710    6.2970  -73.2650 O.3   482  AMP482     -0.2675
      6  C5'       -4.6500    6.3530  -73.6050 C.3   482  AMP482      0.1860
      7  C4'       -5.0650    5.0340  -74.2470 C.3   482  AMP482      0.1823
      8  O4'       -4.0210    4.4780  -75.0620 O.3   482  AMP482     -0.3135
      9  C3'       -5.4110    3.9920  -73.1850 C.3   482  AMP482      0.2184
     10  O3'       -6.5760    3.2440  -73.6140 O.3   482  AMP482     -0.2174
     11  C2'       -4.1580    3.1340  -73.1220 C.3   482  AMP482      0.2570
     12  O2'       -4.3890    1.7990  -72.6650 O.3   482  AMP482     -0.2130
     13  C1'       -3.7380    3.1590  -74.5810 C.3   482  AMP482      0.3186
     14  N9        -2.3100    2.8670  -74.7780 N.pl3 482  AMP482     -0.1439
     15  C8        -1.2680    3.4710  -74.1810 C.3   482  AMP482      0.3377
     16  N7        -0.0880    2.9500  -74.6150 N.2   482  AMP482     -0.2095
     17  C5        -0.3830    1.9830  -75.5040 C.2   482  AMP482      0.2526
     18  C6         0.3850    1.0360  -76.3530 C.2   482  AMP482      0.4393
     19  N6         1.7310    1.0020  -76.3500 N.pl3 482  AMP482      0.2180
     20  N1        -0.3330    0.1970  -77.1350 N.2   482  AMP482      0.0021
     21  C2        -1.6840    0.2050  -77.1700 C.3   482  AMP482      0.5254
     22  N3        -2.4550    1.0450  -76.4290 N.2   482  AMP482     -0.0055
     23  C4        -1.8610    1.9390  -75.6010 C.2   482  AMP482      0.3518
@<TRIPOS>BOND
     1    21    20    1
     2    21    22    1
     3    20    18    2
     4    22    23    2
     5    18    19    1
     6    18    17    1
     7    23    17    1
     8    23    14    1
     9    17    16    2
    10     8    13    1
    11     8     7    1
    12    14    13    1
    13    14    15    1
    14    16    15    1
    15    13    11    1
    16     7     6    1
    17     7     9    1
    18    10     9    1
    19     6     5    1
    20     5     1    1
    21     9    11    1
    22    11    12    1
    23     2     1    2
    24     3     1    1
    25     1     4    1
