@<TRIPOS>MOLECULE
3sp3_SUC_A_1.pdb
 23 24 0 0 0
SMALL
GASTEIGER

@<TRIPOS>ATOM
      1  C1        23.1350    5.8390   -7.5870 C.3   130  SUC130      0.2713
      2  C2        23.0180    6.7570   -6.3680 C.3   130  SUC130      0.2406
      3  C3        23.2510    5.9590   -5.0930 C.3   130  SUC130      0.2198
      4  C4        22.2890    4.7730   -5.0530 C.3   130  SUC130      0.2144
      5  C5        22.5040    3.9260   -6.3080 C.3   130  SUC130      0.1835
      6  C6        21.6060    2.6880   -6.3300 C.3   130  SUC130      0.2142
      7  O1        24.4790    5.4120   -7.7260 O.3   130  SUC130     -0.3033
      8  O2        23.9850    7.7860   -6.4310 O.3   130  SUC130     -0.2149
      9  O3        23.1260    6.8150   -3.9710 O.3   130  SUC130     -0.2174
     10  O4        22.5260    3.9770   -3.9120 O.3   130  SUC130     -0.2176
     11  O5        22.2600    4.7290   -7.4540 O.3   130  SUC130     -0.3256
     12  O6        20.2450    3.0790   -6.3720 O.3   130  SUC130     -0.2176
     13  C1'       25.3580    6.9480   -9.3950 C.3   130  SUC130      0.2406
     14  C2'       24.9990    5.5020   -9.0530 C.3   130  SUC130      0.2516
     15  C3'       26.2270    4.5930   -9.1580 C.3   130  SUC130      0.2381
     16  C4'       25.6320    3.2860   -9.6440 C.3   130  SUC130      0.2167
     17  C5'       24.5210    3.7770  -10.5670 C.3   130  SUC130      0.1835
     18  C6'       23.3970    2.7580  -10.6880 C.3   130  SUC130      0.2142
     19  O1'       26.0090    7.5730   -8.3070 O.3   130  SUC130     -0.2149
     20  O2'       24.0670    5.0070  -10.0140 O.3   130  SUC130     -0.3272
     21  O3'       26.8710    4.4380   -7.9150 O.3   130  SUC130     -0.2150
     22  O4'       26.5800    2.4670  -10.2970 O.3   130  SUC130     -0.2175
     23  O6'       22.6330    2.7310   -9.5020 O.3   130  SUC130     -0.2176
@<TRIPOS>BOND
     1    18    17    1
     2    18    23    1
     3    17    20    1
     4    17    16    1
     5    22    16    1
     6    20    14    1
     7    16    15    1
     8    13    14    1
     9    13    19    1
    10    15    14    1
    11    15    21    1
    12    14     7    1
    13     7     1    1
    14     1    11    1
    15     1     2    1
    16    11     5    1
    17     8     2    1
    18    12     6    1
    19     2     3    1
    20     6     5    1
    21     5     4    1
    22     3     4    1
    23     3     9    1
    24     4    10    1
