@<TRIPOS>MOLECULE
3sp6_IL2_A_1.pdb
 26 27 0 0 0
SMALL
GASTEIGER

@<TRIPOS>ATOM
      1  C1         3.1580   -1.0870   30.0940 C.3   901  IL2901      0.0109
      2  O1         3.5030    1.8590   27.9200 O.3   901  IL2901     -0.2228
      3  C2         2.9290   -1.6040   28.6830 C.3   901  IL2901      0.0073
      4  O2         4.8690    3.5150   32.7430 O.3   901  IL2901     -0.2183
      5  C3         3.3190    0.4110   29.9440 C.3   901  IL2901      0.0525
      6  O3        -2.1300   -1.2520   26.3950 O.co2 901  IL2901     -0.2457
      7  C4         3.4390   -0.5460   27.7160 C.3   901  IL2901      0.0336
      8  O4        -0.6880    0.3950   26.0760 O.co2 901  IL2901     -0.2457
      9  C5         3.9220    0.6320   28.5530 C.3   901  IL2901      0.1559
     10  C6         1.9520   -1.4630   30.9430 C.3   901  IL2901      0.0221
     11  C7         1.4320   -1.8400   28.4960 C.3   901  IL2901      0.0218
     12  C8         0.8940   -1.6540   29.8890 C.2   901  IL2901     -0.0485
     13  C9         4.1460    0.9580   31.0820 C.2   901  IL2901     -0.0260
     14  C10       -0.4160   -1.6190   30.1460 C.2   901  IL2901     -0.0346
     15  C11        3.5020    1.7070   31.9730 C.2   901  IL2901      0.0016
     16  C12       -1.3610   -1.8150   28.9890 C.3   901  IL2901      0.0260
     17  C13        4.1540    2.3400   33.1790 C.3   901  IL2901      0.1746
     18  C14       -2.3880   -0.6960   28.9910 C.3   901  IL2901      0.0164
     19  C15        3.0370    2.7710   34.1340 C.3   901  IL2901      0.0477
     20  C16       -1.9180    0.4270   28.0890 C.3   901  IL2901      0.1144
     21  C17        3.0620    2.0760   35.4860 C.3   901  IL2901      0.0789
     22  C18        3.0650    4.2830   34.3270 C.3   901  IL2901      0.0040
     23  C19       -1.5550   -0.1890   26.7610 C.2   901  IL2901      0.3649
     24  C20        2.6200    3.0580   36.5040 C.1   901  IL2901     -0.0909
     25  C21        2.3010    3.8340   37.3360 C.1   901  IL2901     -0.0900
     26  C22        1.9350    4.7740   38.4140 C.3   901  IL2901      0.0900
@<TRIPOS>BOND
     1     8    23   ar
     2     6    23   ar
     3    23    20    1
     4     7     9    1
     5     7     3    1
     6     2     9    1
     7    20    18    1
     8    11     3    1
     9    11    12    1
    10     9     5    1
    11     3     1    1
    12    16    18    1
    13    16    14    1
    14    12    14    2
    15    12    10    1
    16     5     1    1
    17     5    13    1
    18     1    10    1
    19    13    15    2
    20    15    17    1
    21     4    17    1
    22    17    19    1
    23    19    22    1
    24    19    21    1
    25    21    24    1
    26    24    25    3
    27    25    26    1
