@<TRIPOS>MOLECULE
3sp9_IL2_A_1.pdb
 26 27 0 0 0
SMALL
GASTEIGER

@<TRIPOS>ATOM
      1  C1        24.9870    1.2870    4.5830 C.3   901  IL2901      0.0109
      2  O1        23.1820   -1.7110    5.7200 O.3   901  IL2901     -0.2228
      3  C2        23.5940    1.7740    4.9270 C.3   901  IL2901      0.0073
      4  O2        27.9370   -3.7310    5.1990 O.3   901  IL2901     -0.2183
      5  C3        24.9200   -0.2200    4.7890 C.3   901  IL2901      0.0525
      6  O3        18.7010    0.7100    0.9060 O.co2 901  IL2901     -0.2457
      7  C4        22.9150    0.7200    5.8000 C.3   901  IL2901      0.0336
      8  O4        20.0470    0.2940    2.5610 O.co2 901  IL2901     -0.2457
      9  C5        23.8780   -0.4620    5.8850 C.3   901  IL2901      0.1559
     10  C6        25.3070    1.7040    3.1470 C.3   901  IL2901      0.0221
     11  C7        22.8530    1.9740    3.6160 C.3   901  IL2901      0.0218
     12  C8        23.9310    1.8190    2.5760 C.2   901  IL2901     -0.0485
     13  C9        26.2920   -0.7910    5.1080 C.2   901  IL2901     -0.0260
     14  C10       23.6460    1.7280    1.2650 C.2   901  IL2901     -0.0346
     15  C11       26.7470   -1.8200    4.3920 C.2   901  IL2901      0.0016
     16  C12       22.1850    1.8400    0.8810 C.3   901  IL2901      0.0260
     17  C13       28.1080   -2.4350    4.6220 C.3   901  IL2901      0.1746
     18  C14       21.7850    0.8050   -0.1650 C.3   901  IL2901      0.0164
     19  C15       28.7280   -2.5900    3.2320 C.3   901  IL2901      0.0477
     20  C16       20.8340   -0.2660    0.3720 C.3   901  IL2901      0.1144
     21  C17       30.1540   -2.1680    3.1410 C.3   901  IL2901      0.0789
     22  C18       28.6450   -4.0260    2.7170 C.3   901  IL2901      0.0040
     23  C19       19.7960    0.2900    1.3320 C.2   901  IL2901      0.3649
     24  C20       30.7630   -2.9320    2.0320 C.1   901  IL2901     -0.0909
     25  C21       31.3780   -3.5560    1.2460 C.1   901  IL2901     -0.0900
     26  C22       32.2420   -4.2230    0.2660 C.3   901  IL2901      0.0900
@<TRIPOS>BOND
     1    18    20    1
     2    18    16    1
     3    26    25    1
     4    20    23    1
     5    16    14    1
     6     6    23   ar
     7    25    24    3
     8    14    12    2
     9    23     8   ar
    10    24    21    1
    11    12    10    1
    12    12    11    1
    13    22    19    1
    14    21    19    1
    15    10     1    1
    16    19    17    1
    17    11     3    1
    18    15    17    1
    19    15    13    2
    20     1     5    1
    21     1     3    1
    22    17     4    1
    23     5    13    1
    24     5     9    1
    25     3     7    1
    26     2     9    1
    27     7     9    1
