@<TRIPOS>MOLECULE
3spa_III_B_1.pdb
 45 44 0 0 0
SMALL
GASTEIGER

@<TRIPOS>ATOM
      1  N        -45.6310   37.4350  -17.5470 N.3     4  UNK4       -0.1231
      2  CA       -44.7520   36.3510  -17.1060 C.3     4  UNK4        0.1694
      3  C        -45.2770   35.6270  -15.8640 C.2     4  UNK4        0.2592
      4  O        -44.9320   34.4610  -15.6540 O.2     4  UNK4       -0.2718
      5  CB       -43.3480   36.8780  -16.8530 C.3     4  UNK4        0.0304
      6  N        -46.1150   36.3130  -15.0500 N.am    5  UNK5       -0.1966
      7  CA       -46.7290   35.7720  -13.8290 C.3     5  UNK5        0.1728
      8  C        -47.7370   34.6490  -14.1370 C.2     5  UNK5        0.2616
      9  O        -48.0390   33.8380  -13.2550 O.2     5  UNK5       -0.2715
     10  CB       -47.4050   36.8880  -13.0440 C.3     5  UNK5        0.0334
     11  N        -48.2340   34.6010  -15.3960 N.am    6  UNK6       -0.1963
     12  CA       -49.1850   33.6100  -15.8920 C.3     6  UNK6        0.1728
     13  C        -48.5580   32.2060  -16.0120 C.2     6  UNK6        0.2616
     14  O        -48.8870   31.3380  -15.2000 O.2     6  UNK6       -0.2715
     15  CB       -49.7730   34.0620  -17.2240 C.3     6  UNK6        0.0334
     16  N        -47.6400   31.9950  -16.9890 N.am    7  UNK7       -0.1963
     17  CA       -46.9720   30.7070  -17.2370 C.3     7  UNK7        0.1728
     18  C        -46.1460   30.1810  -16.0540 C.2     7  UNK7        0.2616
     19  O        -46.0080   28.9640  -15.9130 O.2     7  UNK7       -0.2715
     20  CB       -46.1130   30.7870  -18.4900 C.3     7  UNK7        0.0334
     21  N        -45.6160   31.0940  -15.2050 N.am    8  UNK8       -0.1963
     22  CA       -44.8050   30.7640  -14.0280 C.3     8  UNK8        0.1728
     23  C        -45.6240   30.1150  -12.9100 C.2     8  UNK8        0.2616
     24  O        -45.1980   29.0970  -12.3670 O.2     8  UNK8       -0.2715
     25  CB       -44.0840   32.0040  -13.5120 C.3     8  UNK8        0.0334
     26  N        -46.8010   30.6830  -12.5820 N.am    9  UNK9       -0.1963
     27  CA       -47.6860   30.1740  -11.5270 C.3     9  UNK9        0.1728
     28  C        -48.2850   28.7830  -11.8190 C.2     9  UNK9        0.2616
     29  O        -48.6360   28.0670  -10.8760 O.2     9  UNK9       -0.2715
     30  CB       -48.7900   31.1800  -11.2360 C.3     9  UNK9        0.0334
     31  N        -48.3880   28.4050  -13.1160 N.am   10  UNK10      -0.1963
     32  CA       -48.9270   27.1170  -13.5710 C.3    10  UNK10       0.1728
     33  C        -48.0230   25.9370  -13.2010 C.2    10  UNK10       0.2616
     34  O        -48.5330   24.8520  -12.9160 O.2    10  UNK10      -0.2715
     35  CB       -49.1660   27.1440  -15.0740 C.3    10  UNK10       0.0334
     36  N        -46.6870   26.1530  -13.1980 N.am   11  UNK11      -0.1963
     37  CA       -45.6950   25.1300  -12.8540 C.3    11  UNK11       0.1728
     38  C        -45.6830   24.8420  -11.3480 C.2    11  UNK11       0.2616
     39  O        -45.8490   23.6870  -10.9530 O.2    11  UNK11      -0.2715
     40  CB       -44.3110   25.5460  -13.3350 C.3    11  UNK11       0.0334
     41  N        -45.5150   25.8900  -10.5130 N.am   12  UNK12      -0.1977
     42  CA       -45.4850   25.7720   -9.0540 C.3    12  UNK12       0.1597
     43  C        -46.8720   25.9960   -8.4580 C.2    12  UNK12       0.2287
     44  O        -47.6020   25.0370   -8.2140 O.2    12  UNK12      -0.2864
     45  CB       -44.4930   26.7660   -8.4670 C.3    12  UNK12       0.0319
@<TRIPOS>BOND
     1    20    17    1
     2     1     2    1
     3    17    16    1
     4    17    18    1
     5    15    12    1
     6     2     5    1
     7     2     3    1
     8    16    13   am
     9    18    19    2
    10    18    21   am
    11    13    12    1
    12    13    14    2
    13    12    11    1
    14     3     4    2
    15     3     6   am
    16    11     8   am
    17    21    22    1
    18    35    32    1
    19     6     7    1
    20     8     7    1
    21     8     9    2
    22    22    25    1
    23    22    23    1
    24     7    10    1
    25    32    33    1
    26    32    31    1
    27    40    37    1
    28    33    36   am
    29    33    34    2
    30    36    37    1
    31    31    28   am
    32    23    26   am
    33    23    24    2
    34    37    38    1
    35    26    27    1
    36    28    27    1
    37    28    29    2
    38    27    30    1
    39    38    39    2
    40    38    41   am
    41    41    42    1
    42    42    45    1
    43    42    43    1
    44    43    44    2
