@<TRIPOS>MOLECULE
3spc_P8P_A_1.pdb
 28 27 0 0 0
SMALL
GASTEIGER

@<TRIPOS>ATOM
      1  O1        18.4910    8.8970   62.7010 O.3   379  P8P379     -0.2261
      2  P1        19.3090    9.0770   61.3210 P.3   379  P8P379      0.2231
      3  P2        18.9050    7.8010   63.8090 P.3   379  P8P379      0.5373
      4  O11       20.3840   10.1210   61.5220 O.3   379  P8P379     -0.4370
      5  O12       19.6840    7.7060   60.8060 O.2   379  P8P379     -0.5169
      6  O13       18.1560    9.7010   60.3800 O.3   379  P8P379     -0.3098
      7  C1A       14.6910   10.2990   58.7770 C.2   379  P8P379      0.3171
      8  O1A       14.1050   11.0350   59.5540 O.2   379  P8P379     -0.2501
      9  C1B       18.9980    9.0880   55.3700 C.2   379  P8P379      0.3171
     10  O1B       18.8170    7.8870   55.4930 O.2   379  P8P379     -0.2501
     11  C1C       18.4090   10.2050   59.0690 C.3   379  P8P379      0.1964
     12  O21       17.8600    7.9620   64.8900 O.3   379  P8P379     -0.1143
     13  O22       20.3020    8.2050   64.2190 O.3   379  P8P379     -0.1143
     14  O23       18.8400    6.4870   63.0690 O.2   379  P8P379     -0.2221
     15  C2A       14.0100    9.8620   57.5000 C.3   379  P8P379      0.1096
     16  C2B       19.9350    9.6160   54.3080 C.3   379  P8P379      0.1096
     17  C2C       17.0860   10.3330   58.3160 C.3   379  P8P379      0.2420
     18  O2C       16.0260    9.8310   59.1360 O.3   379  P8P379     -0.4457
     19  C3A       12.6020   10.4470   57.4520 C.3   379  P8P379      0.0116
     20  C3B       21.3590    9.6470   54.8520 C.3   379  P8P379      0.0116
     21  C3C       17.2010    9.5190   57.0350 C.3   379  P8P379      0.2543
     22  O3C       18.3080    9.9980   56.2720 O.3   379  P8P379     -0.4444
     23  C4A       11.9280   10.1480   56.1180 C.3   379  P8P379      0.0006
     24  C4B       22.3540    9.9810   53.7470 C.3   379  P8P379      0.0006
     25  C5A       10.6190   10.9170   55.9770 C.3   379  P8P379      0.0000
     26  C6A       10.0520   10.7610   54.5710 C.3   379  P8P379      0.0000
     27  C7A        8.7260   11.4990   54.4100 C.3   379  P8P379      0.0000
     28  C8A        8.9020   12.9960   54.5470 C.3   379  P8P379      0.0000
@<TRIPOS>BOND
     1    24    20    1
     2    16    20    1
     3    16     9    1
     4    27    28    1
     5    27    26    1
     6    26    25    1
     7     9    10    2
     8     9    22    1
     9    25    23    1
    10    23    19    1
    11    22    21    1
    12    21    17    1
    13    19    15    1
    14    15     7    1
    15    17    11    1
    16    17    18    1
    17     7    18    1
    18     7     8    2
    19    11     6    1
    20     6     2    1
    21     5     2    2
    22     2     4    1
    23     2     1    1
    24     1     3    1
    25    14     3    2
    26     3    13    1
    27     3    12    1
