@<TRIPOS>MOLECULE
3spf_B50_A_1.pdb
 37 40 0 0 0
SMALL
GASTEIGER

@<TRIPOS>ATOM
      1  CAA       23.7300    6.8970  -29.7360 C.3   501  B50501      0.0897
      2  OAB       30.7630    9.1460  -24.7380 O.2   501  B50501     -0.2668
      3  OAC       27.4610    5.1040  -24.6060 O.3   501  B50501     -0.2176
      4  OAD       25.3160    6.0970  -23.0680 O.3   501  B50501     -0.2203
      5 CLAE       27.8130   14.7200  -17.1220 Cl    501  B50501     -0.0822
      6  CAF       30.2610   14.8080  -24.3950 C.ar  501  B50501      0.0000
      7  CAG       28.9150   14.4950  -24.1990 C.ar  501  B50501      0.0000
      8  CAH       31.2540   13.8970  -24.0230 C.ar  501  B50501      0.0000
      9  CAI       28.5570   13.2740  -23.6280 C.ar  501  B50501      0.0000
     10  CAJ       30.8900   12.6740  -23.4550 C.ar  501  B50501      0.0000
     11  CAK       27.0500   12.7290  -18.7640 C.ar  501  B50501      0.0114
     12  CAL       29.2730   13.6360  -19.0800 C.ar  501  B50501      0.0114
     13  CAM       27.2610   11.8320  -19.8140 C.ar  501  B50501      0.0009
     14  CAN       29.4860   12.7350  -20.1220 C.ar  501  B50501      0.0009
     15  CAO       28.4980    9.6460  -21.3520 C.ar  501  B50501      0.0760
     16  CAP       27.0100    6.4500  -24.7530 C.3   501  B50501      0.2148
     17  CAQ       28.8970    8.7250  -27.4880 C.3   501  B50501      0.0408
     18  CAR       29.2910   10.1170  -26.9830 C.3   501  B50501      0.1170
     19  CAS       27.4470    6.9640  -22.3050 C.3   501  B50501      0.0601
     20  CAT       27.3850    8.5090  -27.3460 C.3   501  B50501      0.0740
     21  CAU       25.4380    8.5460  -30.0970 C.3   501  B50501      0.0897
     22  CAV       24.4000    8.3150  -27.9090 C.3   501  B50501      0.0897
     23  CAW       26.6840    9.2460  -29.5480 C.3   501  B50501      0.0897
     24  CAX       25.2220    9.5770  -27.5920 C.3   501  B50501      0.0897
     25  CAY       28.7750    7.5870  -22.7600 C.3   501  B50501      0.1089
     26  NAZ       28.9510   10.2600  -25.5570 N.am  501  B50501     -0.2004
     27  CBA       29.7170    9.7720  -24.5660 C.2   501  B50501      0.2807
     28  CBB       28.0540   13.6340  -18.4050 C.ar  501  B50501      0.0577
     29  CBC       28.4780   11.8450  -20.5140 C.ar  501  B50501      0.0015
     30  CBD       29.5440   12.3580  -23.2590 C.ar  501  B50501      0.0016
     31  CBE       28.6980   10.9590  -21.4960 C.ar  501  B50501      0.0188
     32  CBF       29.2030   11.1790  -22.7160 C.ar  501  B50501      0.0218
     33  CBG       29.2620    9.9990  -23.3300 C.ar  501  B50501      0.1157
     34  CBH       26.4050    6.9490  -23.4360 C.3   501  B50501      0.1867
     35  NBI       24.8590    7.6090  -29.1210 N.3   501  B50501     -0.2691
     36  NBJ       26.6090    9.5100  -28.0970 N.3   501  B50501     -0.2703
     37  NBK       28.8450    9.0480  -22.4910 N.ar  501  B50501     -0.3224
@<TRIPOS>BOND
     1    21    23    1
     2    21    35    1
     3     1    35    1
     4    23    36    1
     5    35    22    1
     6    36    24    1
     7    36    20    1
     8    22    24    1
     9    17    20    1
    10    17    18    1
    11    18    26    1
    12    26    27   am
    13    16     3    1
    14    16    34    1
    15     2    27    2
    16    27    33    1
    17     6     7   ar
    18     6     8   ar
    19     7     9   ar
    20     8    10   ar
    21     9    30   ar
    22    10    30   ar
    23    34     4    1
    24    34    19    1
    25    33    32   ar
    26    33    37   ar
    27    30    32    1
    28    25    37    1
    29    25    19    1
    30    32    31   ar
    31    37    15   ar
    32    31    15   ar
    33    31    29    1
    34    29    14   ar
    35    29    13   ar
    36    14    12   ar
    37    13    11   ar
    38    12    28   ar
    39    11    28   ar
    40    28     5    1
