@<TRIPOS>MOLECULE
3spg_PIO_A_1.pdb
 38 38 0 0 0
SMALL
GASTEIGER

@<TRIPOS>ATOM
      1  C1       -31.6990  -21.8330    9.3990 C.3   400  PIO400      0.1873
      2  C2       -30.7080  -20.7990    8.8860 C.3   400  PIO400      0.2146
      3  C3       -29.9660  -21.3850    7.6910 C.3   400  PIO400      0.2146
      4  C4       -30.9310  -21.7000    6.5530 C.3   400  PIO400      0.1892
      5  C5       -32.0950  -22.5860    6.9960 C.3   400  PIO400      0.1891
      6  C6       -32.7240  -22.1150    8.3130 C.3   400  PIO400      0.2119
      7  O1       -32.4380  -21.3680   10.5290 O.3   400  PIO400     -0.3111
      8  O2       -31.3970  -19.6040    8.4980 O.3   400  PIO400     -0.2176
      9  O3       -28.9840  -20.4470    7.2360 O.3   400  PIO400     -0.2176
     10  O4       -30.2310  -22.3690    5.5010 O.3   400  PIO400     -0.2674
     11  O5       -33.0540  -22.5530    5.9380 O.3   400  PIO400     -0.2674
     12  O6       -33.6300  -23.0870    8.8390 O.3   400  PIO400     -0.2177
     13  P1       -31.7850  -20.9840   11.9540 P.3   400  PIO400      0.2142
     14  O11      -30.5230  -20.1850   11.7120 O.2   400  PIO400     -0.5172
     15  O12      -32.9140  -20.3690   12.7430 O.3   400  PIO400     -0.4373
     16  O13      -31.3940  -22.3970   12.6450 O.3   400  PIO400     -0.3100
     17  P4       -30.1090  -21.7080    4.0270 P.3   400  PIO400      0.5327
     18  O41      -28.9260  -20.7800    4.2030 O.3   400  PIO400     -0.1145
     19  O42      -31.4350  -21.0160    3.7710 O.3   400  PIO400     -0.1145
     20  O43      -29.8370  -22.8840    3.1120 O.2   400  PIO400     -0.2224
     21  P5       -34.2290  -23.6460    5.7720 P.3   400  PIO400      0.5327
     22  O53      -35.2510  -23.2480    6.8120 O.3   400  PIO400     -0.1145
     23  O52      -33.5490  -24.9780    6.0010 O.3   400  PIO400     -0.1145
     24  O51      -34.7240  -23.4550    4.3570 O.2   400  PIO400     -0.2224
     25  C1C      -30.1280  -22.5750   13.2940 C.3   400  PIO400      0.1964
     26  C2C      -30.1700  -23.4840   14.5340 C.3   400  PIO400      0.2420
     27  C3C      -30.5490  -22.6840   15.7800 C.3   400  PIO400      0.2543
     28  O2C      -31.1060  -24.5500   14.3710 O.3   400  PIO400     -0.4457
     29  O3C      -31.9410  -22.8250   16.0670 O.3   400  PIO400     -0.4444
     30  C1A      -30.4620  -25.8470   14.2340 C.2   400  PIO400      0.3171
     31  O1A      -29.6690  -26.0260   13.3240 O.2   400  PIO400     -0.2501
     32  C2A      -30.7890  -26.9680   15.1900 C.3   400  PIO400      0.1096
     33  C3A      -29.9910  -26.8000   16.4760 C.3   400  PIO400      0.0122
     34  C1B      -32.4380  -22.7700   17.4370 C.2   400  PIO400      0.3171
     35  O1B      -33.5800  -22.3890   17.6370 O.2   400  PIO400     -0.2501
     36  C2B      -31.5770  -23.1870   18.6060 C.3   400  PIO400      0.1096
     37  C3B      -32.4830  -23.6670   19.7380 C.3   400  PIO400      0.0116
     38  C4B      -31.7500  -24.5930   20.7070 C.3   400  PIO400      0.0006
@<TRIPOS>BOND
     1    20    17    2
     2    19    17    1
     3    17    18    1
     4    17    10    1
     5    24    21    2
     6    10     4    1
     7    21    11    1
     8    21    23    1
     9    21    22    1
    10    11     5    1
    11     4     5    1
    12     4     3    1
    13     5     6    1
    14     9     3    1
    15     3     2    1
    16     6    12    1
    17     6     1    1
    18     8     2    1
    19     2     1    1
    20     1     7    1
    21     7    13    1
    22    14    13    2
    23    13    16    1
    24    13    15    1
    25    16    25    1
    26    25    26    1
    27    31    30    2
    28    30    28    1
    29    30    32    1
    30    28    26    1
    31    26    27    1
    32    32    33    1
    33    27    29    1
    34    29    34    1
    35    34    35    2
    36    34    36    1
    37    36    37    1
    38    37    38    1
