@<TRIPOS>MOLECULE
3sph_PIO_A_1.pdb
 40 40 0 0 0
SMALL
GASTEIGER

@<TRIPOS>ATOM
      1  C1       -22.1910  -31.3200  -30.9220 C.3   400  PIO400      0.1873
      2  C2       -21.1070  -30.3700  -30.4400 C.3   400  PIO400      0.2146
      3  C3       -21.7540  -29.4660  -29.4060 C.3   400  PIO400      0.2146
      4  C4       -22.0710  -30.3030  -28.1700 C.3   400  PIO400      0.1892
      5  C5       -23.0050  -31.4710  -28.5340 C.3   400  PIO400      0.1891
      6  C6       -22.5370  -32.2480  -29.7690 C.3   400  PIO400      0.2119
      7  O1       -21.8020  -32.1020  -32.0550 O.3   400  PIO400     -0.3111
      8  O2       -20.0350  -31.0980  -29.8290 O.3   400  PIO400     -0.2176
      9  O3       -20.9000  -28.3590  -29.0900 O.3   400  PIO400     -0.2176
     10  O4       -22.6720  -29.4790  -27.1620 O.3   400  PIO400     -0.2674
     11  O5       -23.1110  -32.3600  -27.4140 O.3   400  PIO400     -0.2674
     12  O6       -23.5510  -33.1580  -30.2070 O.3   400  PIO400     -0.2177
     13  P1       -21.5400  -31.4670  -33.5180 P.3   400  PIO400      0.2142
     14  O11      -20.7250  -30.2100  -33.3510 O.3   400  PIO400     -0.4373
     15  O12      -21.0060  -32.6050  -34.3620 O.2   400  PIO400     -0.5172
     16  O13      -22.9920  -31.0250  -34.0920 O.3   400  PIO400     -0.3100
     17  P4       -22.0870  -29.3890  -25.6570 P.3   400  PIO400      0.5327
     18  O41      -21.0090  -28.3390  -25.7830 O.2   400  PIO400     -0.2224
     19  O42      -21.5660  -30.7750  -25.3340 O.3   400  PIO400     -0.1145
     20  O43      -23.2760  -28.9460  -24.8340 O.3   400  PIO400     -0.1145
     21  P5       -24.2740  -33.4750  -27.2900 P.3   400  PIO400      0.5327
     22  O53      -23.7290  -34.6680  -28.0420 O.2   400  PIO400     -0.2224
     23  O52      -25.4820  -32.8180  -27.9170 O.3   400  PIO400     -0.1145
     24  O51      -24.3810  -33.7020  -25.8000 O.3   400  PIO400     -0.1145
     25  C1C      -23.1330  -29.7950  -34.8180 C.3   400  PIO400      0.1964
     26  C2C      -24.2120  -29.8050  -35.9130 C.3   400  PIO400      0.2420
     27  C3C      -23.5960  -30.0730  -37.2930 C.3   400  PIO400      0.2543
     28  O2C      -25.2200  -30.7790  -35.6300 O.3   400  PIO400     -0.4457
     29  O3C      -23.3930  -31.4650  -37.5470 O.3   400  PIO400     -0.4444
     30  C1A      -26.5460  -30.2060  -35.3960 C.2   400  PIO400      0.3171
     31  O1A      -26.6750  -29.3060  -34.5760 O.2   400  PIO400     -0.2501
     32  C2A      -27.7630  -30.7390  -36.1310 C.3   400  PIO400      0.1096
     33  C3A      -27.8170  -30.2400  -37.5740 C.3   400  PIO400      0.0116
     34  C4A      -29.0660  -30.7520  -38.2870 C.3   400  PIO400      0.0006
     35  C5A      -29.0580  -30.3940  -39.7710 C.3   400  PIO400      0.0000
     36  C1B      -23.2710  -31.9770  -38.9100 C.2   400  PIO400      0.3171
     37  O1B      -22.8420  -33.1090  -39.0850 O.2   400  PIO400     -0.2501
     38  C2B      -23.6700  -31.1300  -40.0990 C.3   400  PIO400      0.1096
     39  C3B      -24.2910  -32.0150  -41.1770 C.3   400  PIO400      0.0116
     40  C4B      -25.0750  -31.1920  -42.1940 C.3   400  PIO400      0.0006
@<TRIPOS>BOND
     1    40    39    1
     2    39    38    1
     3    38    36    1
     4    35    34    1
     5    37    36    2
     6    36    29    1
     7    34    33    1
     8    33    32    1
     9    29    27    1
    10    27    26    1
    11    32    30    1
    12    26    28    1
    13    26    25    1
    14    28    30    1
    15    30    31    2
    16    25    16    1
    17    15    13    2
    18    16    13    1
    19    13    14    1
    20    13     7    1
    21     7     1    1
    22     1     2    1
    23     1     6    1
    24     2     8    1
    25     2     3    1
    26    12     6    1
    27     6     5    1
    28     3     9    1
    29     3     4    1
    30     5     4    1
    31     5    11    1
    32     4    10    1
    33    22    21    2
    34    23    21    1
    35    11    21    1
    36    21    24    1
    37    10    17    1
    38    18    17    2
    39    17    19    1
    40    17    20    1
