@<TRIPOS>MOLECULE
3spi_PIO_A_1.pdb
 40 40 0 0 0
SMALL
GASTEIGER

@<TRIPOS>ATOM
      1  C1       -31.6060  -22.5590   31.0960 C.3   400  PIO400      0.1873
      2  C2       -30.7110  -21.4170   30.6530 C.3   400  PIO400      0.2146
      3  C3       -29.8130  -21.9510   29.5520 C.3   400  PIO400      0.2146
      4  C4       -30.6450  -22.3320   28.3310 C.3   400  PIO400      0.1892
      5  C5       -31.7950  -23.2820   28.6800 C.3   400  PIO400      0.1891
      6  C6       -32.5560  -22.8720   29.9460 C.3   400  PIO400      0.2119
      7  O1       -32.3400  -22.2360   32.2810 O.3   400  PIO400     -0.3111
      8  O2       -31.5060  -20.3400   30.1470 O.3   400  PIO400     -0.2176
      9  O3       -28.8450  -20.9600   29.1930 O.3   400  PIO400     -0.2176
     10  O4       -29.7910  -22.9660   27.3790 O.3   400  PIO400     -0.2674
     11  O5       -32.6840  -23.3200   27.5610 O.3   400  PIO400     -0.2674
     12  O6       -33.4500  -23.9170   30.3460 O.3   400  PIO400     -0.2177
     13  P1       -31.6150  -21.8810   33.6800 P.3   400  PIO400      0.2142
     14  O11      -30.2840  -21.2190   33.4150 O.2   400  PIO400     -0.5172
     15  O12      -32.6360  -21.1650   34.5310 O.3   400  PIO400     -0.4373
     16  O13      -31.3210  -23.3030   34.3840 O.3   400  PIO400     -0.3100
     17  P4       -29.7070  -22.4480   25.8550 P.3   400  PIO400      0.5327
     18  O41      -28.7830  -21.2570   25.9400 O.3   400  PIO400     -0.1145
     19  O42      -31.1310  -22.1040   25.4900 O.3   400  PIO400     -0.1145
     20  O43      -29.1250  -23.6210   25.1030 O.2   400  PIO400     -0.2224
     21  P5       -33.8530  -24.4210   27.4180 P.3   400  PIO400      0.5327
     22  O53      -35.0100  -23.8370   28.1930 O.3   400  PIO400     -0.1145
     23  O52      -33.2580  -25.6720   28.0180 O.3   400  PIO400     -0.1145
     24  O51      -34.0970  -24.4920   25.9290 O.2   400  PIO400     -0.2224
     25  C1C      -30.0970  -23.4690   35.1040 C.3   400  PIO400      0.1964
     26  C2C      -30.1710  -24.5680   36.1640 C.3   400  PIO400      0.2420
     27  C3C      -30.4240  -23.9480   37.5350 C.3   400  PIO400      0.2543
     28  O2C      -31.2120  -25.4920   35.8480 O.3   400  PIO400     -0.4457
     29  O3C      -31.8110  -23.6920   37.7410 O.3   400  PIO400     -0.4444
     30  C1A      -30.6750  -26.7930   35.4770 C.2   400  PIO400      0.3171
     31  O1A      -29.8980  -26.8650   34.5390 O.2   400  PIO400     -0.2501
     32  C2A      -31.0910  -28.0410   36.2230 C.3   400  PIO400      0.1096
     33  C3A      -30.6750  -27.9710   37.6880 C.3   400  PIO400      0.0116
     34  C4A      -31.1860  -29.1920   38.4460 C.3   400  PIO400      0.0006
     35  C5A      -30.7650  -29.1590   39.9110 C.3   400  PIO400      0.0000
     36  C1B      -32.2980  -23.4510   39.0920 C.2   400  PIO400      0.3171
     37  O1B      -33.3990  -22.9500   39.2490 O.2   400  PIO400     -0.2501
     38  C2B      -31.4470  -23.8190   40.2850 C.3   400  PIO400      0.1096
     39  C3B      -32.2900  -24.5860   41.2970 C.3   400  PIO400      0.0116
     40  C4B      -31.4310  -25.1110   42.4420 C.3   400  PIO400      0.0006
@<TRIPOS>BOND
     1    20    17    2
     2    19    17    1
     3    17    18    1
     4    17    10    1
     5    24    21    2
     6    10     4    1
     7    21    11    1
     8    21    23    1
     9    21    22    1
    10    11     5    1
    11     4     5    1
    12     4     3    1
    13     5     6    1
    14     9     3    1
    15     3     2    1
    16     6    12    1
    17     6     1    1
    18     8     2    1
    19     2     1    1
    20     1     7    1
    21     7    13    1
    22    14    13    2
    23    13    16    1
    24    13    15    1
    25    16    25    1
    26    31    30    2
    27    25    26    1
    28    30    28    1
    29    30    32    1
    30    28    26    1
    31    26    27    1
    32    32    33    1
    33    27    29    1
    34    33    34    1
    35    29    36    1
    36    34    35    1
    37    36    37    2
    38    36    38    1
    39    38    39    1
    40    39    40    1
