@<TRIPOS>MOLECULE
3spk_TPV_A_1.pdb
 42 45 0 0 0
SMALL
GASTEIGER

@<TRIPOS>ATOM
      1  O1        -7.7450   16.0400   -0.7950 O.3   100  TPV100     -0.4524
      2  C2        -8.5840   15.3980    0.1920 C.2   100  TPV100      0.3401
      3  C3        -9.6250   16.1940    0.8240 C.2   100  TPV100      0.0918
      4  C4        -9.8320   17.4510    0.3960 C.2   100  TPV100      0.1791
      5  C5        -8.8550   18.1480   -0.5180 C.3   100  TPV100      0.1090
      6  C6        -8.2150   17.1830   -1.5000 C.3   100  TPV100      0.1438
      7  O7        -8.4010   14.2180    0.4830 O.2   100  TPV100     -0.2451
      8  O8       -10.8520   18.1660    0.8210 O.2   100  TPV100     -0.2913
      9  C9        -9.2520   16.7470   -2.5300 C.3   100  TPV100      0.0406
     10  C10       -8.5950   16.0650   -3.7180 C.3   100  TPV100      0.0036
     11  C11       -8.9820   16.7720   -5.0000 C.3   100  TPV100      0.0001
     12  C12       -7.0160   17.8680   -2.1410 C.3   100  TPV100      0.0452
     13  C13       -5.9150   18.1110   -1.1130 C.3   100  TPV100      0.0299
     14  C14       -4.7670   18.8620   -1.7660 C.ar  100  TPV100     -0.0221
     15  C15       -3.5820   18.2030   -2.0860 C.ar  100  TPV100     -0.0043
     16  C16       -2.5470   18.8770   -2.7330 C.ar  100  TPV100     -0.0003
     17  C17       -2.6860   20.2260   -3.0350 C.ar  100  TPV100     -0.0000
     18  C18       -3.8680   20.8900   -2.7150 C.ar  100  TPV100     -0.0003
     19  C19       -4.9110   20.2070   -2.1000 C.ar  100  TPV100     -0.0043
     20  C20      -10.4270   15.5510    1.9240 C.3   100  TPV100      0.0538
     21  C21      -11.9310   15.7580    1.7690 C.3   100  TPV100      0.0090
     22  C22      -12.4500   15.1860    0.4620 C.3   100  TPV100      0.0007
     23  C23       -9.9650   15.9060    3.2940 C.ar  100  TPV100     -0.0168
     24  C24       -9.1460   17.0030    3.5170 C.ar  100  TPV100     -0.0039
     25  C25       -8.6860   17.2700    4.8020 C.ar  100  TPV100      0.0011
     26  C26       -9.0210   16.4410    5.8710 C.ar  100  TPV100      0.0180
     27  C27       -9.8600   15.3460    5.6740 C.ar  100  TPV100      0.0908
     28  N28      -10.1480   14.4970    6.7170 N.pl3 100  TPV100     -0.0952
     29  C29      -10.2510   15.0550    4.3660 C.ar  100  TPV100      0.0141
     30  S30      -11.4570   14.7530    7.6290 S.O2  100  TPV100      0.1095
     31  O31      -11.4470   13.8010    8.7120 O.2   100  TPV100     -0.1468
     32  O32      -11.4130   16.1270    8.1070 O.2   100  TPV100     -0.1468
     33  C33      -12.7300   14.5650    6.6600 C.ar  100  TPV100      0.2078
     34  N34      -13.3940   15.6570    6.1900 N.ar  100  TPV100     -0.2242
     35  C35      -14.3400   15.5150    5.2350 C.ar  100  TPV100      0.1043
     36  C36      -14.7430   14.2590    4.7710 C.ar  100  TPV100      0.0906
     37  C37      -14.1020   13.1370    5.2820 C.ar  100  TPV100      0.0084
     38  C38      -13.1300   13.2870    6.2640 C.ar  100  TPV100      0.0398
     39  C39      -15.7560   14.1600    3.6420 C.3   100  TPV100      0.4200
     40  F40      -16.6670   15.1080    3.7300 F     100  TPV100     -0.1658
     41  F41      -16.3570   12.9800    3.6330 F     100  TPV100     -0.1658
     42  F42      -15.1600   14.2950    2.4670 F     100  TPV100     -0.1658
@<TRIPOS>BOND
     1    11    10    1
     2    10     9    1
     3    17    16   ar
     4    17    18   ar
     5    16    15   ar
     6    18    19   ar
     7     9     6    1
     8    12     6    1
     9    12    13    1
    10    19    14   ar
    11    15    14   ar
    12    14    13    1
    13     6     1    1
    14     6     5    1
    15     1     2    1
    16     5     4    1
    17     2     7    2
    18     2     3    1
    19     4     8    1
    20     4     3    2
    21    22    21    1
    22     3    20    1
    23    21    20    1
    24    20    23    1
    25    42    39    1
    26    23    24   ar
    27    23    29   ar
    28    24    25   ar
    29    41    39    1
    30    39    40    1
    31    39    36    1
    32    29    27   ar
    33    36    35   ar
    34    36    37   ar
    35    25    26   ar
    36    35    34   ar
    37    37    38   ar
    38    27    26   ar
    39    27    28    1
    40    34    33   ar
    41    38    33   ar
    42    33    30    1
    43    28    30    1
    44    30    32    2
    45    30    31    2
