@<TRIPOS>MOLECULE
3spl_AMP_A_1.pdb
 23 25 0 0 0
SMALL
GASTEIGER

@<TRIPOS>ATOM
      1  P         54.3580    7.3900  -22.4680 P.3   800  AMP800      0.5327
      2  O1P       54.4410    6.2150  -23.4160 O.2   800  AMP800     -0.2224
      3  O2P       55.1960    8.5700  -22.8990 O.3   800  AMP800     -0.1145
      4  O3P       52.9850    7.7600  -21.9530 O.3   800  AMP800     -0.1145
      5  O5'       55.0680    6.8200  -21.1410 O.3   800  AMP800     -0.2675
      6  C5'       56.2500    6.0260  -21.2450 C.3   800  AMP800      0.1860
      7  C4'       56.8840    5.9290  -19.8660 C.3   800  AMP800      0.1823
      8  O4'       57.5720    4.6880  -19.6890 O.3   800  AMP800     -0.3135
      9  C3'       57.9090    7.0330  -19.6890 C.3   800  AMP800      0.2184
     10  O3'       57.5570    7.7640  -18.5110 O.3   800  AMP800     -0.2174
     11  C2'       59.2450    6.3230  -19.5280 C.3   800  AMP800      0.2570
     12  O2'       60.0560    6.9960  -18.5650 O.3   800  AMP800     -0.2130
     13  C1'       58.8330    4.9330  -19.0650 C.3   800  AMP800      0.3186
     14  N9        59.7260    3.8220  -19.4600 N.pl3 800  AMP800     -0.1439
     15  C8        60.3980    3.6780  -20.6170 C.3   800  AMP800      0.3377
     16  N7        61.0940    2.5110  -20.6250 N.2   800  AMP800     -0.2095
     17  C5        60.8640    1.8890  -19.4510 C.2   800  AMP800      0.2526
     18  C6        61.2840    0.6250  -18.8010 C.2   800  AMP800      0.4393
     19  N6        62.1180   -0.2410  -19.4250 N.pl3 800  AMP800      0.2180
     20  N1        60.8080    0.3650  -17.5630 N.2   800  AMP800      0.0021
     21  C2        59.9780    1.2110  -16.9260 C.3   800  AMP800      0.5254
     22  N3        59.5600    2.3730  -17.4540 N.2   800  AMP800     -0.0055
     23  C4        59.9620    2.7590  -18.6890 C.2   800  AMP800      0.3518
@<TRIPOS>BOND
     1     2     1    2
     2     3     1    1
     3     1     4    1
     4     1     5    1
     5     6     5    1
     6     6     7    1
     7    16    15    1
     8    16    17    2
     9    15    14    1
    10     7     8    1
    11     7     9    1
    12     8    13    1
    13     9    11    1
    14     9    10    1
    15    11    13    1
    16    11    12    1
    17    14    13    1
    18    14    23    1
    19    17    18    1
    20    17    23    1
    21    19    18    1
    22    18    20    2
    23    23    22    2
    24    20    21    1
    25    22    21    1
