@<TRIPOS>MOLECULE
3spr_FC7_A_1.pdb
 41 46 0 0 0
SMALL
GASTEIGER

@<TRIPOS>ATOM
      1  C1        17.2760  -20.7530    4.0680 C.3   232  FC7232      0.2695
      2  O1        16.5460  -20.8000    2.8300 O.3   232  FC7232     -0.3285
      3  C2        16.3840  -21.1980    5.2400 C.3   232  FC7232      0.2404
      4  O2        15.6820  -22.3540    4.8370 O.3   232  FC7232     -0.2149
      5  C3        15.3560  -20.1130    5.5900 C.3   232  FC7232      0.2167
      6  O3        14.5140  -20.6240    6.6230 O.3   232  FC7232     -0.2175
      7  C4        16.0300  -18.7400    5.9460 C.3   232  FC7232      0.1801
      8  O4        15.0930  -17.6170    6.1030 O.3   232  FC7232     -0.3315
      9  C5        16.9070  -18.4010    4.7510 C.3   232  FC7232      0.1770
     10  O5        17.8140  -19.4350    4.3150 O.3   232  FC7232     -0.3259
     11  C6        17.7110  -17.1800    5.1060 C.3   232  FC7232      0.1767
     12  O6        16.8080  -16.0690    5.0950 O.3   232  FC7232     -0.3316
     13  OAA       16.5700  -22.8280    1.4060 O.3   232  FC7232     -0.2205
     14  CAB       16.6020  -21.6650    0.6440 C.3   232  FC7232      0.1789
     15  CAC       17.4260  -21.9730   -0.5930 C.3   232  FC7232      0.0329
     16  CAD       18.9170  -22.3070   -0.1290 C.3   232  FC7232      0.0027
     17  CAE       17.2980  -20.7840   -1.5770 C.3   232  FC7232      0.0026
     18  CAF       17.1340  -21.2720   -3.0250 C.3   232  FC7232      0.0002
     19  CAG       18.5850  -21.2110   -3.6000 C.3   232  FC7232      0.0025
     20  CAH       19.2080  -19.9910   -2.9540 C.3   232  FC7232      0.0297
     21  CAI       20.7600  -20.1180   -2.7960 C.3   232  FC7232      0.1422
     22  OAJ       21.4140  -20.2230   -4.0330 O.3   232  FC7232     -0.3511
     23  CAK       22.7340  -20.7460   -3.8260 C.3   232  FC7232      0.1741
     24  CAL       18.6750  -20.0590   -1.5430 C.3   232  FC7232      0.0026
     25  CAM       18.8680  -18.7510   -0.8160 C.3   232  FC7232      0.0025
     26  CAN       18.4920  -18.4710    0.6630 C.3   232  FC7232      0.0274
     27  CAO       19.7050  -18.6540    1.5680 C.3   232  FC7232      0.0025
     28  CAP       18.0180  -16.9750    0.6230 C.3   232  FC7232      0.1152
     29  OAQ       18.5720  -16.2210   -0.4370 O.3   232  FC7232     -0.3563
     30  CAR       17.5950  -16.0330   -1.5480 C.3   232  FC7232      0.1421
     31  CAS       16.3200  -16.7550   -1.1380 C.3   232  FC7232      0.0345
     32  CAT       16.5030  -16.9970    0.3470 C.3   232  FC7232      0.0298
     33  CAU       16.0680  -18.4260    0.5630 C.3   232  FC7232      0.0049
     34  CAV       14.6060  -18.3020    1.0360 C.3   232  FC7232      0.0002
     35  CAW       13.7460  -19.0630    0.0260 C.3   232  FC7232      0.0000
     36  CAX       14.2550  -18.4420    2.5310 C.3   232  FC7232      0.0000
     37  CAY       17.2070  -19.0960    1.3450 C.3   232  FC7232      0.0322
     38  CAZ       17.2670  -20.6350    1.5890 C.3   232  FC7232      0.1480
     39  CBG       15.6310  -16.2330    5.9850 C.3   232  FC7232      0.1875
     40  CBH       14.5010  -15.3600    5.3780 C.3   232  FC7232      0.0612
     41  CBI       16.0500  -15.8130    7.4030 C.3   232  FC7232      0.0612
@<TRIPOS>BOND
     1    22    23    1
     2    22    21    1
     3    19    18    1
     4    19    20    1
     5    18    17    1
     6    20    21    1
     7    20    24    1
     8    17    24    1
     9    17    15    1
    10    30    31    1
    11    30    29    1
    12    24    25    1
    13    31    32    1
    14    25    26    1
    15    15    16    1
    16    15    14    1
    17    29    28    1
    18    35    34    1
    19    32    33    1
    20    32    28    1
    21    33    34    1
    22    33    37    1
    23    28    26    1
    24    14    13    1
    25    14    38    1
    26    26    37    1
    27    26    27    1
    28    34    36    1
    29    37    38    1
    30    38     2    1
    31     2     1    1
    32     1    10    1
    33     1     3    1
    34    10     9    1
    35     9    11    1
    36     9     7    1
    37     4     3    1
    38    12    11    1
    39    12    39    1
    40     3     5    1
    41    40    39    1
    42     5     7    1
    43     5     6    1
    44     7     8    1
    45    39     8    1
    46    39    41    1
