@<TRIPOS>MOLECULE
3spt_UD1_A_1.pdb
 39 41 0 0 0
SMALL
GASTEIGER

@<TRIPOS>ATOM
      1  C1'       11.8130   23.5710   20.7540 C.3   498  UD1498      0.2633
      2  C2'       12.0880   23.8600   19.2830 C.3   498  UD1498      0.1845
      3  C3'       11.4340   22.8130   18.3900 C.3   498  UD1498      0.2094
      4  C4'       11.7630   21.4040   18.8680 C.3   498  UD1498      0.2136
      5  C5'       11.5080   21.2620   20.3640 C.3   498  UD1498      0.1834
      6  C6'       11.9080   19.8770   20.8570 C.3   498  UD1498      0.2142
      7  C7'       12.4270   26.2130   18.7990 C.2   498  UD1498      0.2420
      8  C8'       11.8440   27.4300   18.1430 C.3   498  UD1498      0.0964
      9  N2'       11.6000   25.1810   18.9380 N.am  498  UD1498     -0.1992
     10  O1'       10.4140   23.6790   21.0070 O.3   498  UD1498     -0.2864
     11  O3'       11.8940   22.9800   17.0440 O.3   498  UD1498     -0.2183
     12  O4'       10.9590   20.4580   18.1540 O.3   498  UD1498     -0.2176
     13  O5'       12.2530   22.2520   21.0690 O.3   498  UD1498     -0.3260
     14  O6'       11.9020   19.8590   22.2890 O.3   498  UD1498     -0.2176
     15  O7'       13.5850   26.1730   19.1810 O.2   498  UD1498     -0.2733
     16  N1        15.0260   28.6850   26.1510 N.am  498  UD1498     -0.1766
     17  C2        15.8110   29.8060   26.4910 C.1   498  UD1498      0.2845
     18  N3        15.4260   31.0350   26.1270 N.2   498  UD1498     -0.2452
     19  C4        14.2940   31.2190   25.4380 C.1   498  UD1498      0.2182
     20  C5        13.5020   30.1310   25.0910 C.2   498  UD1498      0.1242
     21  C6        13.8930   28.8510   25.4630 C.2   498  UD1498      0.0929
     22  O2        16.8720   29.6510   27.1340 O.2   498  UD1498     -0.1918
     23  O4        13.9470   32.3730   25.1060 O.2   498  UD1498     -0.2085
     24  C1B       15.4530   27.3420   26.5510 C.3   498  UD1498      0.2401
     25  C2B       14.4180   26.7410   27.4930 C.3   498  UD1498      0.2319
     26  O2'       15.0470   26.3890   28.7310 O.3   498  UD1498     -0.2157
     27  C3B       13.9040   25.4850   26.8120 C.3   498  UD1498      0.2158
     28  C4B       14.6480   25.3820   25.4880 C.3   498  UD1498      0.1799
     29  O4B       15.5330   26.5030   25.3950 O.3   498  UD1498     -0.3320
     30  O3B       14.2100   24.3440   27.6210 O.3   498  UD1498     -0.2175
     31  C5B       13.6780   25.4020   24.3130 C.3   498  UD1498      0.1813
     32  O5B       12.5190   26.1540   24.6660 O.3   498  UD1498     -0.3112
     33  PA        11.0540   25.4980   24.5550 P.3   498  UD1498      0.2189
     34  O1A       10.0320   26.5700   24.8500 O.2   498  UD1498     -0.5170
     35  O2A       11.0500   24.2140   25.3510 O.3   498  UD1498     -0.4371
     36  O3A       10.9530   25.1220   22.9930 O.3   498  UD1498     -0.2703
     37  PB         9.8750   24.0410   22.4800 P.3   498  UD1498      0.2208
     38  O1B        9.9950   22.8090   23.3440 O.3   498  UD1498     -0.4371
     39  O2B        8.5420   24.7350   22.3370 O.2   498  UD1498     -0.5170
@<TRIPOS>BOND
     1    11     3    1
     2     8     7    1
     3    12     4    1
     4     3     4    1
     5     3     2    1
     6     7     9   am
     7     7    15    2
     8     4     5    1
     9     9     2    1
    10     2     1    1
    11     5     6    1
    12     5    13    1
    13     1    10    1
    14     1    13    1
    15     6    14    1
    16    10    37    1
    17    39    37    2
    18    37    36    1
    19    37    38    1
    20    36    33    1
    21    31    32    1
    22    31    28    1
    23    33    32    1
    24    33    34    2
    25    33    35    1
    26    20    19    1
    27    20    21    2
    28    23    19    2
    29    29    28    1
    30    29    24    1
    31    19    18    2
    32    21    16    1
    33    28    27    1
    34    18    17    2
    35    16    17   am
    36    16    24    1
    37    17    22    2
    38    24    25    1
    39    27    25    1
    40    27    30    1
    41    25    26    1
