@<TRIPOS>MOLECULE
3spw_T7M_B_1.pdb
 28 28 0 0 0
SMALL
GASTEIGER

@<TRIPOS>ATOM
      1  C1        65.1000    5.4180    2.8830 C.3   435  T7M435      0.1874
      2  O1        64.0100    4.9110    3.6740 O.3   435  T7M435     -0.3111
      3  P1        63.8390    3.3370    4.0960 P.3   435  T7M435      0.2141
      4  C2        64.6730    6.6880    2.1240 C.3   435  T7M435      0.2146
      5  O2        63.5940    6.3700    1.2490 O.3   435  T7M435     -0.2176
      6  C3        65.8570    7.2720    1.3200 C.3   435  T7M435      0.2147
      7  O3        65.4860    8.4570    0.5970 O.3   435  T7M435     -0.2176
      8  C4        67.0440    7.5890    2.2410 C.3   435  T7M435      0.1919
      9  O4        68.1210    8.0880    1.4440 O.3   435  T7M435     -0.2673
     10  P4        69.0230    9.3680    1.8790 P.3   435  T7M435      0.5327
     11  C5        67.4900    6.3220    2.9860 C.3   435  T7M435      0.2147
     12  O5        68.5680    6.6410    3.8660 O.3   435  T7M435     -0.2176
     13  C6        66.3260    5.6850    3.7790 C.3   435  T7M435      0.2146
     14  O6        65.9450    6.5200    4.8810 O.3   435  T7M435     -0.2176
     15  C7        64.8560    3.4230    6.5000 C.3   435  T7M435      0.1857
     16  C8        64.4880    3.0620    7.9360 C.3   435  T7M435      0.2252
     17  C9        65.5290    2.1060    8.5350 C.3   435  T7M435      0.2437
     18  C11       64.4410    0.7610   10.1670 C.2   435  T7M435      0.3176
     19  O11       64.9210    2.4200    3.6790 O.3   435  T7M435     -0.4373
     20  O12       62.3960    2.9050    3.5180 O.2   435  T7M435     -0.5172
     21  O13       63.7110    3.3060    5.6890 O.3   435  T7M435     -0.3112
     22  O16       64.3340    4.2640    8.7180 O.3   435  T7M435     -0.2164
     23  O18       65.2080    1.8720    9.9270 O.3   435  T7M435     -0.4456
     24  O19       64.0870    0.0300    9.2390 O.2   435  T7M435     -0.2501
     25  C31       64.0230    0.4210   11.6110 C.3   435  T7M435      0.1212
     26  O41       70.1140    9.6290    0.9110 O.2   435  T7M435     -0.2224
     27  O42       68.0170   10.6000    1.9830 O.3   435  T7M435     -0.1145
     28  O43       69.5270    9.1050    3.4030 O.3   435  T7M435     -0.1145
@<TRIPOS>BOND
     1     7     6    1
     2    26    10    2
     3     5     4    1
     4     6     4    1
     5     6     8    1
     6     9    10    1
     7     9     8    1
     8    10    27    1
     9    10    28    1
    10     4     1    1
    11     8    11    1
    12     1     2    1
    13     1    13    1
    14    11    13    1
    15    11    12    1
    16    20     3    2
    17     2     3    1
    18    19     3    1
    19    13    14    1
    20     3    21    1
    21    21    15    1
    22    15    16    1
    23    16    17    1
    24    16    22    1
    25    17    23    1
    26    24    18    2
    27    23    18    1
    28    18    25    1
