@<TRIPOS>MOLECULE
3spy_UPC_A_1.pdb
 28 29 0 0 0
SMALL
GASTEIGER

@<TRIPOS>ATOM
      1  N1        -0.2900    6.0550   19.4270 N.am  902  UPC902     -0.1790
      2  C2        -0.6710    5.3210   20.5700 C.1   902  UPC902      0.2844
      3  O2        -1.0400    4.0170   20.4480 O.2   902  UPC902     -0.1918
      4  N3        -0.6710    5.9090   21.7810 N.2   902  UPC902     -0.2452
      5  C4        -0.3160    7.2080   21.9070 C.1   902  UPC902      0.2182
      6  O4        -0.3410    7.7670   23.1390 O.2   902  UPC902     -0.2085
      7  C5         0.0680    7.9640   20.7960 C.2   902  UPC902      0.1242
      8  C6         0.0730    7.3540   19.5480 C.2   902  UPC902      0.0928
      9  PA         0.0510   10.4090   16.1540 P.3   902  UPC902      0.3820
     10  PB        -2.7860    9.9890   15.3160 P.3   902  UPC902      0.3895
     11  PG        -3.2580   12.5430   14.1750 P.3   902  UPC902      0.5389
     12  C1'       -0.3320    5.3640   18.1330 C.3   902  UPC902      0.2090
     13  O1A        0.9220   11.0940   17.1570 O.3   902  UPC902     -0.1392
     14  O1B       -3.6080    8.9850   16.0870 O.3   902  UPC902     -0.1388
     15  O1G       -1.8880   12.2750   13.5990 O.3   902  UPC902     -0.1143
     16  C2'       -1.7870    5.4620   17.6590 C.3   902  UPC902      0.0874
     17  O2A        0.3850   10.6590   14.7010 O.2   902  UPC902     -0.2548
     18  O2B       -2.1400    9.4780   14.0600 O.2   902  UPC902     -0.2544
     19  O2G       -4.3580   12.8400   13.1830 O.2   902  UPC902     -0.2220
     20  C3'       -1.7640    6.6510   16.7230 C.3   902  UPC902      0.1857
     21  O3'       -2.8620    6.6160   15.8030 O.3   902  UPC902     -0.2203
     22  C3A       -1.6250   10.7300   16.3720 C.3   902  UPC902      0.2357
     23  O3B       -3.7720   11.1800   14.8880 O.3   902  UPC902     -0.2026
     24  O3G       -3.2340   13.9110   15.3790 O.3   902  UPC902     -0.1143
     25  C4'       -0.3900    6.5050   16.0830 C.3   902  UPC902      0.1773
     26  O4'        0.4570    6.0040   17.1300 O.3   902  UPC902     -0.3339
     27  C5'        0.1960    7.7980   15.5280 C.3   902  UPC902      0.1835
     28  O5'        0.1550    8.8250   16.5050 O.3   902  UPC902     -0.2896
@<TRIPOS>BOND
     1    19    11    2
     2    15    11    1
     3    18    10    2
     4    11    23    1
     5    11    24    1
     6    17     9    2
     7    23    10    1
     8    10    14    1
     9    10    22    1
    10    27    25    1
    11    27    28    1
    12    21    20    1
    13    25    20    1
    14    25    26    1
    15     9    22    1
    16     9    28    1
    17     9    13    1
    18    20    16    1
    19    26    12    1
    20    16    12    1
    21    12     1    1
    22     1     8    1
    23     1     2   am
    24     8     7    2
    25     3     2    2
    26     2     4    2
    27     7     5    1
    28     4     5    2
    29     5     6    2
