@<TRIPOS>MOLECULE
3spz_UPC_A_1.pdb
 28 29 0 0 0
SMALL
GASTEIGER

@<TRIPOS>ATOM
      1  N1        -0.8330   -8.3890   45.5600 N.am  904  UPC904     -0.1790
      2  C2        -1.2710   -7.7240   44.3870 C.1   904  UPC904      0.2844
      3  O2        -1.7240   -6.4400   44.4450 O.2   904  UPC904     -0.1918
      4  N3        -1.2380   -8.3550   43.1880 N.2   904  UPC904     -0.2452
      5  C4        -0.8020   -9.6290   43.0820 C.1   904  UPC904      0.2182
      6  O4        -0.7800  -10.2350   41.8610 O.2   904  UPC904     -0.2085
      7  C5        -0.3830  -10.3080   44.2300 C.2   904  UPC904      0.1242
      8  C6        -0.4080   -9.6630   45.4700 C.2   904  UPC904      0.0928
      9  PA        -0.4900  -12.7330   48.7340 P.3   904  UPC904      0.3820
     10  PB        -3.6490  -12.4610   49.4010 P.3   904  UPC904      0.3895
     11  PG        -4.2590  -14.9490   50.6020 P.3   904  UPC904      0.5389
     12  C1'       -0.9100   -7.6980   46.8580 C.3   904  UPC904      0.2090
     13  O1A        0.0070  -13.5510   47.5740 O.2   904  UPC904     -0.2548
     14  O1B       -4.3280  -11.6070   48.3570 O.2   904  UPC904     -0.2544
     15  O1G       -2.8780  -14.7900   51.1930 O.3   904  UPC904     -0.1143
     16  C2'       -2.3660   -7.7360   47.3320 C.3   904  UPC904      0.0874
     17  O2A        0.0070  -13.0640   50.1270 O.3   904  UPC904     -0.1392
     18  O2B       -3.4380  -11.9120   50.7830 O.3   904  UPC904     -0.1388
     19  O2G       -5.4710  -14.8930   51.4790 O.3   904  UPC904     -0.1143
     20  C3'       -2.4090   -8.9830   48.1870 C.3   904  UPC904      0.1857
     21  O3'       -3.5260   -8.9800   49.0880 O.3   904  UPC904     -0.2203
     22  C3A       -2.0930  -12.6190   48.9600 C.3   904  UPC904      0.2357
     23  O3B       -4.4710  -13.8400   49.4760 O.3   904  UPC904     -0.2026
     24  O3G       -4.2780  -16.4030   49.2360 O.2   904  UPC904     -0.2220
     25  C4'       -1.0600   -8.9020   48.8820 C.3   904  UPC904      0.1773
     26  O4'       -0.1920   -8.4060   47.8630 O.3   904  UPC904     -0.3339
     27  C5'       -0.5400  -10.2080   49.4900 C.3   904  UPC904      0.1835
     28  O5'       -0.2040  -11.1660   48.4720 O.3   904  UPC904     -0.2896
@<TRIPOS>BOND
     1     6     5    2
     2     5     4    2
     3     5     7    1
     4     4     2    2
     5     7     8    2
     6     2     3    2
     7     2     1   am
     8     8     1    1
     9     1    12    1
    10    12    16    1
    11    12    26    1
    12    16    20    1
    13    13     9    2
    14    26    25    1
    15    20    25    1
    16    20    21    1
    17    14    10    2
    18    28     9    1
    19    28    27    1
    20     9    22    1
    21     9    17    1
    22    25    27    1
    23    22    10    1
    24    24    11    2
    25    10    23    1
    26    10    18    1
    27    23    11    1
    28    11    15    1
    29    11    19    1
