@<TRIPOS>MOLECULE
3sq0_DUP_A_1.pdb
 28 29 0 0 0
SMALL
GASTEIGER

@<TRIPOS>ATOM
      1  O4        -1.0280    9.9230  -41.9800 O.2   904  DUP904     -0.2085
      2  C4        -0.9510    9.3470  -43.1990 C.1   904  DUP904      0.2182
      3  C5        -0.5020   10.0590  -44.3050 C.2   904  DUP904      0.1242
      4  C6        -0.4480    9.3860  -45.5300 C.2   904  DUP904      0.0928
      5  N3        -1.3130    8.0490  -43.3230 N.2   904  DUP904     -0.2452
      6  C2        -1.2520    7.4410  -44.5220 C.1   904  DUP904      0.2844
      7  O2        -1.6420    6.1500  -44.6050 O.2   904  DUP904     -0.1918
      8  N1        -0.8140    8.0900  -45.6170 N.am  904  DUP904     -0.1790
      9  C1'       -0.8270    7.3650  -46.9040 C.3   904  DUP904      0.2090
     10  C2'       -2.2880    7.4230  -47.3720 C.3   904  DUP904      0.0874
     11  C3'       -2.3470    8.6090  -48.3120 C.3   904  DUP904      0.1857
     12  O3'       -3.4190    8.5120  -49.2600 O.3   904  DUP904     -0.2203
     13  O4'       -0.1130    8.0370  -47.9370 O.3   904  DUP904     -0.3339
     14  C4'       -1.0020    8.4720  -48.9800 C.3   904  DUP904      0.1774
     15  C5'       -0.5170    9.7400  -49.6680 C.3   904  DUP904      0.1848
     16  O5'       -0.2000   10.7210  -48.6760 O.3   904  DUP904     -0.2775
     17  PA        -0.5240   12.2700  -48.9330 P.3   904  DUP904      0.4623
     18  O1A        0.2520   13.0480  -47.9020 O.3   904  DUP904     -0.1255
     19  O2A       -0.2590   12.5440  -50.3870 O.2   904  DUP904     -0.2354
     20  N3A       -2.1360   12.5090  -48.5610 N.3   904  DUP904     -0.0179
     21  PB        -3.4420   12.0750  -49.5030 P.3   904  DUP904      0.4700
     22  O1B       -4.2410   11.0860  -48.6830 O.3   904  DUP904     -0.1252
     23  O2B       -2.9950   11.6370  -50.8900 O.2   904  DUP904     -0.2350
     24  O3B       -4.3590   13.3800  -49.6790 O.3   904  DUP904     -0.1901
     25  PG        -3.9300   14.7030  -50.5230 P.3   904  DUP904      0.5397
     26  O2G       -5.1310   14.9080  -51.4100 O.2   904  DUP904     -0.2220
     27  O1G       -2.5910   14.4510  -51.1600 O.3   904  DUP904     -0.1143
     28  O3G       -3.9350   16.0160  -49.2110 O.3   904  DUP904     -0.1143
@<TRIPOS>BOND
     1    26    25    2
     2    27    25    1
     3    23    21    2
     4    25    24    1
     5    25    28    1
     6    19    17    2
     7    24    21    1
     8    15    14    1
     9    15    16    1
    10    21    22    1
    11    21    20    1
    12    12    11    1
    13    14    11    1
    14    14    13    1
    15    17    16    1
    16    17    20    1
    17    17    18    1
    18    11    10    1
    19    13     9    1
    20    10     9    1
    21     9     8    1
    22     8     4    1
    23     8     6   am
    24     4     3    2
    25     7     6    2
    26     6     5    2
    27     3     2    1
    28     5     2    2
    29     2     1    2
