@<TRIPOS>MOLECULE
3sq1_DUP_A_1.pdb
 28 29 0 0 0
SMALL
GASTEIGER

@<TRIPOS>ATOM
      1  O4         0.8990   -8.2740  -42.3180 O.2   902  DUP902     -0.2085
      2  C4         0.7030   -7.6140  -43.4540 C.1   902  DUP902      0.2182
      3  C5         0.1720   -8.2400  -44.5790 C.2   902  DUP902      0.1242
      4  C6         0.0360   -7.5420  -45.7680 C.2   902  DUP902      0.0928
      5  N3         1.0670   -6.3390  -43.5530 N.2   902  DUP902     -0.2452
      6  C2         0.8910   -5.6600  -44.6880 C.1   902  DUP902      0.2844
      7  O2         1.2260   -4.4240  -44.7330 O.2   902  DUP902     -0.1918
      8  N1         0.3650   -6.2780  -45.8310 N.am  902  DUP902     -0.1790
      9  C1'        0.2240   -5.5150  -47.0720 C.3   902  DUP902      0.2090
     10  C2'        1.6420   -5.4330  -47.6640 C.3   902  DUP902      0.0874
     11  C3'        1.7160   -6.6310  -48.5830 C.3   902  DUP902      0.1857
     12  O3'        2.7390   -6.5610  -49.5570 O.3   902  DUP902     -0.2203
     13  O4'       -0.5210   -6.1940  -48.0420 O.3   902  DUP902     -0.3339
     14  C4'        0.2890   -6.6430  -49.0970 C.3   902  DUP902      0.1774
     15  C5'       -0.0670   -8.0080  -49.6330 C.3   902  DUP902      0.1848
     16  O5'        0.0030   -8.9490  -48.6100 O.3   902  DUP902     -0.2775
     17  PA         0.0970  -10.4660  -48.8540 P.3   902  DUP902      0.4623
     18  O1A       -0.3870  -11.0980  -47.6850 O.3   902  DUP902     -0.1255
     19  O2A       -0.5910  -10.8170  -50.0770 O.2   902  DUP902     -0.2354
     20  N3A        1.5880  -10.8580  -49.0420 N.3   902  DUP902     -0.0179
     21  PB         2.6460  -10.1420  -50.0630 P.3   902  DUP902      0.4700
     22  O1B        3.3710   -9.0930  -49.3450 O.3   902  DUP902     -0.1252
     23  O2B        2.2120   -9.7660  -51.3600 O.2   902  DUP902     -0.2350
     24  O3B        3.6200  -11.3330  -50.1500 O.3   902  DUP902     -0.1901
     25  PG         3.4050  -12.6330  -50.9400 P.3   902  DUP902      0.5397
     26  O2G        4.5280  -12.6760  -51.7750 O.2   902  DUP902     -0.2220
     27  O1G        2.1110  -12.5950  -51.4860 O.3   902  DUP902     -0.1143
     28  O3G        3.4520  -13.7060  -50.0030 O.3   902  DUP902     -0.1143
@<TRIPOS>BOND
     1    26    25    2
     2    27    25    1
     3    23    21    2
     4    25    24    1
     5    25    28    1
     6    24    21    1
     7    19    17    2
     8    21    22    1
     9    21    20    1
    10    15    14    1
    11    15    16    1
    12    12    11    1
    13    14    11    1
    14    14    13    1
    15    20    17    1
    16    17    16    1
    17    17    18    1
    18    11    10    1
    19    13     9    1
    20    10     9    1
    21     9     8    1
    22     8     4    1
    23     8     6   am
    24     4     3    2
    25     7     6    2
    26     6     5    2
    27     3     2    1
    28     5     2    2
    29     2     1    2
