@<TRIPOS>MOLECULE
3sq2_TTP_A_1.pdb
 29 30 0 0 0
SMALL
GASTEIGER

@<TRIPOS>ATOM
      1  PA         0.1100   10.4590  -48.9670 P.3   903  TTP903      0.2189
      2  O1A        0.7030   11.3090  -47.8800 O.3   903  TTP903     -0.4371
      3  O2A        0.6280   10.8400  -50.3340 O.2   903  TTP903     -0.5170
      4  O3A       -1.4790   10.6460  -48.9480 O.3   903  TTP903     -0.2700
      5  PB        -2.5410   10.0710  -50.0150 P.3   903  TTP903      0.2277
      6  O1B       -3.2210    8.8700  -49.4100 O.3   903  TTP903     -0.4368
      7  O2B       -1.9660    9.8090  -51.3870 O.2   903  TTP903     -0.5168
      8  O3B       -3.6010   11.2530  -50.0500 O.3   903  TTP903     -0.2258
      9  PG        -3.3240   12.6540  -50.7750 P.3   903  TTP903      0.5373
     10  O1G       -2.0320   12.6490  -51.5470 O.3   903  TTP903     -0.1143
     11  O2G       -4.4750   12.8360  -51.7230 O.2   903  TTP903     -0.2221
     12  O3G       -3.3330   13.7390  -49.7330 O.3   903  TTP903     -0.1143
     13  O5'        0.3840    8.9100  -48.6270 O.3   903  TTP903     -0.3112
     14  C5'        0.3880    7.9250  -49.6550 C.3   903  TTP903      0.1812
     15  C4'       -0.0540    6.5910  -49.0770 C.3   903  TTP903      0.1773
     16  O4'        0.7230    6.2570  -47.9160 O.3   903  TTP903     -0.3339
     17  C3'       -1.4920    6.6120  -48.5830 C.3   903  TTP903      0.1857
     18  O3'       -2.4890    6.4730  -49.6150 O.3   903  TTP903     -0.2203
     19  C2'       -1.4830    5.4670  -47.6050 C.3   903  TTP903      0.0874
     20  C1'       -0.0990    5.5770  -46.9590 C.3   903  TTP903      0.2090
     21  N1        -0.2920    6.3230  -45.7020 N.am  903  TTP903     -0.1794
     22  C2        -0.8150    5.6200  -44.5860 C.1   903  TTP903      0.2844
     23  O2        -1.0710    4.3970  -44.6950 O.2   903  TTP903     -0.1918
     24  N3        -1.0440    6.2400  -43.4140 N.2   903  TTP903     -0.2455
     25  C4        -0.7920    7.5510  -43.2650 C.1   903  TTP903      0.2134
     26  O4        -1.0140    8.1170  -42.1650 O.2   903  TTP903     -0.2088
     27  C5        -0.2470    8.3160  -44.4160 C.2   903  TTP903      0.0891
     28  C5M        0.0550    9.7940  -44.2990 C.3   903  TTP903      0.0462
     29  C6        -0.0280    7.6410  -45.6130 C.2   903  TTP903      0.0877
@<TRIPOS>BOND
     1    11     9    2
     2    10     9    1
     3     7     5    2
     4     9     8    1
     5     9    12    1
     6     3     1    2
     7     8     5    1
     8     5     6    1
     9     5     4    1
    10    14    15    1
    11    14    13    1
    12    18    17    1
    13    15    17    1
    14    15    16    1
    15     1     4    1
    16     1    13    1
    17     1     2    1
    18    17    19    1
    19    16    20    1
    20    19    20    1
    21    20    21    1
    22    21    29    1
    23    21    22   am
    24    29    27    2
    25    23    22    2
    26    22    24    2
    27    27    28    1
    28    27    25    1
    29    24    25    2
    30    25    26    2
