@<TRIPOS>MOLECULE
3sq4_TTP_A_1.pdb
 29 30 0 0 0
SMALL
GASTEIGER

@<TRIPOS>ATOM
      1  PA        -0.1750  -10.4200  -49.1400 P.3   903  TTP903      0.2189
      2  O1A       -0.7330  -11.3030  -48.0570 O.3   903  TTP903     -0.4371
      3  O2A       -0.7650  -10.8050  -50.4730 O.2   903  TTP903     -0.5170
      4  O3A        1.4200  -10.5910  -49.1420 O.3   903  TTP903     -0.2700
      5  PB         2.5700  -10.0940  -50.1580 P.3   903  TTP903      0.2277
      6  O1B        3.2920   -8.9320  -49.5330 O.3   903  TTP903     -0.4368
      7  O2B        2.0990   -9.8060  -51.5610 O.2   903  TTP903     -0.5168
      8  O3B        3.5110  -11.3870  -50.0740 O.3   903  TTP903     -0.2258
      9  PG         3.2950  -12.7200  -50.9590 P.3   903  TTP903      0.5373
     10  O1G        2.0310  -12.6670  -51.7470 O.3   903  TTP903     -0.1143
     11  O2G        4.4580  -12.7450  -51.9170 O.2   903  TTP903     -0.2221
     12  O3G        3.3390  -13.9400  -50.0670 O.3   903  TTP903     -0.1143
     13  O5'       -0.4070   -8.8680  -48.7720 O.3   903  TTP903     -0.3112
     14  C5'       -0.4350   -7.8950  -49.8080 C.3   903  TTP903      0.1812
     15  C4'        0.0350   -6.5550  -49.2790 C.3   903  TTP903      0.1773
     16  O4'       -0.7420   -6.1920  -48.1330 O.3   903  TTP903     -0.3339
     17  C3'        1.4710   -6.5770  -48.7850 C.3   903  TTP903      0.1857
     18  O3'        2.4390   -6.3920  -49.8250 O.3   903  TTP903     -0.2203
     19  C2'        1.4690   -5.4430  -47.7790 C.3   903  TTP903      0.0874
     20  C1'        0.0680   -5.5210  -47.1610 C.3   903  TTP903      0.2090
     21  N1         0.2430   -6.2810  -45.9160 N.am  903  TTP903     -0.1794
     22  C2         0.7340   -5.5780  -44.7920 C.1   903  TTP903      0.2844
     23  O2         0.9560   -4.3500  -44.8780 O.2   903  TTP903     -0.1918
     24  N3         0.9580   -6.2050  -43.6320 N.2   903  TTP903     -0.2455
     25  C4         0.7290   -7.5140  -43.4900 C.1   903  TTP903      0.2134
     26  O4         0.9510   -8.0720  -42.3910 O.2   903  TTP903     -0.2088
     27  C5         0.2230   -8.2880  -44.6470 C.2   903  TTP903      0.0891
     28  C5M       -0.0470   -9.7740  -44.5200 C.3   903  TTP903      0.0462
     29  C6         0.0020   -7.6070  -45.8390 C.2   903  TTP903      0.0877
@<TRIPOS>BOND
     1    11     9    2
     2    10     9    1
     3     7     5    2
     4     9     8    1
     5     9    12    1
     6     3     1    2
     7     5     8    1
     8     5     6    1
     9     5     4    1
    10    18    17    1
    11    14    15    1
    12    14    13    1
    13    15    17    1
    14    15    16    1
    15     4     1    1
    16     1    13    1
    17     1     2    1
    18    17    19    1
    19    16    20    1
    20    19    20    1
    21    20    21    1
    22    21    29    1
    23    21    22   am
    24    29    27    2
    25    23    22    2
    26    22    24    2
    27    27    28    1
    28    27    25    1
    29    24    25    2
    30    25    26    2
