@<TRIPOS>MOLECULE
3sq6_EPJ_A_1.pdb
 14 16 0 0 0
SMALL
GASTEIGER

@<TRIPOS>ATOM
      1  C1        30.5890   24.1620   -5.0410 C.3   300  EPJ300      0.0413
      2  C2        30.4830   25.4770   -4.1820 C.3   300  EPJ300      0.0232
      3  C3        31.7690   25.4090   -3.2890 C.3   300  EPJ300      0.0732
      4  C4        32.9240   25.8570   -4.2230 C.3   300  EPJ300      0.0188
      5  C5        33.0920   24.5930   -5.0850 C.3   300  EPJ300      0.0191
      6  C6        31.9650   23.5760   -4.5060 C.3   300  EPJ300      0.0768
      7  N1        31.9750   23.9380   -3.0680 N.3   300  EPJ300     -0.2205
      8  C7        29.3240   23.2870   -4.7390 C.ar  300  EPJ300     -0.0019
      9  C8        28.0090   23.8670   -4.8020 C.ar  300  EPJ300     -0.0003
     10  C9        26.8610   23.0700   -4.5740 C.ar  300  EPJ300      0.0305
     11  C10       27.0250   21.7090   -4.2870 C.ar  300  EPJ300      0.1383
     12 CL         25.6390   20.7250   -4.0310 Cl    300  EPJ300     -0.0613
     13  N2        28.2630   21.1680   -4.2210 N.ar  300  EPJ300     -0.2328
     14  C11       29.4030   21.9020   -4.4360 C.ar  300  EPJ300      0.0956
@<TRIPOS>BOND
     1     5     6    1
     2     5     4    1
     3     1     8    1
     4     1     6    1
     5     1     2    1
     6     9     8   ar
     7     9    10   ar
     8     8    14   ar
     9    10    11   ar
    10     6     7    1
    11    14    13   ar
    12    11    13   ar
    13    11    12    1
    14     4     3    1
    15     2     3    1
    16     3     7    1
