@<TRIPOS>MOLECULE
3sqd_III_D_1.pdb
 41 41 0 0 0
SMALL
GASTEIGER

@<TRIPOS>ATOM
      1  N          6.7190    3.5300  -14.8860 N.3   139  SER139     -0.1203
      2  CA         8.1380    3.1820  -14.8230 C.3   139  SER139      0.1992
      3  CB         8.7390    3.5660  -13.4720 C.3   139  SER139      0.1820
      4  OG         8.9240    4.9670  -13.3850 O.3   139  SER139     -0.2682
      5  C          8.3770    1.7030  -15.0880 C.2   139  SER139      0.2618
      6  O          7.8600    0.8430  -14.3700 O.2   139  SER139     -0.2717
      7  P          9.2440    5.3870  -11.8660 P.3   139  SER139      0.5327
      8  O1P        9.4610    6.9720  -11.7800 O.2   139  SER139     -0.2224
      9  O2P        7.9900    4.9370  -10.9660 O.3   139  SER139     -0.1145
     10  O3P       10.5930    4.6730  -11.3500 O.3   139  SER139     -0.1145
     11  N          9.1670    1.4130  -16.1180 N.am  140  GLN140     -0.1965
     12  CA         9.4700    0.0320  -16.4830 C.3   140  GLN140      0.1733
     13  C         10.1840   -0.7150  -15.3690 C.2   140  GLN140      0.2616
     14  O         11.1150   -0.1920  -14.7420 O.2   140  GLN140     -0.2715
     15  CB        10.3190   -0.0280  -17.7500 C.3   140  GLN140      0.0408
     16  CG         9.5620    0.2680  -19.0210 C.3   140  GLN140      0.0908
     17  CD        10.2830   -0.2520  -20.2470 C.2   140  GLN140      0.2608
     18  OE1       10.6190   -1.4370  -20.3240 O.2   140  GLN140     -0.2717
     19  NE2       10.5330    0.6320  -21.2120 N.am  140  GLN140     -0.0878
     20  N          9.7340   -1.9430  -15.1320 N.am  141  GLU141     -0.1963
     21  CA        10.3850   -2.8370  -14.1870 C.3   141  GLU141      0.1733
     22  C         11.2750   -3.8130  -14.9530 C.2   141  GLU141      0.2617
     23  O         10.9640   -4.1980  -16.0800 O.2   141  GLU141     -0.2715
     24  CB         9.3410   -3.5900  -13.3600 C.3   141  GLU141      0.0429
     25  CG         8.4650   -2.6890  -12.5030 C.3   141  GLU141      0.1163
     26  CD         7.4510   -3.4660  -11.6880 C.2   141  GLU141      0.3649
     27  OE1        7.3410   -4.6940  -11.8860 O.co2 141  GLU141     -0.2457
     28  OE2        6.7630   -2.8480  -10.8480 O.co2 141  GLU141     -0.2457
     29  N         12.3860   -4.2110  -14.3460 N.am  142  TYR142     -0.1938
     30  CA        13.3310   -5.0920  -15.0220 C.3   142  TYR142      0.2021
     31  C         13.6130   -6.3720  -14.2480 C.2   142  TYR142      0.3845
     32  O         14.2900   -7.2630  -14.7590 O.co2 142  TYR142     -0.2437
     33  CB        14.6320   -4.3490  -15.3050 C.3   142  TYR142      0.0596
     34  CG        14.4350   -3.1330  -16.1790 C.ar  142  TYR142     -0.0197
     35  CD1       14.6530   -1.8570  -15.6810 C.ar  142  TYR142     -0.0009
     36  CD2       14.0190   -3.2640  -17.5010 C.ar  142  TYR142     -0.0009
     37  CE1       14.4770   -0.7380  -16.4750 C.ar  142  TYR142      0.0417
     38  CE2       13.8370   -2.1490  -18.3080 C.ar  142  TYR142      0.0417
     39  CZ        14.0680   -0.8860  -17.7880 C.ar  142  TYR142      0.1957
     40  OH        13.8940    0.2350  -18.5760 O.3   142  TYR142     -0.2866
     41  OXT       13.1850   -6.5450  -13.1080 O.co2 142  TYR142     -0.2437
@<TRIPOS>BOND
     1    19    17   am
     2    18    17    2
     3    17    16    1
     4    16    15    1
     5    40    39    1
     6    38    39   ar
     7    38    36   ar
     8    39    37   ar
     9    15    12    1
    10    36    34   ar
    11    12    11    1
    12    12    13    1
    13    37    35   ar
    14    34    35   ar
    15    34    33    1
    16    11     5   am
    17    23    22    2
    18    13    20   am
    19    13    14    2
    20    33    30    1
    21    20    21    1
    22     5     2    1
    23     5     6    2
    24    30    29    1
    25    30    31    1
    26    22    29   am
    27    22    21    1
    28     1     2    1
    29     2     3    1
    30    32    31   ar
    31    31    41   ar
    32    21    24    1
    33     3     4    1
    34     4     7    1
    35    24    25    1
    36    25    26    1
    37    27    26   ar
    38     7     8    2
    39     7    10    1
    40     7     9    1
    41    26    28   ar
