@<TRIPOS>MOLECULE
3sqg_TP7_A_1.pdb
 21 20 0 0 0
SMALL
GASTEIGER

@<TRIPOS>ATOM
      1  N         35.2930  -78.0550   18.5930 N.3   1002  TP71002    -0.1769
      2  P         31.9300  -76.9400   15.7340 P.3   1002  TP71002     0.5326
      3  O1P       32.6460  -76.7780   14.4120 O.2   1002  TP71002    -0.2224
      4  O2P       30.8800  -78.0140   15.6840 O.3   1002  TP71002    -0.1145
      5  O3P       31.4820  -75.6380   16.3380 O.3   1002  TP71002    -0.1145
      6  O4P       33.0100  -77.4660   16.8220 O.3   1002  TP71002    -0.2707
      7  CB        33.9060  -78.5620   16.5920 C.3   1002  TP71002     0.1533
      8  C         35.8350  -77.0330   16.4260 C.2   1002  TP71002     0.3828
      9  O         36.4220  -77.2160   15.3370 O.co2 1002  TP71002    -0.2440
     10  OXT       35.6550  -75.8900   16.9100 O.co2 1002  TP71002    -0.2440
     11  CA        35.3010  -78.2410   17.1510 C.3   1002  TP71002     0.2056
     12  CG        33.3330  -79.8230   17.2320 C.3   1002  TP71002     0.0348
     13  O1        36.0500  -80.2000   19.0590 O.3   1002  TP71002    -0.2036
     14  C1        36.2190  -78.8230   19.3860 C.3   1002  TP71002     0.2261
     15  C2        36.1130  -78.6110   20.8950 C.3   1002  TP71002     0.0514
     16  C3        37.2720  -79.3630   21.5690 C.3   1002  TP71002     0.0041
     17  C4        37.7070  -78.7510   22.8990 C.3   1002  TP71002     0.0002
     18  C5        36.5340  -78.5420   23.8530 C.3   1002  TP71002     0.0009
     19  C6        35.9220  -79.8690   24.3380 C.3   1002  TP71002     0.0125
     20  C7        36.8330  -80.5140   25.3820 C.3   1002  TP71002     0.0687
     21  S7        36.2620  -82.1600   25.8530 S.3   1002  TP71002    -0.0821
@<TRIPOS>BOND
     1     3     2    2
     2     9     8   ar
     3     4     2    1
     4     2     5    1
     5     2     6    1
     6     8    10   ar
     7     8    11    1
     8     7     6    1
     9     7    11    1
    10     7    12    1
    11    11     1    1
    12     1    14    1
    13    13    14    1
    14    14    15    1
    15    15    16    1
    16    16    17    1
    17    17    18    1
    18    18    19    1
    19    19    20    1
    20    20    21    1
