@<TRIPOS>MOLECULE
3sqm_NAG_A_1.pdb
 15 15 0 0 0
SMALL
GASTEIGER

@<TRIPOS>ATOM
      1  C1        75.1560  -46.1510   39.7790 C.3   540  NAG540      0.2917
      2  C2        74.5040  -45.7000   38.4680 C.3   540  NAG540      0.1871
      3  C3        72.9950  -45.5370   38.6310 C.3   540  NAG540      0.2095
      4  C4        72.4180  -46.7400   39.3460 C.3   540  NAG540      0.2136
      5  C5        73.0700  -46.8990   40.7100 C.3   540  NAG540      0.1835
      6  C6        73.3810  -48.3690   40.9510 C.3   540  NAG540      0.2142
      7  C7        76.2940  -44.4130   37.4910 C.2   540  NAG540      0.2421
      8  C8        76.8930  -43.0580   37.2810 C.3   540  NAG540      0.0964
      9  N2        75.0900  -44.4480   38.0310 N.am  540  NAG540     -0.1991
     10  O1        75.6830  -47.4640   39.6660 O.3   540  NAG540     -0.1879
     11  O3        72.3750  -45.4360   37.3750 O.3   540  NAG540     -0.2183
     12  O4        71.0340  -46.5580   39.5140 O.3   540  NAG540     -0.2176
     13  O5        74.2190  -46.0730   40.8360 O.3   540  NAG540     -0.3242
     14  O6        72.1860  -49.0760   40.7070 O.3   540  NAG540     -0.2176
     15  O7        76.8970  -45.4350   37.1790 O.2   540  NAG540     -0.2733
@<TRIPOS>BOND
     1    15     7    2
     2     8     7    1
     3    11     3    1
     4     7     9   am
     5     9     2    1
     6     2     3    1
     7     2     1    1
     8     3     4    1
     9     4    12    1
    10     4     5    1
    11    10     1    1
    12     1    13    1
    13    14     6    1
    14     5    13    1
    15     5     6    1
