@<TRIPOS>MOLECULE
3sqp_3J8_A_1.pdb
 26 28 0 0 0
SMALL
GASTEIGER

@<TRIPOS>ATOM
      1  C4        -8.6280  -38.5030  -35.2790 C.2   900  3J8900      0.1819
      2  C5        -7.7960  -39.6420  -35.6990 C.2   900  3J8900      0.2178
      3  C6        -8.5380  -40.8170  -36.1790 C.2   900  3J8900     -0.0116
      4  C10      -10.1480  -36.3590  -34.4900 C.2   900  3J8900      0.0680
      5  C13      -10.1380  -34.0900  -33.6060 C.2   900  3J8900     -0.0632
      6  C15       -7.9480  -35.2060  -33.9760 C.3   900  3J8900      0.0455
      7  C1        -9.9120  -40.8400  -36.2280 C.2   900  3J8900     -0.0562
      8  C2       -10.7010  -39.7480  -35.8250 C.2   900  3J8900     -0.0370
      9  C3       -10.0710  -38.5760  -35.3500 C.2   900  3J8900      0.0754
     10  N7       -10.7810  -37.4820  -34.9460 N.pl3 900  3J8900     -0.2984
     11  N8        -8.0320  -37.4270  -34.8430 N.2   900  3J8900     -0.4005
     12  C9        -8.7020  -36.3760  -34.4540 C.2   900  3J8900      0.1211
     13  C11      -10.8530  -35.2120  -34.0640 C.2   900  3J8900     -0.0378
     14  C14       -8.7660  -34.0610  -33.5530 C.2   900  3J8900     -0.0731
     15  C16      -12.2560  -37.5170  -35.0000 C.3   900  3J8900      0.0059
     16  O19       -6.5960  -39.6450  -35.6570 O.2   900  3J8900     -0.2845
     17  H11      -11.9210  -35.1610  -34.0760 H     900  3J8900      0.0637
     18  H1       -10.4150  -41.7210  -36.5850 H     900  3J8900      0.0619
     19  H2       -11.7630  -39.8380  -35.8920 H     900  3J8900      0.0637
     20  H6        -7.9530  -41.6620  -36.4900 H     900  3J8900      0.0657
     21  H13      -10.6990  -33.2300  -33.2870 H     900  3J8900      0.0615
     22  H14       -8.2370  -33.1950  -33.2010 H     900  3J8900      0.0579
     23  H16      -12.6460  -37.9380  -34.0830 H     900  3J8900      0.0432
     24 H16A      -12.6300  -36.5210  -35.1410 H     900  3J8900      0.0432
     25 H16B      -12.5670  -38.1040  -35.8420 H     900  3J8900      0.0432
     26  H15       -6.8780  -35.1910  -33.9380 H     900  3J8900      0.0427
@<TRIPOS>BOND
     1    18     7    1
     2    20     3    1
     3     7     3    2
     4     7     8    1
     5     3     2    1
     6    19     8    1
     7    25    15    1
     8     8     9    2
     9     2    16    2
    10     2     1    1
    11     9     1    1
    12     9    10    1
    13     1    11    2
    14    24    15    1
    15    15    10    1
    16    15    23    1
    17    10     4    1
    18    11    12    2
    19     4    12    1
    20     4    13    2
    21    12     6    1
    22    17    13    1
    23    13     5    1
    24     6    26    1
    25     6    14    1
    26     5    14    2
    27     5    21    1
    28    14    22    1
