@<TRIPOS>MOLECULE
3sqq_99Z_A_1.pdb
 26 28 0 0 0
SMALL
GASTEIGER

@<TRIPOS>ATOM
      1  N01      -95.7030   10.6110  -50.3950 N.2   456  99Z456     -0.3642
      2  N02      -97.0260   11.1690  -48.5350 N.pl3 456  99Z456     -0.1781
      3  N03      -94.0870    9.7070  -52.0970 N.pl3 456  99Z456     -0.0965
      4  N04      -99.9650    9.3320  -42.8290 N.3   456  99Z456      0.0392
      5  C05      -94.1410    8.9760  -49.7020 C.3   456  99Z456      0.1864
      6  C06      -94.5990    9.7570  -50.8010 C.2   456  99Z456      0.2162
      7  C07      -95.9800   10.4200  -49.0610 C.2   456  99Z456      0.2328
      8  C08      -97.8340   10.8440  -47.4320 C.ar  456  99Z456      0.0737
      9  C09      -93.0200    7.9930  -49.9040 C.2   456  99Z456      0.1910
     10  C10      -92.6050    7.1520  -48.7390 C.ar  456  99Z456      0.0321
     11  C11      -91.2760    7.1740  -48.2250 C.ar  456  99Z456     -0.0191
     12  C12      -90.9940    6.3470  -47.1150 C.ar  456  99Z456     -0.0042
     13  C13      -91.9840    5.5300  -46.5360 C.ar  456  99Z456     -0.0003
     14  C14      -93.3010    5.5000  -47.0460 C.ar  456  99Z456      0.0001
     15  C15      -93.6160    6.3230  -48.1630 C.ar  456  99Z456      0.0026
     16  C16      -97.6700    9.6530  -46.6900 C.ar  456  99Z456      0.0180
     17  C17      -98.5400    9.4330  -45.6220 C.ar  456  99Z456      0.0213
     18  C18      -99.5230   10.3940  -45.3440 C.ar  456  99Z456      0.1251
     19  C19      -99.6730   11.5760  -46.0820 C.ar  456  99Z456      0.0213
     20  C20      -98.8160   11.8100  -47.1420 C.ar  456  99Z456      0.0180
     21  C21      -90.1750    8.0560  -48.8280 C.3   456  99Z456      0.0311
     22  O22      -92.4920    7.8800  -51.0250 O.2   456  99Z456     -0.2899
     23  O23     -100.9730   11.3310  -43.2960 O.2   456  99Z456     -0.1503
     24  O24     -101.4580    9.0060  -44.4850 O.2   456  99Z456     -0.1503
     25  S25      -94.9840    9.3050  -48.3360 S.3   456  99Z456     -0.0494
     26  S26     -100.6370   10.1240  -44.0380 S.O2  456  99Z456      0.0935
@<TRIPOS>BOND
     1     3     6    1
     2    22     9    2
     3     6     1    2
     4     6     5    1
     5     1     7    2
     6     9     5    1
     7     9    10    1
     8     5    25    1
     9     7     2    1
    10     7    25    1
    11    21    11    1
    12    10    11   ar
    13    10    15   ar
    14     2     8    1
    15    11    12   ar
    16    15    14   ar
    17     8    20   ar
    18     8    16   ar
    19    20    19   ar
    20    12    13   ar
    21    14    13   ar
    22    16    17   ar
    23    19    18   ar
    24    17    18   ar
    25    18    26    1
    26    24    26    2
    27    26    23    2
    28    26     4    1
