@<TRIPOS>MOLECULE
3sqr_MAN_A_1.pdb
 11 11 0 0 0
SMALL
GASTEIGER

@<TRIPOS>ATOM
      1  C1         3.3540    1.9530  -45.9330 C.3   557  MAN557      0.1777
      2  C2         2.6640    0.8820  -46.8050 C.3   557  MAN557      0.2141
      3  C3         1.2380    1.3490  -47.1580 C.3   557  MAN557      0.2173
      4  C4         0.4590    1.6290  -45.8730 C.3   557  MAN557      0.2142
      5  C5         1.2170    2.6500  -45.0160 C.3   557  MAN557      0.1810
      6  C6         0.5830    2.7800  -43.6240 C.3   557  MAN557      0.2141
      7  O2         2.6990   -0.4030  -46.1850 O.3   557  MAN557     -0.2176
      8  O3         0.5500    0.4190  -47.9620 O.3   557  MAN557     -0.2175
      9  O4        -0.9480    1.8660  -46.0880 O.3   557  MAN557     -0.2176
     10  O5         2.5710    2.2460  -44.7900 O.3   557  MAN557     -0.3481
     11  O6         1.3000    3.7240  -42.8260 O.3   557  MAN557     -0.2176
@<TRIPOS>BOND
     1     8     3    1
     2     3     2    1
     3     3     4    1
     4     2     7    1
     5     2     1    1
     6     9     4    1
     7     1    10    1
     8     4     5    1
     9     5    10    1
    10     5     6    1
    11     6    11    1
