@<TRIPOS>MOLECULE
3sqw_ANP_A_1.pdb
 31 33 0 0 0
SMALL
GASTEIGER

@<TRIPOS>ATOM
      1  PG        70.1650   28.0180   16.6270 P.3   800  ANP800      0.4884
      2  O1G       70.9530   28.4620   15.4340 O.2   800  ANP800     -0.2331
      3  O2G       71.0680   27.7550   17.8170 O.3   800  ANP800     -0.1240
      4  O3G       69.1970   26.8710   16.3150 O.3   800  ANP800     -0.1240
      5  PB        69.5050   30.9500   17.1360 P.3   800  ANP800      0.4669
      6  O1B       70.5130   31.2460   16.0700 O.2   800  ANP800     -0.2351
      7  O2B       69.8090   31.3480   18.5680 O.3   800  ANP800     -0.1253
      8  N3B       69.1120   29.2840   17.0850 N.3   800  ANP800     -0.0163
      9  PA        67.7400   32.4330   15.3990 P.3   800  ANP800      0.2220
     10  O1A       68.7010   33.6020   15.2960 O.3   800  ANP800     -0.4370
     11  O2A       67.6200   31.5370   14.2060 O.2   800  ANP800     -0.5170
     12  O3A       68.0790   31.5950   16.7350 O.3   800  ANP800     -0.2360
     13  O5'       66.2940   33.0100   15.8210 O.3   800  ANP800     -0.3111
     14  C5'       65.1460   32.1430   15.8740 C.3   800  ANP800      0.1813
     15  C4'       63.8680   32.9360   15.6360 C.3   800  ANP800      0.1821
     16  O4'       63.7510   33.9640   16.6180 O.3   800  ANP800     -0.3135
     17  C3'       63.8310   33.6180   14.2810 C.3   800  ANP800      0.2184
     18  O3'       62.6290   33.2840   13.5980 O.3   800  ANP800     -0.2174
     19  C2'       63.8530   35.0950   14.5920 C.3   800  ANP800      0.2570
     20  O2'       63.0320   35.8520   13.7120 O.3   800  ANP800     -0.2130
     21  C1'       63.2890   35.1410   15.9880 C.3   800  ANP800      0.3186
     22  N9        63.7690   36.2670   16.7970 N.pl3 800  ANP800     -0.1439
     23  C8        64.9550   36.8990   16.7300 C.3   800  ANP800      0.3377
     24  N7        65.0190   37.8670   17.6620 N.2   800  ANP800     -0.2095
     25  C5        63.8540   37.8420   18.3340 C.2   800  ANP800      0.2526
     26  C6        63.2750   38.6110   19.4470 C.2   800  ANP800      0.4393
     27  N6        63.9990   39.5960   20.0060 N.pl3 800  ANP800      0.2180
     28  N1        62.0420   38.2750   19.8630 N.2   800  ANP800      0.0021
     29  C2        61.3290   37.2740   19.2890 C.3   800  ANP800      0.5254
     30  N3        61.8100   36.5240   18.2620 N.2   800  ANP800     -0.0055
     31  C4        63.0360   36.7830   17.7690 C.2   800  ANP800      0.3518
@<TRIPOS>BOND
     1    18    17    1
     2    20    19    1
     3    11     9    2
     4    17    19    1
     5    17    15    1
     6    19    21    1
     7    10     9    1
     8     9    13    1
     9     9    12    1
    10     2     1    2
    11    15    14    1
    12    15    16    1
    13    13    14    1
    14    21    16    1
    15    21    22    1
    16     6     5    2
    17     4     1    1
    18     1     8    1
    19     1     3    1
    20    23    22    1
    21    23    24    1
    22    12     5    1
    23    22    31    1
    24     8     5    1
    25     5     7    1
    26    24    25    2
    27    31    30    2
    28    31    25    1
    29    30    29    1
    30    25    26    1
    31    29    28    1
    32    26    28    2
    33    26    27    1
