@<TRIPOS>MOLECULE
3sqx_ANP_A_1.pdb
 31 33 0 0 0
SMALL
GASTEIGER

@<TRIPOS>ATOM
      1  PG        71.1960   27.9730   16.7580 P.3   800  ANP800      0.4884
      2  O1G       71.9050   28.4580   15.5230 O.2   800  ANP800     -0.2331
      3  O2G       72.1010   27.7300   17.9460 O.3   800  ANP800     -0.1240
      4  O3G       70.2680   26.7920   16.5090 O.3   800  ANP800     -0.1240
      5  PB        70.4890   30.9350   17.1900 P.3   800  ANP800      0.4669
      6  O1B       71.4890   31.2350   16.1120 O.2   800  ANP800     -0.2351
      7  O2B       70.8550   31.2840   18.6140 O.3   800  ANP800     -0.1253
      8  N3B       70.0960   29.2390   17.1670 N.3   800  ANP800     -0.0163
      9  PA        68.7230   32.4490   15.5300 P.3   800  ANP800      0.2220
     10  O1A       69.6640   33.6120   15.4630 O.3   800  ANP800     -0.4370
     11  O2A       68.5950   31.5420   14.3310 O.2   800  ANP800     -0.5170
     12  O3A       69.0550   31.6090   16.8680 O.3   800  ANP800     -0.2360
     13  O5'       67.2760   33.0630   15.8830 O.3   800  ANP800     -0.3111
     14  C5'       66.1360   32.2270   16.0650 C.3   800  ANP800      0.1813
     15  C4'       64.8290   32.9630   15.8040 C.3   800  ANP800      0.1821
     16  O4'       64.6710   33.9700   16.8060 O.3   800  ANP800     -0.3135
     17  C3'       64.7880   33.6770   14.4590 C.3   800  ANP800      0.2184
     18  O3'       63.6210   33.2930   13.7390 O.3   800  ANP800     -0.2174
     19  C2'       64.7400   35.1660   14.7880 C.3   800  ANP800      0.2570
     20  O2'       63.8160   35.8890   13.9750 O.3   800  ANP800     -0.2130
     21  C1'       64.2560   35.1960   16.2180 C.3   800  ANP800      0.3186
     22  N9        64.8120   36.3030   17.0250 N.pl3 800  ANP800     -0.1439
     23  C8        66.0450   36.8360   16.9600 C.3   800  ANP800      0.3377
     24  N7        66.1820   37.8160   17.8810 N.2   800  ANP800     -0.2095
     25  C5        65.0200   37.9140   18.5530 C.2   800  ANP800      0.2526
     26  C6        64.4860   38.7520   19.6490 C.2   800  ANP800      0.4393
     27  N6        65.2590   39.6940   20.2210 N.pl3 800  ANP800      0.2180
     28  N1        63.2250   38.5250   20.0650 N.2   800  ANP800      0.0021
     29  C2        62.4520   37.5770   19.5010 C.3   800  ANP800      0.5254
     30  N3        62.8760   36.7870   18.4870 N.2   800  ANP800     -0.0055
     31  C4        64.1230   36.9100   17.9880 C.2   800  ANP800      0.3518
@<TRIPOS>BOND
     1    18    17    1
     2    20    19    1
     3    11     9    2
     4    17    19    1
     5    17    15    1
     6    19    21    1
     7    10     9    1
     8     2     1    2
     9     9    13    1
    10     9    12    1
    11    15    14    1
    12    15    16    1
    13    13    14    1
    14     6     5    2
    15    21    16    1
    16    21    22    1
    17     4     1    1
    18     1     8    1
    19     1     3    1
    20    12     5    1
    21    23    22    1
    22    23    24    1
    23    22    31    1
    24     8     5    1
    25     5     7    1
    26    24    25    2
    27    31    30    2
    28    31    25    1
    29    30    29    1
    30    25    26    1
    31    29    28    1
    32    26    28    2
    33    26    27    1
