@<TRIPOS>MOLECULE
3sqy_NAP_X_1.pdb
 48 52 0 0 0
SMALL
GASTEIGER

@<TRIPOS>ATOM
      1  PA         6.6080   31.6490   -6.5190 P.3   168  NAP168      0.2189
      2  O1A        6.7900   30.3880   -5.7620 O.3   168  NAP168     -0.4371
      3  O2A        5.3140   32.3440   -6.3620 O.2   168  NAP168     -0.5170
      4  O5B        7.7370   32.7380   -6.1640 O.3   168  NAP168     -0.3112
      5  C5B        9.0990   32.3850   -6.3090 C.3   168  NAP168      0.1813
      6  C4B        9.9040   33.4160   -5.5510 C.3   168  NAP168      0.1820
      7  O4B        9.6830   33.2360   -4.1600 O.3   168  NAP168     -0.3136
      8  C3B       11.4050   33.2790   -5.7170 C.3   168  NAP168      0.2157
      9  O3B       11.8640   33.7900   -6.9450 O.3   168  NAP168     -0.2175
     10  C2B       11.8650   34.0510   -4.4930 C.3   168  NAP168      0.2314
     11  O2B       11.6510   35.4400   -4.6500 O.3   168  NAP168     -0.2630
     12  C1B       10.8560   33.5860   -3.4560 C.3   168  NAP168      0.3158
     13  N9A       11.3370   32.4330   -2.6870 N.pl3 168  NAP168     -0.1439
     14  C8A       10.9140   31.1350   -2.7500 C.3   168  NAP168      0.3377
     15  N7A       11.6150   30.3980   -1.8480 N.2   168  NAP168     -0.2095
     16  C5A       12.4800   31.2300   -1.2030 C.2   168  NAP168      0.2526
     17  C6A       13.4320   31.0430   -0.1920 C.2   168  NAP168      0.4393
     18  N6A       13.6510   29.8500    0.3560 N.pl3 168  NAP168      0.2180
     19  N1A       14.1570   32.1330    0.2420 N.2   168  NAP168      0.0021
     20  C2A       13.9520   33.3820   -0.2920 C.3   168  NAP168      0.5254
     21  N3A       13.0150   33.5690   -1.2770 N.2   168  NAP168     -0.0055
     22  C4A       12.3040   32.5100   -1.7290 C.2   168  NAP168      0.3518
     23  O3         6.9150   31.4350   -8.0810 O.3   168  NAP168     -0.2703
     24  PN         6.7930   30.1920   -9.0830 P.3   168  NAP168      0.2189
     25  O1N        7.4100   28.9930   -8.4980 O.3   168  NAP168     -0.4371
     26  O2N        7.2490   30.6880  -10.4030 O.2   168  NAP168     -0.5170
     27  O5D        5.2030   29.9410   -9.1070 O.3   168  NAP168     -0.3112
     28  C5D        4.3610   30.9260   -9.6730 C.3   168  NAP168      0.1813
     29  C4D        3.2530   30.2480  -10.4690 C.3   168  NAP168      0.1799
     30  O4D        2.3720   29.5350   -9.5980 O.3   168  NAP168     -0.3327
     31  C3D        2.3840   31.2330  -11.2480 C.3   168  NAP168      0.2158
     32  O3D        2.0320   30.7280  -12.5260 O.3   168  NAP168     -0.2175
     33  C2D        1.1290   31.3320  -10.4020 C.3   168  NAP168      0.2309
     34  O2D        0.0010   31.6990  -11.1660 O.3   168  NAP168     -0.2158
     35  C1D        1.0390   29.9070   -9.8930 C.3   168  NAP168      0.2263
     36  N1N        0.2650   29.7180   -8.6740 N.pl3 168  NAP168     -0.2787
     37  C2N       -0.7110   28.7750   -8.7070 C.3   168  NAP168      0.1244
     38  C3N       -1.4640   28.5050   -7.5840 C.2   168  NAP168      0.0544
     39  C7N       -2.5290   27.4760   -7.7000 C.2   168  NAP168      0.2818
     40  O7N       -3.0160   26.9930   -6.5220 O.2   168  NAP168     -0.2670
     41  N7N       -2.9850   27.0080   -8.8610 N.am  168  NAP168     -0.0839
     42  C4N       -1.2270   29.2060   -6.3840 C.2   168  NAP168      0.0033
     43  C5N       -0.2120   30.1840   -6.3860 C.2   168  NAP168      0.0157
     44  C6N        0.5370   30.4350   -7.5290 C.2   168  NAP168      0.0633
     45  P2B       12.8310   36.4450   -5.1140 P.3   168  NAP168      0.5328
     46  O1X       12.2230   37.8200   -5.0410 O.3   168  NAP168     -0.1145
     47  O2X       13.9730   36.2340   -4.1400 O.3   168  NAP168     -0.1145
     48  O3X       13.2230   36.0580   -6.5180 O.2   168  NAP168     -0.2224
@<TRIPOS>BOND
     1    32    31    1
     2    31    29    1
     3    31    33    1
     4    34    33    1
     5    29    28    1
     6    29    30    1
     7    26    24    2
     8    33    35    1
     9    35    30    1
    10    35    36    1
    11    28    27    1
    12    27    24    1
    13    24    25    1
    14    24    23    1
    15    41    39   am
    16    37    36    1
    17    37    38    1
    18    36    44    1
    19    23     1    1
    20    39    38    1
    21    39    40    2
    22    38    42    2
    23    44    43    2
    24     9     8    1
    25     1     3    2
    26     1     4    1
    27     1     2    1
    28    48    45    2
    29    43    42    1
    30     5     4    1
    31     5     6    1
    32     8     6    1
    33     8    10    1
    34     6     7    1
    35    45    46    1
    36    45    11    1
    37    45    47    1
    38    11    10    1
    39    10    12    1
    40     7    12    1
    41    12    13    1
    42    14    13    1
    43    14    15    1
    44    13    22    1
    45    15    16    2
    46    22    21    2
    47    22    16    1
    48    21    20    1
    49    16    17    1
    50    20    19    1
    51    17    19    2
    52    17    18    1
