@<TRIPOS>MOLECULE
3sqy_Q11_X_1.pdb
 20 22 0 0 0
SMALL
GASTEIGER

@<TRIPOS>ATOM
      1  C1        -4.1280   28.6690   -3.8790 C.2   169  Q11169      0.2349
      2  N2        -5.0660   27.6910   -3.8270 N.2   169  Q11169     -0.3072
      3  C3        -6.1980   27.7410   -4.5720 C.1   169  Q11169      0.2427
      4  N4        -6.4730   28.7590   -5.4150 N.2   169  Q11169     -0.3257
      5  C5        -5.6300   29.8070   -5.5600 C.2   169  Q11169      0.1483
      6  C6        -4.3780   29.8210   -4.7820 C.2   169  Q11169      0.0745
      7  C7        -5.9090   30.8680   -6.4170 C.2   169  Q11169      0.0293
      8  C8        -4.9990   31.9290   -6.5250 C.2   169  Q11169     -0.0123
      9  C9        -3.8100   31.9360   -5.7830 C.3   169  Q11169      0.0527
     10  C10       -3.4910   30.8880   -4.9130 C.2   169  Q11169     -0.0148
     11  N11       -3.0050   28.5910   -3.1360 N.pl3 169  Q11169     -0.0920
     12  N12       -7.1070   26.7390   -4.4820 N.pl3 169  Q11169     -0.0232
     13  C13       -5.2950   33.0610   -7.4500 C.ar  169  Q11169      0.0304
     14  C14       -6.5340   33.6960   -7.4190 C.ar  169  Q11169      0.0027
     15  C15       -6.8010   34.7560   -8.2870 C.ar  169  Q11169      0.0002
     16  C16       -5.8400   35.1890   -9.2030 C.ar  169  Q11169      0.0031
     17  C17       -4.5860   34.5850   -9.2790 C.ar  169  Q11169      0.0369
     18  C18       -4.2730   33.5240   -8.4260 C.ar  169  Q11169      0.1383
     19  O19       -3.0490   32.9110   -8.4800 O.3   169  Q11169     -0.4714
     20  C20       -1.9900   33.4930   -9.2380 C.3   169  Q11169      0.2525
@<TRIPOS>BOND
     1    17    16   ar
     2    17    18   ar
     3    20    19    1
     4    16    15   ar
     5    19    18    1
     6    18    13   ar
     7    15    14   ar
     8    13    14   ar
     9    13     8    1
    10     8     7    2
    11     8     9    1
    12     7     5    1
    13     9    10    1
    14     5     4    2
    15     5     6    1
    16     4     3    2
    17    10     6    2
    18     6     1    1
    19     3    12    1
    20     3     2    2
    21     1     2    2
    22     1    11    1
