@<TRIPOS>MOLECULE
3sqz_COA_A_1.pdb
 48 50 0 0 0
SMALL
GASTEIGER

@<TRIPOS>ATOM
      1  N1A       -9.5220  -14.1980  -13.3480 N.2   601  COA601      0.0021
      2  C2A       -9.8800  -12.9860  -13.8220 C.3   601  COA601      0.5254
      3  N3A      -10.5250  -12.8820  -15.0420 N.2   601  COA601     -0.0055
      4  C4A      -10.7960  -14.0080  -15.7560 C.2   601  COA601      0.3518
      5  C5A      -10.4280  -15.2640  -15.2740 C.2   601  COA601      0.2526
      6  C6A       -9.8020  -15.3640  -14.0890 C.2   601  COA601      0.4393
      7  N6A       -9.4240  -16.6480  -13.5770 N.pl3 601  COA601      0.2180
      8  N7A      -10.8190  -16.2110  -16.1850 N.2   601  COA601     -0.2095
      9  C8A      -11.4090  -15.5880  -17.2100 C.3   601  COA601      0.3377
     10  N9A      -11.3670  -14.1990  -16.9300 N.pl3 601  COA601     -0.1439
     11  C1B      -12.0210  -13.1540  -17.7050 C.3   601  COA601      0.3185
     12  C2B      -11.4070  -12.4350  -18.9380 C.3   601  COA601      0.2543
     13  O2B      -10.1100  -12.3420  -19.3210 O.3   601  COA601     -0.2131
     14  C3B      -12.5080  -11.4430  -19.2690 C.3   601  COA601      0.1928
     15  O3B      -12.3980  -10.0750  -19.2300 O.3   601  COA601     -0.2673
     16  P3B      -11.6570   -9.2700  -20.3210 P.3   601  COA601      0.5327
     17  O7A      -12.5690   -9.1900  -21.6000 O.2   601  COA601     -0.2224
     18  O8A      -11.4650   -7.8550  -19.6890 O.3   601  COA601     -0.1145
     19  O9A      -10.3350   -9.9220  -20.6320 O.3   601  COA601     -0.1145
     20  C4B      -13.7220  -12.2030  -18.8930 C.3   601  COA601      0.1795
     21  O4B      -13.3870  -12.6620  -17.5680 O.3   601  COA601     -0.3136
     22  C5B      -14.6200  -12.9240  -19.8400 C.3   601  COA601      0.1812
     23  O5B      -13.8500  -14.0030  -20.2970 O.3   601  COA601     -0.3112
     24  P1A      -14.4480  -15.0050  -21.3650 P.3   601  COA601      0.2189
     25  O1A      -14.9030  -14.2130  -22.6550 O.2   601  COA601     -0.5170
     26  O2A      -13.4170  -16.0620  -21.7060 O.3   601  COA601     -0.4371
     27  O3A      -15.7230  -15.6600  -20.6700 O.3   601  COA601     -0.2703
     28  P2A      -16.8940  -16.3990  -21.4480 P.3   601  COA601      0.2188
     29  O4A      -16.3450  -17.1540  -22.7150 O.2   601  COA601     -0.5170
     30  O5A      -17.5680  -17.3770  -20.5130 O.3   601  COA601     -0.4371
     31  O6A      -17.9600  -15.3080  -21.9310 O.3   601  COA601     -0.3138
     32  CBP      -19.2760  -13.2670  -21.8580 C.3   601  COA601      0.0645
     33  CCP      -18.1750  -14.1000  -21.2500 C.3   601  COA601      0.1519
     34  CDP      -18.8900  -12.8970  -23.2500 C.3   601  COA601      0.0056
     35  CEP      -19.4920  -12.0080  -21.0530 C.3   601  COA601      0.0056
     36  CAP      -20.5260  -14.1010  -21.8520 C.3   601  COA601      0.2312
     37  OAP      -21.0470  -14.2380  -20.5920 O.3   601  COA601     -0.2131
     38  C9P      -21.5740  -13.6020  -22.8270 C.2   601  COA601      0.2719
     39  O9P      -21.4860  -13.7710  -24.0390 O.2   601  COA601     -0.2706
     40  N8P      -22.7430  -12.9410  -22.2190 N.am  601  COA601     -0.2028
     41  C7P      -23.7360  -12.2680  -23.0340 C.3   601  COA601      0.1248
     42  C6P      -23.2530  -10.9660  -23.6380 C.3   601  COA601      0.1102
     43  C5P      -24.3520  -10.1960  -24.3720 C.2   601  COA601      0.2432
     44  O5P      -25.5210  -10.3800  -24.1220 O.2   601  COA601     -0.2733
     45  N4P      -23.9670   -9.1750  -25.3090 N.am  601  COA601     -0.2044
     46  C3P      -24.9990   -8.3460  -25.9500 C.3   601  COA601      0.1276
     47  C2P      -25.0530   -6.9020  -25.5360 C.3   601  COA601      0.0920
     48  S1P      -23.5120   -6.0460  -25.4880 S.3   601  COA601     -0.0802
@<TRIPOS>BOND
     1    46    47    1
     2    46    45    1
     3    47    48    1
     4    45    43   am
     5    43    44    2
     6    43    42    1
     7    39    38    2
     8    42    41    1
     9    34    32    1
    10    41    40    1
    11    38    40   am
    12    38    36    1
    13    29    28    2
    14    25    24    2
    15    31    28    1
    16    31    33    1
    17    32    36    1
    18    32    33    1
    19    32    35    1
    20    36    37    1
    21    26    24    1
    22    17    16    2
    23    28    27    1
    24    28    30    1
    25    24    27    1
    26    24    23    1
    27    19    16    1
    28    16    18    1
    29    16    15    1
    30    23    22    1
    31    22    20    1
    32    13    12    1
    33    14    15    1
    34    14    12    1
    35    14    20    1
    36    12    11    1
    37    20    21    1
    38    11    21    1
    39    11    10    1
    40     9    10    1
    41     9     8    1
    42    10     4    1
    43     8     5    2
    44     4     5    1
    45     4     3    2
    46     5     6    1
    47     3     2    1
    48     6     7    1
    49     6     1    2
    50     2     1    1
