@<TRIPOS>MOLECULE
3sr0_AMP_A_1.pdb
 35 37 0 0 0
SMALL
GASTEIGER

@<TRIPOS>ATOM
      1  P        -12.6520    1.5400   19.0180 P.3   208  AMP208      0.5320
      2  O1P      -12.9670    0.3410   19.8370 O.3   208  AMP208     -0.1145
      3  O2P      -12.9310    2.9000   19.6020 O.3   208  AMP208     -0.1145
      4  O3P      -13.4820    1.4450   17.6980 O.2   208  AMP208     -0.2224
      5  O5'      -11.1150    1.4470   18.5850 O.3   208  AMP208     -0.2809
      6  C5'      -10.3800    2.5910   18.1820 C.3   208  AMP208      0.0880
      7  C4'       -8.8940    2.2850   18.1200 C.3   208  AMP208      0.1132
      8  O4'       -8.3780    2.1040   19.4590 O.3   208  AMP208     -0.3474
      9  C3'       -8.5030    0.9980   17.4050 C.3   208  AMP208      0.1133
     10  O3'       -8.4750    1.1220   15.9890 O.3   208  AMP208     -0.3864
     11  C2'       -7.1530    0.6860   18.0330 C.3   208  AMP208      0.1266
     12  O2'       -6.1630    1.5540   17.5400 O.3   208  AMP208     -0.3849
     13  C1'       -7.4320    1.0620   19.4840 C.3   208  AMP208      0.1617
     14  N9        -7.9990   -0.0600   20.2530 N.pl3 208  AMP208     -0.2234
     15  C8        -9.2140   -0.1180   20.8660 C.2   208  AMP208      0.1451
     16  N7        -9.3470   -1.3020   21.5180 N.2   208  AMP208     -0.3871
     17  C5        -8.2110   -1.9820   21.3390 C.2   208  AMP208      0.2211
     18  C6        -7.7130   -3.2950   21.7420 C.2   208  AMP208      0.2227
     19  N6        -8.4830   -4.1240   22.4910 N.pl3 208  AMP208     -0.3300
     20  N1        -6.4740   -3.6240   21.3410 N.2   208  AMP208     -0.3296
     21  C2        -5.7040   -2.8020   20.6030 C.1   208  AMP208      0.0930
     22  N3        -6.0970   -1.5910   20.2150 N.2   208  AMP208     -0.3287
     23  C4        -7.3470   -1.1730   20.5310 C.2   208  AMP208      0.2354
     24 H5'1      -10.5550    3.4050   18.8890 H     208  AMP208      0.0592
     25 H5'2      -10.7250    2.9200   17.2000 H     208  AMP208      0.0592
     26  H4'       -8.3810    3.1270   17.6340 H     208  AMP208      0.0647
     27  H3'       -9.2120    0.2090   17.6940 H     208  AMP208      0.0647
     28 HO3'       -8.2210    0.2760   15.5960 H     208  AMP208      0.2100
     29  H2'       -6.8900   -0.3760   17.9320 H     208  AMP208      0.0663
     30 HO2'       -6.0770    1.4350   16.5850 H     208  AMP208      0.2101
     31  H1'       -6.4990    1.4090   19.9510 H     208  AMP208      0.0841
     32  H8        -9.9710    0.6560   20.8210 H     208  AMP208      0.1149
     33 HN61       -9.4100   -3.8370   22.7700 H     208  AMP208      0.1448
     34 HN62       -8.1250   -5.0240   22.7760 H     208  AMP208      0.1448
     35  H2        -4.7130   -3.1360   20.3230 H     208  AMP208      0.1751
@<TRIPOS>BOND
     1    28    10    1
     2    10     9    1
     3    30    12    1
     4    25     6    1
     5     9    27    1
     6     9    11    1
     7     9     7    1
     8    12    11    1
     9    26     7    1
    10     4     1    2
    11    29    11    1
    12    11    13    1
    13     7     6    1
    14     7     8    1
    15     6     5    1
    16     6    24    1
    17     5     1    1
    18     1     3    1
    19     1     2    1
    20     8    13    1
    21    13    31    1
    22    13    14    1
    23    22    23    2
    24    22    21    2
    25    14    23    1
    26    14    15    1
    27    35    21    1
    28    23    17    1
    29    21    20    2
    30    32    15    1
    31    15    16    2
    32    17    16    2
    33    17    18    1
    34    20    18    2
    35    18    19    1
    36    19    33    1
    37    19    34    1
