@<TRIPOS>MOLECULE
3sr0_ADP_A_1.pdb
 39 41 0 0 0
SMALL
GASTEIGER

@<TRIPOS>ATOM
      1  PB       -18.6220    0.3580   17.0090 P.3   207  ADP207      0.5373
      2  O1B      -17.3620    0.8600   16.2820 O.2   207  ADP207     -0.2221
      3  O2B      -18.8640   -1.1080   16.7180 O.3   207  ADP207     -0.1143
      4  O3B      -18.6150    0.6980   18.4950 O.3   207  ADP207     -0.1143
      5  PA       -20.6540    2.4320   16.8420 P.3   207  ADP207      0.2224
      6  O1A      -19.7230    3.5980   17.0410 O.2   207  ADP207     -0.5170
      7  O2A      -21.5470    2.0530   17.9730 O.3   207  ADP207     -0.4370
      8  O3A      -19.8840    1.1050   16.3300 O.3   207  ADP207     -0.2261
      9  O5'      -21.6160    2.6960   15.5760 O.3   207  ADP207     -0.3245
     10  C5'      -21.0160    3.0010   14.3220 C.3   207  ADP207      0.0836
     11  C4'      -21.7940    4.0700   13.5820 C.3   207  ADP207      0.1131
     12  O4'      -23.0310    3.5500   13.0770 O.3   207  ADP207     -0.3474
     13  C3'      -22.1740    5.2240   14.4350 C.3   207  ADP207      0.1133
     14  O3'      -22.1570    6.3800   13.6050 O.3   207  ADP207     -0.3864
     15  C2'      -23.6010    4.8770   14.8900 C.3   207  ADP207      0.1266
     16  O2'      -24.3570    6.0610   15.0720 O.3   207  ADP207     -0.3849
     17  C1'      -24.1780    4.1060   13.7650 C.3   207  ADP207      0.1617
     18  N9       -24.9700    2.9260   14.0920 N.pl3 207  ADP207     -0.2234
     19  C8       -24.8040    2.0780   15.1410 C.2   207  ADP207      0.1451
     20  N7       -25.6270    1.0230   15.0160 N.2   207  ADP207     -0.3871
     21  C5       -26.3330    1.2110   13.8670 C.2   207  ADP207      0.2211
     22  C6       -27.3860    0.4990   13.1860 C.2   207  ADP207      0.2227
     23  N6       -27.8360   -0.6680   13.6440 N.pl3 207  ADP207     -0.3300
     24  N1       -27.8030    1.0020   12.0060 N.2   207  ADP207     -0.3296
     25  C2       -27.3630    2.1760   11.5260 C.1   207  ADP207      0.0930
     26  N3       -26.4000    2.9170   12.1130 N.2   207  ADP207     -0.3287
     27  C4       -25.8980    2.4630   13.2680 C.2   207  ADP207      0.2354
     28 H5'1      -20.9720    2.0970   13.7120 H     207  ADP207      0.0591
     29 H5'2      -19.9930    3.3460   14.4840 H     207  ADP207      0.0591
     30  H4'      -21.1790    4.4370   12.7480 H     207  ADP207      0.0647
     31  H3'      -21.4950    5.3170   15.2950 H     207  ADP207      0.0647
     32 HO3'      -22.4000    7.1560   14.1280 H     207  ADP207      0.2100
     33  H2'      -23.5760    4.2650   15.8020 H     207  ADP207      0.0663
     34 HO2'      -23.9470    6.6010   15.7620 H     207  ADP207      0.2101
     35  H1'      -24.7370    4.7800   13.1010 H     207  ADP207      0.0841
     36  H8       -24.0850    2.2120   15.9400 H     207  ADP207      0.1149
     37 HN61      -27.4880   -1.0340   14.5190 H     207  ADP207      0.1448
     38 HN62      -28.5730   -1.1520   13.1530 H     207  ADP207      0.1448
     39  H2       -27.7720    2.5270   10.5870 H     207  ADP207      0.1751
@<TRIPOS>BOND
     1    39    25    1
     2    25    24    2
     3    25    26    2
     4    24    22    2
     5    26    27    2
     6    30    11    1
     7    12    11    1
     8    12    17    1
     9    35    17    1
    10    38    23    1
    11    22    23    1
    12    22    21    1
    13    27    21    1
    14    27    18    1
    15    11    10    1
    16    11    13    1
    17    14    32    1
    18    14    13    1
    19    23    37    1
    20    28    10    1
    21    17    18    1
    22    17    15    1
    23    21    20    2
    24    18    19    1
    25    10    29    1
    26    10     9    1
    27    13    15    1
    28    13    31    1
    29    15    16    1
    30    15    33    1
    31    20    19    2
    32    16    34    1
    33    19    36    1
    34     9     5    1
    35     2     1    2
    36     8     5    1
    37     8     1    1
    38     3     1    1
    39     5     6    2
    40     5     7    1
    41     1     4    1
