@<TRIPOS>MOLECULE
3sr1_THP_A_1.pdb
 25 26 0 0 0
SMALL
GASTEIGER

@<TRIPOS>ATOM
      1  P2        18.0500   11.3190    4.8410 P.3   150  THP150      0.5327
      2  O4P       16.8090   12.0320    5.3620 O.3   150  THP150     -0.1145
      3  O5P       18.0490    9.7880    5.0790 O.2   150  THP150     -0.2224
      4  O6P       19.3240   12.0420    5.3480 O.3   150  THP150     -0.1145
      5  P1        21.3300   14.7750    0.9950 P.3   150  THP150      0.5326
      6  O1P       22.0040   13.6380    1.7200 O.3   150  THP150     -0.1145
      7  O2P       22.2980   15.4100    0.0050 O.2   150  THP150     -0.2224
      8  O3P       20.6360   15.7110    1.9780 O.3   150  THP150     -0.1145
      9  O5'       18.0340   11.3610    3.3090 O.3   150  THP150     -0.2675
     10  C5'       18.0060   12.6560    2.6010 C.3   150  THP150      0.1857
     11  C4'       18.9850   12.5270    1.4020 C.3   150  THP150      0.1748
     12  O4'       18.5810   11.4410    0.5340 O.3   150  THP150     -0.3340
     13  C3'       18.9150   13.8050    0.5300 C.3   150  THP150      0.1600
     14  O3'       20.2420   14.1350    0.0010 O.3   150  THP150     -0.2700
     15  C2'       18.0100   13.4050   -0.6420 C.3   150  THP150      0.0847
     16  C1'       18.2570   11.8310   -0.7630 C.3   150  THP150      0.2089
     17  N1        16.9640   11.1520   -1.1650 N.am  150  THP150     -0.1794
     18  C2        16.7030   11.0140   -2.4500 C.1   150  THP150      0.2844
     19  O2        17.5480   11.2940   -3.3730 O.2   150  THP150     -0.1918
     20  N3        15.5320   10.4430   -2.8690 N.2   150  THP150     -0.2455
     21  C4        14.5530   10.1440   -1.9320 C.1   150  THP150      0.2134
     22  O4        13.4790    9.7410   -2.3760 O.2   150  THP150     -0.2088
     23  C5        14.7920   10.3950   -0.5880 C.2   150  THP150      0.0891
     24  C5M       13.7620    9.9760    0.4780 C.3   150  THP150      0.0462
     25  C6        16.0130   10.8680   -0.2030 C.2   150  THP150      0.0877
@<TRIPOS>BOND
     1    19    18    2
     2    20    18    2
     3    20    21    2
     4    18    17   am
     5    22    21    2
     6    21    23    1
     7    17    16    1
     8    17    25    1
     9    16    15    1
    10    16    12    1
    11    15    13    1
    12    23    25    2
    13    23    24    1
    14    14    13    1
    15    14     5    1
    16     7     5    2
    17    13    11    1
    18    12    11    1
    19     5     6    1
    20     5     8    1
    21    11    10    1
    22    10     9    1
    23     9     1    1
    24     1     3    2
    25     1     4    1
    26     1     2    1
