@<TRIPOS>MOLECULE
3sr4_TT8_A_1.pdb
 27 29 0 0 0
SMALL
GASTEIGER

@<TRIPOS>ATOM
      1  C         41.9410   53.5070    0.9770 C.2   417  TT8417      0.3819
      2  N         41.8210   51.1390    1.6040 N.3   417  TT8417     -0.1208
      3  O         42.6880   53.1120    0.0640 O.co2 417  TT8417     -0.2441
      4  C1        47.5070   43.5170    9.6100 C.3   417  TT8417      0.3062
      5  N1        43.8450   43.6580    8.6140 N.2   417  TT8417     -0.0020
      6  C2        42.8050   44.4990    8.1900 C.3   417  TT8417      0.5253
      7  N3        43.0890   45.8580    8.0330 N.2   417  TT8417     -0.0055
      8  C4        44.3460   46.3640    8.2820 C.2   417  TT8417      0.3517
      9  C5        45.3930   45.5200    8.7080 C.2   417  TT8417      0.2478
     10  C6        45.1330   44.1380    8.8760 C.2   417  TT8417      0.3856
     11  N6        46.0760   43.2570    9.2760 N.pl3 417  TT8417     -0.0252
     12  N7        46.4920   46.2840    8.8670 N.2   417  TT8417     -0.2097
     13  C8        46.1950   47.5650    8.5630 C.3   417  TT8417      0.3377
     14  N9        44.8630   47.6280    8.1970 N.pl3 417  TT8417     -0.1439
     15  CA        41.5150   52.5300    2.0760 C.3   417  TT8417      0.1952
     16  CB        42.2020   52.8070    3.4450 C.3   417  TT8417      0.0422
     17  SD        44.5390   53.0040    5.0270 S.3   417  TT8417     -0.1375
     18  CG        43.7410   52.6700    3.4400 C.3   417  TT8417      0.0597
     19  C1'       44.0960   48.8200    7.7710 C.3   417  TT8417      0.3185
     20  C2'       44.2880   50.0150    8.6790 C.3   417  TT8417      0.2569
     21  O2'       43.4780   49.9340    9.8240 O.3   417  TT8417     -0.2130
     22  C3'       43.9240   51.1840    7.7670 C.3   417  TT8417      0.2168
     23  O3'       42.6310   51.7140    7.9980 O.3   417  TT8417     -0.2175
     24  C4'       44.0840   50.6210    6.3560 C.3   417  TT8417      0.1630
     25  O4'       44.5190   49.2700    6.4920 O.3   417  TT8417     -0.3153
     26  C5'       45.1310   51.3730    5.5460 C.3   417  TT8417      0.0899
     27  OXT       41.5690   54.6990    0.9840 O.co2 417  TT8417     -0.2441
@<TRIPOS>BOND
     1     3     1   ar
     2     1    27   ar
     3     1    15    1
     4     2    15    1
     5    15    16    1
     6    18    16    1
     7    18    17    1
     8    17    26    1
     9    26    24    1
    10    24    25    1
    11    24    22    1
    12    25    19    1
    13    22    23    1
    14    22    20    1
    15    19    14    1
    16    19    20    1
    17     7     6    1
    18     7     8    2
    19     6     5    1
    20    14     8    1
    21    14    13    1
    22     8     9    1
    23    13    12    1
    24     5    10    2
    25    20    21    1
    26     9    12    2
    27     9    10    1
    28    10    11    1
    29    11     4    1
