@<TRIPOS>MOLECULE
3sr5_Q12_X_1.pdb
 23 25 0 0 0
SMALL
GASTEIGER

@<TRIPOS>ATOM
      1  C1         4.3320  -28.6900   -3.8750 C.2   169  Q12169      0.2349
      2  N2         5.2220  -27.6590   -3.7550 N.2   169  Q12169     -0.3072
      3  C3         6.4230  -27.6640   -4.3930 C.1   169  Q12169      0.2427
      4  N4         6.8220  -28.6850   -5.2000 N.2   169  Q12169     -0.3257
      5  C5         6.0350  -29.7830   -5.3870 C.2   169  Q12169      0.1483
      6  C6         4.7190  -29.8520   -4.7360 C.2   169  Q12169      0.0745
      7  C7         3.8750  -30.9590   -4.9140 C.2   169  Q12169     -0.0155
      8  C8         4.2980  -32.0250   -5.7230 C.3   169  Q12169      0.0446
      9  C9         5.6310  -31.9520   -6.3880 C.2   169  Q12169     -0.0158
     10  C10        6.4630  -30.8440   -6.1950 C.2   169  Q12169      0.0292
     11  N11        3.1450  -28.6480   -3.2540 N.pl3 169  Q12169     -0.0920
     12  N12        7.2800  -26.6120   -4.2420 N.pl3 169  Q12169     -0.0232
     13  C13        3.3700  -33.2110   -5.9010 C.3   169  Q12169      0.0094
     14  C14        6.2000  -33.0510   -7.2270 C.ar  169  Q12169     -0.0004
     15  C15        6.6750  -32.8450   -8.5210 C.ar  169  Q12169      0.0030
     16  C16        7.2430  -33.9040   -9.2600 C.ar  169  Q12169      0.0400
     17  C17        7.3820  -35.1730   -8.6770 C.ar  169  Q12169      0.1724
     18  C18        6.9110  -35.3730   -7.2930 C.ar  169  Q12169      0.1724
     19  C19        6.3450  -34.3030   -6.5950 C.ar  169  Q12169      0.0397
     20  O20        7.0380  -36.6260   -6.7190 O.3   169  Q12169     -0.4684
     21  C21        6.5740  -36.8730   -5.3960 C.3   169  Q12169      0.2526
     22  O22        7.9370  -36.2570   -9.3630 O.3   169  Q12169     -0.4684
     23  C23        8.7310  -36.0540  -10.5300 C.3   169  Q12169      0.2526
@<TRIPOS>BOND
     1    23    22    1
     2    22    17    1
     3    16    17   ar
     4    16    15   ar
     5    17    18   ar
     6    15    14   ar
     7    18    20    1
     8    18    19   ar
     9    14    19   ar
    10    14     9    1
    11    20    21    1
    12     9    10    2
    13     9     8    1
    14    10     5    1
    15    13     8    1
    16     8     7    1
    17     5     4    2
    18     5     6    1
    19     4     3    2
    20     7     6    2
    21     6     1    1
    22     3    12    1
    23     3     2    2
    24     1     2    2
    25     1    11    1
