@<TRIPOS>MOLECULE
3sr5_NAP_X_1.pdb
 48 52 0 0 0
SMALL
GASTEIGER

@<TRIPOS>ATOM
      1  PA        -6.5210  -31.6330   -6.3670 P.3   168  NAP168      0.2189
      2  O1A       -6.6660  -30.3710   -5.6070 O.3   168  NAP168     -0.4371
      3  O2A       -5.2360  -32.3480   -6.2500 O.2   168  NAP168     -0.5170
      4  O5B       -7.6860  -32.6640   -5.9670 O.3   168  NAP168     -0.3112
      5  C5B       -9.0380  -32.3300   -6.2070 C.3   168  NAP168      0.1813
      6  C4B       -9.8240  -33.3560   -5.4190 C.3   168  NAP168      0.1820
      7  O4B       -9.5610  -33.2090   -4.0310 O.3   168  NAP168     -0.3136
      8  C3B      -11.3320  -33.2220   -5.5810 C.3   168  NAP168      0.2157
      9  O3B      -11.8170  -33.7130   -6.8200 O.3   168  NAP168     -0.2175
     10  C2B      -11.7720  -33.9970   -4.3470 C.3   168  NAP168      0.2314
     11  O2B      -11.5480  -35.3790   -4.5300 O.3   168  NAP168     -0.2630
     12  C1B      -10.7390  -33.5350   -3.3150 C.3   168  NAP168      0.3158
     13  N9A      -11.2060  -32.3790   -2.5270 N.pl3 168  NAP168     -0.1439
     14  C8A      -10.7850  -31.0700   -2.5760 C.3   168  NAP168      0.3377
     15  N7A      -11.4780  -30.3480   -1.6560 N.2   168  NAP168     -0.2095
     16  C5A      -12.3420  -31.1940   -1.0300 C.2   168  NAP168      0.2526
     17  C6A      -13.2920  -31.0250   -0.0180 C.2   168  NAP168      0.4393
     18  N6A      -13.5090  -29.8290    0.5400 N.pl3 168  NAP168      0.2180
     19  N1A      -14.0250  -32.1240    0.4140 N.2   168  NAP168      0.0021
     20  C2A      -13.8260  -33.3720   -0.1300 C.3   168  NAP168      0.5254
     21  N3A      -12.8920  -33.5440   -1.1310 N.2   168  NAP168     -0.0055
     22  C4A      -12.1700  -32.4690   -1.5660 C.2   168  NAP168      0.3518
     23  O3        -6.9390  -31.3920   -7.8970 O.3   168  NAP168     -0.2703
     24  PN        -6.7680  -30.1660   -8.9080 P.3   168  NAP168      0.2189
     25  O1N       -7.3930  -28.9630   -8.2970 O.3   168  NAP168     -0.4371
     26  O2N       -7.2070  -30.6080  -10.2510 O.2   168  NAP168     -0.5170
     27  O5D       -5.1710  -29.9140   -8.9610 O.3   168  NAP168     -0.3112
     28  C5D       -4.3610  -30.8740   -9.6150 C.3   168  NAP168      0.1813
     29  C4D       -3.2260  -30.2050  -10.3770 C.3   168  NAP168      0.1799
     30  O4D       -2.3650  -29.5380   -9.4410 O.3   168  NAP168     -0.3327
     31  C3D       -2.3520  -31.2180  -11.1190 C.3   168  NAP168      0.2158
     32  O3D       -1.9700  -30.7130  -12.3980 O.3   168  NAP168     -0.2175
     33  C2D       -1.1220  -31.3710  -10.2480 C.3   168  NAP168      0.2309
     34  O2D        0.0270  -31.7340  -11.0050 O.3   168  NAP168     -0.2158
     35  C1D       -1.0340  -29.9420   -9.7140 C.3   168  NAP168      0.2263
     36  N1N       -0.2600  -29.7350   -8.4930 N.pl3 168  NAP168     -0.2787
     37  C2N        0.6520  -28.7300   -8.5550 C.3   168  NAP168      0.1244
     38  C3N        1.4160  -28.4370   -7.4420 C.2   168  NAP168      0.0544
     39  C7N        2.5010  -27.4220   -7.5790 C.2   168  NAP168      0.2818
     40  O7N        2.9940  -26.9120   -6.4180 O.2   168  NAP168     -0.2670
     41  N7N        2.9580  -26.9730   -8.7560 N.am  168  NAP168     -0.0839
     42  C4N        1.2100  -29.1480   -6.2420 C.2   168  NAP168      0.0033
     43  C5N        0.2460  -30.1710   -6.1970 C.2   168  NAP168      0.0157
     44  C6N       -0.4970  -30.4520   -7.3380 C.2   168  NAP168      0.0633
     45  P2B      -12.7290  -36.3830   -4.9980 P.3   168  NAP168      0.5328
     46  O1X      -12.1350  -37.7720   -4.9370 O.3   168  NAP168     -0.1145
     47  O2X      -13.8640  -36.1840   -4.0030 O.3   168  NAP168     -0.1145
     48  O3X      -13.1890  -36.0370   -6.4050 O.2   168  NAP168     -0.2224
@<TRIPOS>BOND
     1    32    31    1
     2    31    29    1
     3    31    33    1
     4    34    33    1
     5    29    28    1
     6    29    30    1
     7    26    24    2
     8    33    35    1
     9    35    30    1
    10    35    36    1
    11    28    27    1
    12    27    24    1
    13    24    25    1
    14    24    23    1
    15    41    39   am
    16    37    36    1
    17    37    38    1
    18    36    44    1
    19    23     1    1
    20    39    38    1
    21    39    40    2
    22    38    42    2
    23    44    43    2
    24     9     8    1
    25    48    45    2
    26     1     3    2
    27     1     4    1
    28     1     2    1
    29    42    43    1
    30     5     4    1
    31     5     6    1
    32     8     6    1
    33     8    10    1
    34     6     7    1
    35    45    46    1
    36    45    11    1
    37    45    47    1
    38    11    10    1
    39    10    12    1
    40     7    12    1
    41    12    13    1
    42    14    13    1
    43    14    15    1
    44    13    22    1
    45    15    16    2
    46    22    21    2
    47    22    16    1
    48    21    20    1
    49    16    17    1
    50    20    19    1
    51    17    19    2
    52    17    18    1
