@<TRIPOS>MOLECULE
3sra_MYR_B_1.pdb
 16 15 0 0 0
SMALL
GASTEIGER

@<TRIPOS>ATOM
      1  C1        35.4070   56.9180   51.1560 C.2   763  MYR763      0.3649
      2  O1        34.9170   58.2560   50.8110 O.co2 763  MYR763     -0.2457
      3  O2        36.5670   56.5720   50.9040 O.co2 763  MYR763     -0.2457
      4  C2        34.4730   55.9670   51.8200 C.3   763  MYR763      0.1141
      5  C3        35.1580   55.3320   53.0210 C.3   763  MYR763      0.0118
      6  C4        34.1400   54.4050   53.6630 C.3   763  MYR763      0.0006
      7  C5        34.8310   53.4170   54.5730 C.3   763  MYR763      0.0000
      8  C6        33.8480   52.8880   55.6000 C.3   763  MYR763      0.0000
      9  C7        34.5380   52.6400   56.9350 C.3   763  MYR763      0.0000
     10  C8        35.6090   51.5640   56.8120 C.3   763  MYR763      0.0000
     11  C9        34.9540   50.2030   56.9470 C.3   763  MYR763      0.0000
     12  C10       35.9860   49.1040   56.8030 C.3   763  MYR763      0.0000
     13  C11       35.6750   48.0690   57.8650 C.3   763  MYR763      0.0000
     14  C12       36.2820   46.7310   57.4960 C.3   763  MYR763      0.0000
     15  C13       35.3750   45.6560   58.0560 C.3   763  MYR763      0.0000
     16  C14       36.0920   44.3230   58.0410 C.3   763  MYR763      0.0000
@<TRIPOS>BOND
     1     2     1   ar
     2     3     1   ar
     3     1     4    1
     4     4     5    1
     5     5     6    1
     6     6     7    1
     7     7     8    1
     8     8     9    1
     9    12    11    1
    10    12    13    1
    11    10     9    1
    12    10    11    1
    13    14    13    1
    14    14    15    1
    15    16    15    1
