@<TRIPOS>MOLECULE
3srb_28S_B_1.pdb
 15 16 0 0 0
SMALL
GASTEIGER

@<TRIPOS>ATOM
      1  C1        34.9610   46.4870   60.1070 C.2     1  28S1        0.0310
      2  N1        37.0600   48.3210   56.1930 N.2     1  28S1       -0.0331
      3 BR1        34.0400   46.7350   61.7510 Br      1  28S1       -0.0493
      4  C2        35.3660   45.2090   59.7050 C.2     1  28S1       -0.0131
      5  N2        37.1340   46.0150   56.5930 N.2     1  28S1       -0.2225
      6  C3        36.0860   45.0470   58.5120 C.3     1  28S1        0.0722
      7  N3        35.9420   49.7950   57.6430 N.pl3   1  28S1       -0.0264
      8  C4        36.4080   46.1630   57.7320 C.2     1  28S1        0.0698
      9  C5        36.0040   47.4400   58.1300 C.2     1  28S1        0.0996
     10  C6        35.2760   47.5950   59.3150 C.2     1  28S1        0.0151
     11  C7        36.3310   48.5360   57.3180 C.2     1  28S1        0.3596
     12  C8        37.4340   47.0800   55.8330 C.3     1  28S1        0.3916
     13  C9        36.0790   50.8980   56.6970 C.3     1  28S1        0.2776
     14  C10       35.2440   52.0950   57.0960 C.2     1  28S1        0.0286
     15  C11       34.6960   52.8660   56.1770 C.2     1  28S1       -0.0005
@<TRIPOS>BOND
     1    12     2    1
     2    12     5    1
     3    15    14    2
     4     2    11    2
     5     5     8    2
     6    13    14    1
     7    13     7    1
     8    11     7    1
     9    11     9    1
    10     8     9    1
    11     8     6    1
    12     9    10    2
    13     6     4    1
    14    10     1    1
    15     4     1    2
    16     1     3    1
