@<TRIPOS>MOLECULE
3src_28N_B_1.pdb
 15 17 0 0 0
SMALL
GASTEIGER

@<TRIPOS>ATOM
      1  C4       -23.2660  -34.2990    9.0950 C.ar    1  28N1        0.0389
      2  C5       -23.5580  -35.2390   10.0770 C.ar    1  28N1        0.1554
      3  C7       -23.5810  -37.6090   10.3980 C.3     1  28N1        0.2724
      4  C8       -24.3660  -37.2760   11.6400 C.ar    1  28N1        0.2127
      5  C15      -25.3240  -33.8990   10.8740 C.ar    1  28N1        0.0275
      6  O12      -25.9690  -34.9290   13.5960 O.2     1  28N1       -0.2203
      7  C11      -25.4260  -35.9640   13.0690 C.ar    1  28N1        0.4473
      8  O10      -25.4160  -37.2080   13.6120 O.2     1  28N1       -0.2950
      9  N9       -24.7160  -38.0770   12.6910 N.ar    1  28N1       -0.0543
     10  N13      -24.7990  -36.0370   11.9040 N.ar    1  28N1       -0.2215
     11  O6       -22.8340  -36.4050   10.1550 O.3     1  28N1       -0.4657
     12  C14      -24.5780  -35.0690   11.0080 C.ar    1  28N1        0.1054
     13  C2       -25.0490  -32.9470    9.8990 C.ar    1  28N1        0.0362
     14 BR1       -26.1090  -31.3950    9.7900 Br      1  28N1       -0.0489
     15  C3       -24.0180  -33.1400    8.9960 C.ar    1  28N1        0.0099
@<TRIPOS>BOND
     1    15     1   ar
     2    15    13   ar
     3     1     2   ar
     4    14    13    1
     5    13     5   ar
     6     2    11    1
     7     2    12   ar
     8    11     3    1
     9     3     4    1
    10     5    12   ar
    11    12    10    1
    12     4    10   ar
    13     4     9   ar
    14    10     7   ar
    15     9     8   ar
    16     7     6    2
    17     7     8   ar
