@<TRIPOS>MOLECULE
3srd_FBP_A_1.pdb
 20 20 0 0 0
SMALL
GASTEIGER

@<TRIPOS>ATOM
      1  P1       -50.4920   -5.8530  -15.9740 P.3   532  FBP532      0.5328
      2  O1P      -50.9390   -7.2950  -15.9910 O.3   532  FBP532     -0.1145
      3  O2P      -50.3470   -5.3580  -14.5480 O.3   532  FBP532     -0.1145
      4  O3P      -51.4840   -4.9810  -16.7070 O.2   532  FBP532     -0.2224
      5  O1       -49.0660   -5.7730  -16.7090 O.3   532  FBP532     -0.2648
      6  C1       -48.5440   -4.5280  -17.1190 C.3   532  FBP532      0.2152
      7  C2       -47.2740   -4.7620  -17.9230 C.3   532  FBP532      0.2780
      8  O2       -46.7720   -3.4930  -18.4140 O.3   532  FBP532     -0.1897
      9  C3       -47.5420   -5.7210  -19.0750 C.3   532  FBP532      0.2408
     10  O3       -47.7610   -5.0480  -20.2860 O.3   532  FBP532     -0.2149
     11  C4       -46.3160   -6.6010  -19.1060 C.3   532  FBP532      0.2167
     12  O4       -46.6220   -7.8720  -19.6160 O.3   532  FBP532     -0.2175
     13  C5       -45.9950   -6.6760  -17.6260 C.3   532  FBP532      0.1808
     14  O5       -46.2950   -5.3900  -17.1080 O.3   532  FBP532     -0.3255
     15  C6       -44.5700   -7.1080  -17.3220 C.3   532  FBP532      0.1859
     16  O6       -44.5960   -7.8460  -16.1250 O.3   532  FBP532     -0.2675
     17  P2       -43.6130   -9.0950  -15.8760 P.3   532  FBP532      0.5327
     18  O4P      -43.2490   -9.7800  -17.1770 O.2   532  FBP532     -0.2224
     19  O5P      -42.3770   -8.5460  -15.2130 O.3   532  FBP532     -0.1145
     20  O6P      -44.2790  -10.0890  -14.9570 O.3   532  FBP532     -0.1145
@<TRIPOS>BOND
     1    10     9    1
     2    12    11    1
     3    11     9    1
     4    11    13    1
     5     9     7    1
     6     8     7    1
     7     7     6    1
     8     7    14    1
     9    13    15    1
    10    13    14    1
    11    15    16    1
    12    18    17    2
    13     6     5    1
    14     5     1    1
    15     4     1    2
    16    16    17    1
    17     2     1    1
    18     1     3    1
    19    17    19    1
    20    17    20    1
