@<TRIPOS>MOLECULE
3srg_OCH_A_1.pdb
 11 12 0 0 0
SMALL
GASTEIGER

@<TRIPOS>ATOM
      1  O1        -5.2940  -23.4870   29.3260 O.2   1358  OCH1358    -0.2093
      2  N2        -6.8670  -21.9580   28.7200 N.2   1358  OCH1358    -0.3367
      3  C3        -7.7100  -20.9320   28.9720 C.2   1358  OCH1358     0.1297
      4  C4        -8.4900  -20.3990   27.9500 C.2   1358  OCH1358     0.0292
      5  C5        -9.3660  -19.3280   28.2060 C.2   1358  OCH1358     0.0020
      6  C6        -9.4950  -18.8220   29.5090 C.2   1358  OCH1358    -0.0038
      7  C7        -8.7250  -19.3730   30.5430 C.2   1358  OCH1358    -0.0150
      8  C8        -7.8190  -20.4190   30.2880 C.3   1358  OCH1358     0.0979
      9  C9        -7.0170  -20.9890   31.3150 C.2   1358  OCH1358    -0.0016
     10  C10       -6.1650  -22.0720   31.0040 C.2   1358  OCH1358     0.1027
     11  C1        -6.1180  -22.5180   29.6840 C.1   1358  OCH1358     0.2048
@<TRIPOS>BOND
     1     4     5    2
     2     4     3    1
     3     5     6    1
     4     2     3    2
     5     2    11    2
     6     3     8    1
     7     1    11    2
     8     6     7    2
     9    11    10    1
    10     8     7    1
    11     8     9    1
    12    10     9    2
