@<TRIPOS>MOLECULE
3srk_LSA_A_1.pdb
 11 12 0 0 0
SMALL
GASTEIGER

@<TRIPOS>ATOM
      1  C4         8.0400   23.0530   11.3160 C.ar  500  LSA500      0.0014
      2  C5         9.2470   23.0680   10.6160 C.ar  500  LSA500      0.0197
      3  C6        10.4430   23.1910   11.3220 C.ar  500  LSA500      0.1210
      4  C7        11.8090   23.3880   13.1480 C.3   500  LSA500      0.1431
      5  C3         8.0420   23.1520   12.7090 C.ar  500  LSA500     -0.0002
      6  S10       12.1120   23.2330   10.8780 S.O2  500  LSA500      0.0769
      7  N9        12.6820   22.7900   12.3190 N.3   500  LSA500     -0.0729
      8  C1        10.4650   23.2810   12.7190 C.ar  500  LSA500      0.0158
      9  C2         9.2470   23.2640   13.4060 C.ar  500  LSA500     -0.0015
     10  O12       12.4010   22.2360    9.7850 O.2   500  LSA500     -0.1516
     11  O11       12.5570   24.6200   10.4840 O.2   500  LSA500     -0.1516
@<TRIPOS>BOND
     1    10     6    2
     2    11     6    2
     3     2     1   ar
     4     2     3   ar
     5     6     3    1
     6     6     7    1
     7     1     5   ar
     8     3     8   ar
     9     7     4    1
    10     5     9   ar
    11     8     4    1
    12     8     9   ar
