@<TRIPOS>MOLECULE
3srk_PTK_A_1.pdb
 32 35 0 0 0
SMALL
GASTEIGER

@<TRIPOS>ATOM
      1  OAA       23.5710   -2.2090    2.4330 O.3   502  PTK502     -0.0650
      2  OAB       24.2380    0.0800    2.8040 O.3   502  PTK502     -0.0650
      3  OAC       23.5730    2.2150   -2.4380 O.3   502  PTK502     -0.0650
      4  OAD       24.2320   -0.0880   -2.8010 O.3   502  PTK502     -0.0650
      5  OAE       15.3580   -2.1380    2.4290 O.3   502  PTK502     -0.0650
      6  OAF       17.0070   -0.8390    3.6620 O.3   502  PTK502     -0.0650
      7  OAG       15.3580    2.1370   -2.4290 O.3   502  PTK502     -0.0650
      8  OAH       17.0080    0.8380   -3.6610 O.3   502  PTK502     -0.0650
      9  OAI       22.1940   -0.7460    3.6540 O.3   502  PTK502     -0.0650
     10  OAJ       22.1870    0.7380   -3.6500 O.3   502  PTK502     -0.0650
     11  OAK       15.0440    0.1530    2.8470 O.3   502  PTK502     -0.0650
     12  OAL       15.0450   -0.1550   -2.8480 O.3   502  PTK502     -0.0650
     13  CAM       22.9450    0.0020    0.0020 C.ar  502  PTK502      0.0378
     14  CAN       16.1140   -0.0010    0.0000 C.ar  502  PTK502      0.0378
     15  CAO       20.2110   -0.7160    2.2780 C.ar  502  PTK502      0.0013
     16  CAP       18.8380   -0.7140    2.2770 C.ar  502  PTK502      0.0013
     17  CAQ       20.2120    0.7180   -2.2760 C.ar  502  PTK502      0.0013
     18  CAR       18.8390    0.7150   -2.2760 C.ar  502  PTK502      0.0013
     19  CAS       22.2530   -0.3510    1.1370 C.ar  502  PTK502      0.1136
     20  CAT       22.2530    0.3540   -1.1340 C.ar  502  PTK502      0.1136
     21  CAU       16.8110   -0.3580    1.1290 C.ar  502  PTK502      0.1136
     22  CAV       16.8110    0.3570   -1.1290 C.ar  502  PTK502      0.1136
     23  CAW       20.8850   -0.3540    1.1340 C.ar  502  PTK502      0.0177
     24  CAX       20.8860    0.3570   -1.1320 C.ar  502  PTK502      0.0177
     25  CAY       18.1720   -0.3480    1.1330 C.ar  502  PTK502      0.0177
     26  CAZ       18.1730    0.3490   -1.1330 C.ar  502  PTK502      0.0177
     27  CBA       20.2120    0.0010    0.0010 C.ar  502  PTK502      0.0026
     28  CBB       18.8510    0.0000    0.0010 C.ar  502  PTK502      0.0026
     29  SBC       23.0800   -0.8070    2.5670 S.3   502  PTK502      0.0421
     30  SBD       23.0820    0.8140   -2.5690 S.3   502  PTK502      0.0421
     31  SBE       16.0140   -0.8090    2.5650 S.3   502  PTK502      0.0421
     32  SBF       16.0140    0.8080   -2.5650 S.3   502  PTK502      0.0421
@<TRIPOS>BOND
     1     8    32    1
     2    10    30    1
     3    12    32    1
     4     4    30    1
     5    30     3    1
     6    30    20    1
     7    32     7    1
     8    32    22    1
     9    17    18   ar
    10    17    24   ar
    11    18    26   ar
    12    20    24   ar
    13    20    13   ar
    14    26    22   ar
    15    26    28   ar
    16    24    27   ar
    17    22    14   ar
    18    14    21   ar
    19    28    27   ar
    20    28    25   ar
    21    27    23   ar
    22    13    19   ar
    23    21    25   ar
    24    21    31    1
    25    25    16   ar
    26    23    19   ar
    27    23    15   ar
    28    19    29    1
    29    16    15   ar
    30     5    31    1
    31     1    29    1
    32    31    11    1
    33    31     6    1
    34    29     2    1
    35    29     9    1
