@<TRIPOS>MOLECULE
3srq_Q19_X_1.pdb
 22 24 0 0 0
SMALL
GASTEIGER

@<TRIPOS>ATOM
      1  C1        -4.2840  -28.6440    3.8480 C.2   169  Q19169      0.2349
      2  N2        -5.1960  -27.6420    3.7310 N.2   169  Q19169     -0.3072
      3  C3        -6.3870  -27.7080    4.3670 C.1   169  Q19169      0.2427
      4  N4        -6.7710  -28.7510    5.1590 N.2   169  Q19169     -0.3257
      5  C5        -5.9510  -29.8240    5.3220 C.2   169  Q19169      0.1483
      6  C6        -4.6330  -29.8250    4.6730 C.2   169  Q19169      0.0745
      7  C7        -6.3330  -30.9130    6.0950 C.2   169  Q19169      0.0292
      8  C8        -5.4550  -31.9950    6.2700 C.2   169  Q19169     -0.0159
      9  C9        -4.1400  -32.0000    5.6050 C.3   169  Q19169      0.0446
     10  C10       -3.7540  -30.8940    4.8310 C.2   169  Q19169     -0.0155
     11  N11       -3.0960  -28.5520    3.2390 N.pl3 169  Q19169     -0.0920
     12  N12       -7.2380  -26.6700    4.2050 N.pl3 169  Q19169     -0.0232
     13  C13       -3.1940  -33.1790    5.8000 C.3   169  Q19169      0.0094
     14  C14       -5.9290  -33.1690    7.0640 C.ar  169  Q19169     -0.0035
     15  C15       -5.8340  -33.2880    8.4490 C.ar  169  Q19169     -0.0003
     16  C16       -6.3310  -34.4390    9.0770 C.ar  169  Q19169      0.0001
     17  C17       -6.9400  -35.4480    8.3400 C.ar  169  Q19169      0.0028
     18  C18       -7.0400  -35.3270    6.9740 C.ar  169  Q19169      0.0347
     19  C19       -6.5350  -34.1920    6.3380 C.ar  169  Q19169      0.0025
     20  C20       -7.7110  -36.4160    6.1960 C.2   169  Q19169      0.1735
     21  O21       -8.1950  -36.1460    5.1030 O.2   169  Q19169     -0.2913
     22  C22       -7.8000  -37.7820    6.8170 C.3   169  Q19169      0.0773
@<TRIPOS>BOND
     1    11     1    1
     2     2     1    2
     3     2     3    2
     4     1     6    1
     5    12     3    1
     6     3     4    2
     7     6    10    2
     8     6     5    1
     9    10     9    1
    10    21    20    2
    11     4     5    2
    12     5     7    1
    13     9    13    1
    14     9     8    1
    15     7     8    2
    16    20    22    1
    17    20    18    1
    18     8    14    1
    19    19    18   ar
    20    19    14   ar
    21    18    17   ar
    22    14    15   ar
    23    17    16   ar
    24    15    16   ar
