@<TRIPOS>MOLECULE
3srq_NAP_X_1.pdb
 48 52 0 0 0
SMALL
GASTEIGER

@<TRIPOS>ATOM
      1  PA         6.5710  -31.6190    6.3820 P.3   168  NAP168      0.2189
      2  O1A        6.7280  -30.3530    5.6300 O.2   168  NAP168     -0.5170
      3  O2A        5.2700  -32.2920    6.2660 O.3   168  NAP168     -0.4371
      4  O5B        7.7190  -32.6670    6.0370 O.3   168  NAP168     -0.3112
      5  C5B        9.0670  -32.2470    6.1640 C.3   168  NAP168      0.1813
      6  C4B        9.8520  -33.3020    5.4200 C.3   168  NAP168      0.1820
      7  O4B        9.6060  -33.1290    4.0340 O.3   168  NAP168     -0.3136
      8  C3B       11.3580  -33.1650    5.5780 C.3   168  NAP168      0.2157
      9  O3B       11.8380  -33.6620    6.8260 O.3   168  NAP168     -0.2175
     10  C2B       11.8020  -33.9280    4.3400 C.3   168  NAP168      0.2314
     11  O2B       11.5840  -35.3180    4.5170 O.3   168  NAP168     -0.2630
     12  C1B       10.7620  -33.5090    3.3140 C.3   168  NAP168      0.3158
     13  N9A       11.2350  -32.3420    2.5560 N.pl3 168  NAP168     -0.1439
     14  C8A       10.8230  -31.0280    2.6220 C.3   168  NAP168      0.3377
     15  N7A       11.5370  -30.3060    1.7110 N.2   168  NAP168     -0.2095
     16  C5A       12.3730  -31.1620    1.0650 C.2   168  NAP168      0.2526
     17  C6A       13.3120  -30.9910    0.0530 C.2   168  NAP168      0.4393
     18  N6A       13.5430  -29.7920   -0.4910 N.pl3 168  NAP168      0.2180
     19  N1A       14.0240  -32.1000   -0.3710 N.2   168  NAP168      0.0021
     20  C2A       13.7790  -33.3480    0.1600 C.3   168  NAP168      0.5254
     21  N3A       12.8570  -33.5300    1.1690 N.2   168  NAP168     -0.0055
     22  C4A       12.1790  -32.4360    1.5950 C.2   168  NAP168      0.3518
     23  O3         6.9450  -31.3490    7.9370 O.3   168  NAP168     -0.2703
     24  PN         6.7720  -30.1000    8.9360 P.3   168  NAP168      0.2189
     25  O1N        7.4080  -28.9060    8.3380 O.2   168  NAP168     -0.5170
     26  O2N        7.2350  -30.5980   10.2680 O.3   168  NAP168     -0.4371
     27  O5D        5.1890  -29.8900    8.9670 O.3   168  NAP168     -0.3112
     28  C5D        4.3820  -30.8940    9.5660 C.3   168  NAP168      0.1813
     29  C4D        3.2490  -30.2270   10.3500 C.3   168  NAP168      0.1799
     30  O4D        2.3650  -29.5460    9.4390 O.3   168  NAP168     -0.3327
     31  C3D        2.3740  -31.2480   11.0800 C.3   168  NAP168      0.2158
     32  O3D        1.9660  -30.7580   12.3620 O.3   168  NAP168     -0.2175
     33  C2D        1.1430  -31.3430   10.2060 C.3   168  NAP168      0.2309
     34  O2D        0.0070  -31.7360   10.9550 O.3   168  NAP168     -0.2158
     35  C1D        1.0370  -29.8960    9.7530 C.3   168  NAP168      0.2263
     36  N1N        0.2660  -29.6730    8.5160 N.pl3 168  NAP168     -0.2787
     37  C2N       -0.7010  -28.7230    8.5610 C.3   168  NAP168      0.1244
     38  C3N       -1.4360  -28.4380    7.4280 C.2   168  NAP168      0.0544
     39  C7N       -2.5310  -27.4350    7.5670 C.2   168  NAP168      0.2818
     40  O7N       -3.0200  -26.9160    6.3970 O.2   168  NAP168     -0.2670
     41  N7N       -3.0440  -27.0050    8.7340 N.am  168  NAP168     -0.0839
     42  C4N       -1.1740  -29.0970    6.1960 C.2   168  NAP168      0.0033
     43  C5N       -0.1510  -30.0740    6.1780 C.2   168  NAP168      0.0157
     44  C6N        0.5700  -30.3540    7.3500 C.2   168  NAP168      0.0633
     45  P2B       12.7560  -36.3380    4.9750 P.3   168  NAP168      0.5328
     46  O1X       12.1430  -37.7120    4.9290 O.3   168  NAP168     -0.1145
     47  O2X       13.9140  -36.1170    4.0120 O.2   168  NAP168     -0.2224
     48  O3X       13.2140  -35.9390    6.3660 O.3   168  NAP168     -0.1145
@<TRIPOS>BOND
     1    18    17    1
     2    19    17    2
     3    19    20    1
     4    17    16    1
     5    20    21    1
     6    16    22    1
     7    16    15    2
     8    21    22    2
     9    22    13    1
    10    15    14    1
    11    13    14    1
    12    13    12    1
    13    12     7    1
    14    12    10    1
    15    47    45    2
    16     7     6    1
    17    10    11    1
    18    10     8    1
    19    11    45    1
    20    46    45    1
    21    45    48    1
    22     6     8    1
    23     6     5    1
    24     8     9    1
    25     2     1    2
    26     4     5    1
    27     4     1    1
    28    43    42    1
    29    43    44    2
    30    42    38    2
    31     3     1    1
    32     1    23    1
    33    40    39    2
    34    44    36    1
    35    38    39    1
    36    38    37    1
    37    39    41   am
    38    23    24    1
    39    25    24    2
    40    36    37    1
    41    36    35    1
    42    24    27    1
    43    24    26    1
    44    27    28    1
    45    30    35    1
    46    30    29    1
    47    28    29    1
    48    35    33    1
    49    33    34    1
    50    33    31    1
    51    29    31    1
    52    31    32    1
