@<TRIPOS>MOLECULE
3srr_Q20_X_1.pdb
 24 26 0 0 0
SMALL
GASTEIGER

@<TRIPOS>ATOM
      1  C1         4.1600  -28.6940   -3.8970 C.2   168  Q20168      0.2349
      2  N2         5.1130  -27.7160   -3.8630 N.2   168  Q20168     -0.3072
      3  C3         6.2670  -27.8090   -4.5590 C.1   168  Q20168      0.2424
      4  N4         6.5580  -28.8890   -5.3320 N.2   168  Q20168     -0.3298
      5  C5         5.7130  -29.9410   -5.4370 C.2   168  Q20168      0.1308
      6  C6         4.4340  -29.9040   -4.7140 C.2   168  Q20168      0.0743
      7  C7         3.5090  -30.9500   -4.7650 C.2   168  Q20168      0.0017
      8  C8         3.8340  -32.0640   -5.5430 C.2   168  Q20168     -0.0251
      9  C9         5.1210  -32.1000   -6.2850 C.2   168  Q20168     -0.0161
     10  C10        6.0500  -31.0550   -6.2120 C.3   168  Q20168      0.0862
     11  N11        3.0000  -28.5980   -3.2330 N.pl3 168  Q20168     -0.0920
     12  N12        7.1870  -26.8030   -4.5110 N.pl3 168  Q20168     -0.0232
     13  C13        2.8230  -33.1900   -5.5960 C.3   168  Q20168      0.0307
     14  C14        5.4170  -33.3300   -7.0500 C.ar  168  Q20168      0.0302
     15  C15        4.5670  -33.7790   -8.1770 C.ar  168  Q20168      0.1382
     16  C16        4.9080  -34.9930   -8.7900 C.ar  168  Q20168      0.0370
     17  C17        6.0090  -35.7200   -8.3360 C.ar  168  Q20168      0.0064
     18  C18        6.7990  -35.3030   -7.2630 C.ar  168  Q20168      0.0424
     19  C19        6.4850  -34.1150   -6.6050 C.ar  168  Q20168      0.0060
     20  O20        3.5010  -33.0160   -8.5610 O.3   168  Q20168     -0.4755
     21  C21        2.5180  -33.5930   -9.4470 C.3   168  Q20168      0.2055
     22  C22        1.1390  -33.1950   -9.0070 C.3   168  Q20168      0.0512
     23  C23        7.9530  -36.1200   -6.8150 C.2   168  Q20168      0.2342
     24  O24        8.5510  -35.8920   -5.7650 O.2   168  Q20168     -0.2831
@<TRIPOS>BOND
     1    21    22    1
     2    21    20    1
     3    16    17   ar
     4    16    15   ar
     5    20    15    1
     6    17    18   ar
     7    15    14   ar
     8    18    23    1
     9    18    19   ar
    10    14    19   ar
    11    14     9    1
    12    23    24    2
    13     9    10    1
    14     9     8    2
    15    10     5    1
    16    13     8    1
    17     8     7    1
    18     5     4    2
    19     5     6    1
    20     4     3    2
    21     7     6    2
    22     6     1    1
    23     3    12    1
    24     3     2    2
    25     1     2    2
    26     1    11    1
