@<TRIPOS>MOLECULE
3srr_NAP_X_1.pdb
 48 52 0 0 0
SMALL
GASTEIGER

@<TRIPOS>ATOM
      1  PA        -6.5340  -31.6750   -6.4150 P.3   169  NAP169      0.2189
      2  O1A       -6.7250  -30.4100   -5.6680 O.3   169  NAP169     -0.4371
      3  O2A       -5.2280  -32.3450   -6.2850 O.2   169  NAP169     -0.5170
      4  O5B       -7.6710  -32.7490   -6.0730 O.3   169  NAP169     -0.3112
      5  C5B       -9.0230  -32.4160   -6.2900 C.3   169  NAP169      0.1813
      6  C4B       -9.8030  -33.4350   -5.4960 C.3   169  NAP169      0.1820
      7  O4B       -9.5360  -33.2230   -4.1260 O.3   169  NAP169     -0.3136
      8  C3B      -11.3140  -33.3090   -5.6270 C.3   169  NAP169      0.2157
      9  O3B      -11.8400  -33.8220   -6.8310 O.3   169  NAP169     -0.2175
     10  C2B      -11.7410  -34.0670   -4.3860 C.3   169  NAP169      0.2314
     11  O2B      -11.5290  -35.4520   -4.5490 O.3   169  NAP169     -0.2630
     12  C1B      -10.6870  -33.5850   -3.3850 C.3   169  NAP169      0.3158
     13  N9A      -11.1820  -32.4710   -2.5680 N.pl3 169  NAP169     -0.1439
     14  C8A      -10.7860  -31.1550   -2.5860 C.3   169  NAP169      0.3377
     15  N7A      -11.4810  -30.4630   -1.6420 N.2   169  NAP169     -0.2095
     16  C5A      -12.3310  -31.3310   -1.0360 C.2   169  NAP169      0.2526
     17  C6A      -13.2760  -31.1800   -0.0190 C.2   169  NAP169      0.4393
     18  N6A      -13.4830  -29.9920    0.5440 N.pl3 169  NAP169      0.2180
     19  N1A      -14.0080  -32.2860    0.3990 N.2   169  NAP169      0.0021
     20  C2A      -13.7920  -33.5130   -0.1670 C.3   169  NAP169      0.5254
     21  N3A      -12.8600  -33.6610   -1.1770 N.2   169  NAP169     -0.0055
     22  C4A      -12.1450  -32.5890   -1.6020 C.2   169  NAP169      0.3518
     23  O3        -6.9440  -31.4370   -7.9350 O.3   169  NAP169     -0.2703
     24  PN        -6.7850  -30.2400   -8.9720 P.3   169  NAP169      0.2189
     25  O1N       -7.4540  -29.0590   -8.3690 O.3   169  NAP169     -0.4371
     26  O2N       -7.2400  -30.7150  -10.2970 O.2   169  NAP169     -0.5170
     27  O5D       -5.1950  -29.9640   -9.0340 O.3   169  NAP169     -0.3112
     28  C5D       -4.3540  -30.9070   -9.6820 C.3   169  NAP169      0.1813
     29  C4D       -3.2630  -30.1750  -10.4590 C.3   169  NAP169      0.1799
     30  O4D       -2.4090  -29.5250   -9.5090 O.3   169  NAP169     -0.3327
     31  C3D       -2.4120  -31.1380  -11.2900 C.3   169  NAP169      0.2158
     32  O3D       -2.0550  -30.5850  -12.5520 O.3   169  NAP169     -0.2175
     33  C2D       -1.1690  -31.3000  -10.4560 C.3   169  NAP169      0.2309
     34  O2D       -0.0300  -31.6170  -11.2430 O.3   169  NAP169     -0.2158
     35  C1D       -1.0850  -29.9010   -9.8570 C.3   169  NAP169      0.2263
     36  N1N       -0.3090  -29.7300   -8.6380 N.pl3 169  NAP169     -0.2787
     37  C2N        0.6400  -28.7740   -8.6800 C.3   169  NAP169      0.1244
     38  C3N        1.4070  -28.5160   -7.5530 C.2   169  NAP169      0.0544
     39  C7N        2.4760  -27.4850   -7.6520 C.2   169  NAP169      0.2818
     40  O7N        2.8890  -26.9140   -6.4860 O.2   169  NAP169     -0.2670
     41  N7N        3.0100  -27.0560   -8.8050 N.am  169  NAP169     -0.0839
     42  C4N        1.1240  -29.2210   -6.3650 C.2   169  NAP169      0.0033
     43  C5N        0.1270  -30.2180   -6.3430 C.2   169  NAP169      0.0157
     44  C6N       -0.6140  -30.4540   -7.4970 C.2   169  NAP169      0.0633
     45  P2B      -12.7170  -36.4610   -4.9970 P.3   169  NAP169      0.5328
     46  O1X      -12.1380  -37.8680   -4.9140 O.3   169  NAP169     -0.1145
     47  O2X      -13.8370  -36.2220   -3.9910 O.3   169  NAP169     -0.1145
     48  O3X      -13.1690  -36.1100   -6.3840 O.2   169  NAP169     -0.2224
@<TRIPOS>BOND
     1    32    31    1
     2    31    29    1
     3    31    33    1
     4    34    33    1
     5    29    28    1
     6    29    30    1
     7    33    35    1
     8    26    24    2
     9    35    30    1
    10    35    36    1
    11    28    27    1
    12    27    24    1
    13    24    25    1
    14    24    23    1
    15    41    39   am
    16    37    36    1
    17    37    38    1
    18    36    44    1
    19    23     1    1
    20    39    38    1
    21    39    40    2
    22    38    42    2
    23    44    43    2
    24     9     8    1
    25     1     3    2
    26     1     4    1
    27     1     2    1
    28    48    45    2
    29    42    43    1
    30     5     4    1
    31     5     6    1
    32     8     6    1
    33     8    10    1
    34     6     7    1
    35    45    46    1
    36    45    11    1
    37    45    47    1
    38    11    10    1
    39    10    12    1
    40     7    12    1
    41    12    13    1
    42    14    13    1
    43    14    15    1
    44    13    22    1
    45    15    16    2
    46    22    21    2
    47    22    16    1
    48    21    20    1
    49    16    17    1
    50    20    19    1
    51    17    19    2
    52    17    18    1
