@<TRIPOS>MOLECULE
3srs_M23_X_1.pdb
 23 25 0 0 0
SMALL
GASTEIGER

@<TRIPOS>ATOM
      1 BR         -7.8990   36.4540   -6.3690 Br    168  M23168     -0.0490
      2  C1        -4.1400   28.6940   -3.8980 C.2   168  M23168      0.2349
      3  N2        -5.0850   27.7200   -3.8700 N.2   168  M23168     -0.3072
      4  C3        -6.2440   27.8070   -4.5700 C.1   168  M23168      0.2424
      5  N4        -6.5390   28.8720   -5.3660 N.2   168  M23168     -0.3298
      6  C5        -5.6780   29.9190   -5.4720 C.2   168  M23168      0.1308
      7  C6        -4.4100   29.8900   -4.7340 C.2   168  M23168      0.0743
      8  C7        -3.4830   30.9310   -4.7860 C.2   168  M23168      0.0017
      9  C8        -3.7800   32.0350   -5.5720 C.2   168  M23168     -0.0251
     10  C9        -5.0570   32.0750   -6.3260 C.2   168  M23168     -0.0161
     11  C10       -5.9910   31.0340   -6.2620 C.3   168  M23168      0.0862
     12  N11       -2.9800   28.6040   -3.2310 N.pl3 168  M23168     -0.0920
     13  N12       -7.1510   26.8040   -4.5000 N.pl3 168  M23168     -0.0232
     14  C13       -2.7510   33.1460   -5.6110 C.3   168  M23168      0.0307
     15  C14       -5.2950   33.3280   -7.0840 C.ar  168  M23168      0.0306
     16  C15       -4.4760   33.7510   -8.2430 C.ar  168  M23168      0.1382
     17  C16       -4.7620   34.9980   -8.8220 C.ar  168  M23168      0.0374
     18  C17       -5.7760   35.8030   -8.2780 C.ar  168  M23168      0.0098
     19  C18       -6.5230   35.3980   -7.1660 C.ar  168  M23168      0.0348
     20  C19       -6.2590   34.1820   -6.5590 C.ar  168  M23168      0.0094
     21  O21       -3.4970   32.8970   -8.6730 O.3   168  M23168     -0.4755
     22  C22       -2.5020   33.3240   -9.6190 C.3   168  M23168      0.2055
     23  C23       -1.1480   33.4150   -8.9620 C.3   168  M23168      0.0512
@<TRIPOS>BOND
     1    22    23    1
     2    22    21    1
     3    17    18   ar
     4    17    16   ar
     5    21    16    1
     6    18    19   ar
     7    16    15   ar
     8    19    20   ar
     9    19     1    1
    10    15    20   ar
    11    15    10    1
    12    10    11    1
    13    10     9    2
    14    11     6    1
    15    14     9    1
    16     9     8    1
    17     6     5    2
    18     6     7    1
    19     5     4    2
    20     8     7    2
    21     7     2    1
    22     4    13    1
    23     4     3    2
    24     2     3    2
    25     2    12    1
