@<TRIPOS>MOLECULE
3srs_NAP_X_1.pdb
 48 52 0 0 0
SMALL
GASTEIGER

@<TRIPOS>ATOM
      1  PA         6.5890   31.6600   -6.4550 P.3   169  NAP169      0.2189
      2  O1A        6.7730   30.4130   -5.6890 O.3   169  NAP169     -0.4371
      3  O2A        5.2790   32.3310   -6.3230 O.2   169  NAP169     -0.5170
      4  O5B        7.7210   32.7370   -6.0830 O.3   169  NAP169     -0.3112
      5  C5B        9.0790   32.3890   -6.2730 C.3   169  NAP169      0.1813
      6  C4B        9.8810   33.4170   -5.5080 C.3   169  NAP169      0.1820
      7  O4B        9.6250   33.2060   -4.1310 O.3   169  NAP169     -0.3136
      8  C3B       11.3900   33.2810   -5.6500 C.3   169  NAP169      0.2157
      9  O3B       11.9120   33.7940   -6.8620 O.3   169  NAP169     -0.2175
     10  C2B       11.8240   34.0260   -4.3990 C.3   169  NAP169      0.2314
     11  O2B       11.5970   35.4050   -4.5710 O.3   169  NAP169     -0.2630
     12  C1B       10.7760   33.5450   -3.3920 C.3   169  NAP169      0.3158
     13  N9A       11.2540   32.3960   -2.6100 N.pl3 169  NAP169     -0.1439
     14  C8A       10.8220   31.0850   -2.6640 C.3   169  NAP169      0.3377
     15  N7A       11.5150   30.3630   -1.7380 N.2   169  NAP169     -0.2095
     16  C5A       12.3840   31.2020   -1.1110 C.2   169  NAP169      0.2526
     17  C6A       13.3290   31.0250   -0.0940 C.2   169  NAP169      0.4393
     18  N6A       13.5410   29.8310    0.4500 N.pl3 169  NAP169      0.2180
     19  N1A       14.0700   32.1190    0.3390 N.2   169  NAP169      0.0021
     20  C2A       13.8670   33.3670   -0.1940 C.3   169  NAP169      0.5254
     21  N3A       12.9350   33.5440   -1.1990 N.2   169  NAP169     -0.0055
     22  C4A       12.2110   32.4790   -1.6420 C.2   169  NAP169      0.3518
     23  O3         6.9840   31.4130   -7.9920 O.3   169  NAP169     -0.2703
     24  PN         6.8200   30.1860   -8.9990 P.3   169  NAP169      0.2189
     25  O1N        7.4840   29.0110   -8.3830 O.3   169  NAP169     -0.4371
     26  O2N        7.2620   30.6450  -10.3400 O.2   169  NAP169     -0.5170
     27  O5D        5.2240   29.9270   -9.0200 O.3   169  NAP169     -0.3112
     28  C5D        4.3770   30.8830   -9.6300 C.3   169  NAP169      0.1813
     29  C4D        3.3000   30.1720  -10.4400 C.3   169  NAP169      0.1799
     30  O4D        2.4290   29.5280   -9.5100 O.3   169  NAP169     -0.3327
     31  C3D        2.4510   31.1680  -11.2290 C.3   169  NAP169      0.2158
     32  O3D        2.0920   30.6490  -12.5010 O.3   169  NAP169     -0.2175
     33  C2D        1.1880   31.3010  -10.4110 C.3   169  NAP169      0.2309
     34  O2D        0.0510   31.6120  -11.2090 O.3   169  NAP169     -0.2158
     35  C1D        1.1000   29.8900   -9.8330 C.3   169  NAP169      0.2263
     36  N1N        0.3160   29.7260   -8.6060 N.pl3 169  NAP169     -0.2787
     37  C2N       -0.6620   28.7870   -8.6540 C.3   169  NAP169      0.1244
     38  C3N       -1.4370   28.5380   -7.5440 C.2   169  NAP169      0.0544
     39  C7N       -2.4910   27.4860   -7.6310 C.2   169  NAP169      0.2818
     40  O7N       -2.9130   26.9560   -6.4500 O.2   169  NAP169     -0.2670
     41  N7N       -2.9970   27.0310   -8.7870 N.am  169  NAP169     -0.0839
     42  C4N       -1.1680   29.2210   -6.3450 C.2   169  NAP169      0.0033
     43  C5N       -0.1470   30.1890   -6.3040 C.2   169  NAP169      0.0157
     44  C6N        0.6090   30.4300   -7.4490 C.2   169  NAP169      0.0633
     45  P2B       12.7840   36.3980   -5.0140 P.3   169  NAP169      0.5328
     46  O1X       12.1990   37.8020   -4.9520 O.3   169  NAP169     -0.1145
     47  O2X       13.9160   36.1950   -4.0180 O.3   169  NAP169     -0.1145
     48  O3X       13.2280   36.0630   -6.4200 O.2   169  NAP169     -0.2224
@<TRIPOS>BOND
     1    32    31    1
     2    31    29    1
     3    31    33    1
     4    34    33    1
     5    29    28    1
     6    29    30    1
     7    33    35    1
     8    26    24    2
     9    35    30    1
    10    35    36    1
    11    28    27    1
    12    27    24    1
    13    24    25    1
    14    24    23    1
    15    41    39   am
    16    37    36    1
    17    37    38    1
    18    36    44    1
    19    23     1    1
    20    39    38    1
    21    39    40    2
    22    38    42    2
    23    44    43    2
    24     9     8    1
    25     1     3    2
    26     1     4    1
    27     1     2    1
    28    48    45    2
    29    42    43    1
    30     5     4    1
    31     5     6    1
    32     8     6    1
    33     8    10    1
    34     6     7    1
    35    45    46    1
    36    45    11    1
    37    45    47    1
    38    11    10    1
    39    10    12    1
    40     7    12    1
    41    12    13    1
    42    14    13    1
    43    14    15    1
    44    13    22    1
    45    15    16    2
    46    22    21    2
    47    22    16    1
    48    21    20    1
    49    16    17    1
    50    20    19    1
    51    17    19    2
    52    17    18    1
