@<TRIPOS>MOLECULE
3sru_Q26_X_1.pdb
 32 35 0 0 0
SMALL
GASTEIGER

@<TRIPOS>ATOM
      1  C1        -3.9820   28.6600   -3.8730 C.2   169  Q26169      0.2349
      2  N2        -4.9520   27.7100   -3.8020 N.2   169  Q26169     -0.3072
      3  C3        -6.1520   27.8340   -4.4290 C.1   169  Q26169      0.2427
      4  N4        -6.4720   28.9270   -5.1770 N.2   169  Q26169     -0.3257
      5  C5        -5.6030   29.9640   -5.2890 C.2   169  Q26169      0.1483
      6  C6        -4.2850   29.8950   -4.6490 C.2   169  Q26169      0.0745
      7  C7        -5.9470   31.0990   -6.0220 C.2   169  Q26169      0.0293
      8  C8        -5.0060   32.1240   -6.1380 C.2   169  Q26169     -0.0123
      9  C9        -3.7470   32.0740   -5.5140 C.3   169  Q26169      0.0527
     10  C10       -3.3650   30.9420   -4.7700 C.2   169  Q26169     -0.0148
     11  N11       -2.7980   28.4860   -3.2480 N.pl3 169  Q26169     -0.0920
     12  N12       -7.0850   26.8520   -4.3450 N.pl3 169  Q26169     -0.0232
     13  C13       -5.3190   33.4060   -6.8070 C.ar  169  Q26169      0.0304
     14  C14       -6.3660   34.1510   -6.2390 C.ar  169  Q26169      0.0027
     15  C15       -6.7180   35.4040   -6.7550 C.ar  169  Q26169      0.0002
     16  C16       -5.9580   35.9470   -7.8020 C.ar  169  Q26169      0.0031
     17  C17       -4.8720   35.2650   -8.3700 C.ar  169  Q26169      0.0369
     18  C18       -4.5160   33.9970   -7.8760 C.ar  169  Q26169      0.1382
     19  O19       -3.4740   33.2570   -8.3480 O.3   169  Q26169     -0.4755
     20  C20       -2.4880   33.9140   -9.1640 C.3   169  Q26169      0.2055
     21  C21       -1.1880   33.1930   -8.9110 C.3   169  Q26169      0.0512
     22  C22       -7.8510   36.1860   -6.1520 C.ar  169  Q26169      0.0013
     23  C23       -8.5870   37.1190   -6.8990 C.ar  169  Q26169      0.0001
     24  C24       -9.6250   37.8500   -6.2900 C.ar  169  Q26169      0.0014
     25  C25       -9.9100   37.6690   -4.9330 C.ar  169  Q26169      0.0180
     26  C26       -9.1700   36.7550   -4.1730 C.ar  169  Q26169      0.0906
     27  C27       -8.1390   36.0250   -4.7860 C.ar  169  Q26169      0.0180
     28  N28       -9.4430   36.5750   -2.8460 N.pl3 169  Q26169     -0.1006
     29  S29      -10.2230   35.2610   -2.3420 S.O2  169  Q26169      0.0750
     30  O30      -10.0820   35.1100   -0.9180 O.2   169  Q26169     -0.1528
     31  O31       -9.6440   34.0920   -3.0080 O.2   169  Q26169     -0.1528
     32  C32      -11.8200   35.3920   -2.7900 C.3   169  Q26169      0.2016
@<TRIPOS>BOND
     1    20    21    1
     2    20    19    1
     3    17    18   ar
     4    17    16   ar
     5    19    18    1
     6    18    13   ar
     7    16    15   ar
     8    23    24   ar
     9    23    22   ar
    10    13    14   ar
    11    13     8    1
    12    15    14   ar
    13    15    22    1
    14    24    25   ar
    15    22    27   ar
    16     8     7    2
    17     8     9    1
    18     7     5    1
    19     9    10    1
    20     5     4    2
    21     5     6    1
    22     4     3    2
    23    25    26   ar
    24    27    26   ar
    25    10     6    2
    26     6     1    1
    27     3    12    1
    28     3     2    2
    29    26    28    1
    30     1     2    2
    31     1    11    1
    32    31    29    2
    33    28    29    1
    34    32    29    1
    35    29    30    2
