@<TRIPOS>MOLECULE
3sru_NAP_X_1.pdb
 48 52 0 0 0
SMALL
GASTEIGER

@<TRIPOS>ATOM
      1  PA         6.6700   31.4850   -6.3980 P.3   168  NAP168      0.2189
      2  O1A        6.8450   30.2300   -5.6340 O.3   168  NAP168     -0.4371
      3  O2A        5.3670   32.1680   -6.2630 O.2   168  NAP168     -0.5170
      4  O5B        7.7860   32.5680   -6.0200 O.3   168  NAP168     -0.3112
      5  C5B        9.1450   32.2480   -6.2540 C.3   168  NAP168      0.1813
      6  C4B        9.9490   33.2470   -5.4550 C.3   168  NAP168      0.1820
      7  O4B        9.6880   33.0420   -4.0770 O.3   168  NAP168     -0.3136
      8  C3B       11.4590   33.1030   -5.5990 C.3   168  NAP168      0.2157
      9  O3B       11.9810   33.6320   -6.8000 O.3   168  NAP168     -0.2175
     10  C2B       11.8820   33.8630   -4.3560 C.3   168  NAP168      0.2314
     11  O2B       11.6580   35.2420   -4.5420 O.3   168  NAP168     -0.2630
     12  C1B       10.8360   33.3730   -3.3420 C.3   168  NAP168      0.3158
     13  N9A       11.3120   32.2200   -2.5600 N.pl3 168  NAP168     -0.1439
     14  C8A       10.9030   30.9060   -2.6140 C.3   168  NAP168      0.3377
     15  N7A       11.6080   30.1910   -1.7040 N.2   168  NAP168     -0.2095
     16  C5A       12.4640   31.0380   -1.0590 C.2   168  NAP168      0.2526
     17  C6A       13.4110   30.8680   -0.0370 C.2   168  NAP168      0.4393
     18  N6A       13.6440   29.6780    0.5170 N.pl3 168  NAP168      0.2180
     19  N1A       14.1360   31.9750    0.3990 N.2   168  NAP168      0.0021
     20  C2A       13.9090   33.2120   -0.1450 C.3   168  NAP168      0.5254
     21  N3A       12.9810   33.3810   -1.1540 N.2   168  NAP168     -0.0055
     22  C4A       12.2720   32.3100   -1.5940 C.2   168  NAP168      0.3518
     23  O3         7.0790   31.2640   -7.9260 O.3   168  NAP168     -0.2703
     24  PN         6.8740   30.0580   -8.9500 P.3   168  NAP168      0.2189
     25  O1N        7.5150   28.8590   -8.3640 O.3   168  NAP168     -0.4371
     26  O2N        7.3460   30.5130  -10.2980 O.2   168  NAP168     -0.5170
     27  O5D        5.2850   29.7940   -9.0160 O.3   168  NAP168     -0.3112
     28  C5D        4.4460   30.7670   -9.6230 C.3   168  NAP168      0.1813
     29  C4D        3.3390   30.0760  -10.4150 C.3   168  NAP168      0.1799
     30  O4D        2.4670   29.4280   -9.4910 O.3   168  NAP168     -0.3327
     31  C3D        2.4960   31.0750  -11.2040 C.3   168  NAP168      0.2158
     32  O3D        2.1370   30.5720  -12.4870 O.3   168  NAP168     -0.2175
     33  C2D        1.2310   31.1870  -10.4000 C.3   168  NAP168      0.2309
     34  O2D        0.1090   31.5020  -11.2160 O.3   168  NAP168     -0.2158
     35  C1D        1.1420   29.7840   -9.8270 C.3   168  NAP168      0.2263
     36  N1N        0.4120   29.6230   -8.5850 N.pl3 168  NAP168     -0.2787
     37  C2N       -0.5750   28.7010   -8.6380 C.3   168  NAP168      0.1244
     38  C3N       -1.3170   28.4300   -7.5090 C.2   168  NAP168      0.0544
     39  C7N       -2.3970   27.4140   -7.6040 C.2   168  NAP168      0.2818
     40  O7N       -2.8090   26.9020   -6.4110 O.2   168  NAP168     -0.2670
     41  N7N       -2.9320   26.9910   -8.7690 N.am  168  NAP168     -0.0839
     42  C4N       -1.0000   29.0840   -6.3040 C.2   168  NAP168      0.0033
     43  C5N        0.0390   30.0270   -6.2720 C.2   168  NAP168      0.0157
     44  C6N        0.7490   30.2980   -7.4280 C.2   168  NAP168      0.0633
     45  P2B       12.8170   36.2630   -5.0110 P.3   168  NAP168      0.5328
     46  O1X       12.2420   37.6620   -4.9320 O.3   168  NAP168     -0.1145
     47  O2X       13.9180   36.0960   -3.9740 O.3   168  NAP168     -0.1145
     48  O3X       13.3080   35.8970   -6.4110 O.2   168  NAP168     -0.2224
@<TRIPOS>BOND
     1    32    31    1
     2    34    33    1
     3    31    29    1
     4    31    33    1
     5    29    28    1
     6    29    30    1
     7    33    35    1
     8    26    24    2
     9    35    30    1
    10    35    36    1
    11    28    27    1
    12    27    24    1
    13    24    25    1
    14    24    23    1
    15    41    39   am
    16    37    36    1
    17    37    38    1
    18    36    44    1
    19    23     1    1
    20    39    38    1
    21    39    40    2
    22    38    42    2
    23    44    43    2
    24     9     8    1
    25    48    45    2
    26     1     3    2
    27     1     4    1
    28     1     2    1
    29    42    43    1
    30     5     4    1
    31     5     6    1
    32     8     6    1
    33     8    10    1
    34     6     7    1
    35    45    46    1
    36    45    11    1
    37    45    47    1
    38    11    10    1
    39    10    12    1
    40     7    12    1
    41    12    13    1
    42    14    13    1
    43    14    15    1
    44    13    22    1
    45    15    16    2
    46    22    21    2
    47    22    16    1
    48    21    20    1
    49    16    17    1
    50    20    19    1
    51    17    19    2
    52    17    18    1
