@<TRIPOS>MOLECULE
3srv_S19_A_1.pdb
 25 27 0 0 0
SMALL
GASTEIGER

@<TRIPOS>ATOM
      1  C1         4.8430    0.2070  -30.6880 C.3     1  S191        0.0310
      2  C2         3.3970    0.1540  -30.2790 C.ar    1  S191       -0.0218
      3  C3         2.5310    1.0880  -30.7940 C.ar    1  S191       -0.0029
      4  C4         1.2010    1.0520  -30.4280 C.ar    1  S191        0.0163
      5  C5         0.6930    0.1020  -29.5660 C.ar    1  S191        0.0731
      6  N6        -0.6960    0.1850  -29.2900 N.pl3   1  S191       -0.1826
      7  C7        -1.4430   -0.5240  -28.3420 C.2     1  S191        0.2221
      8  N8        -0.9250   -1.5090  -27.5990 N.2     1  S191       -0.3190
      9  C9        -1.6980   -2.1410  -26.7120 C.1     1  S191        0.1665
     10  N10       -1.0960   -3.1310  -26.0010 N.pl3   1  S191       -0.1622
     11  C11        0.3150   -3.4290  -25.9960 C.3     1  S191        0.1271
     12  C12        0.5380   -4.8960  -25.6640 C.3     1  S191        0.0561
     13  C13        2.0160   -5.1280  -25.7400 C.3     1  S191        0.1441
     14  O14        2.6610   -4.3960  -24.7270 O.3     1  S191       -0.3521
     15  C15        2.5690   -2.9760  -24.9730 C.3     1  S191        0.1628
     16  C16        1.1170   -2.5310  -25.0570 C.3     1  S191        0.1420
     17  N17        0.5730   -2.5640  -23.7160 N.3     1  S191       -0.1284
     18  N18       -2.9850   -1.8560  -26.5120 N.2     1  S191       -0.1684
     19  C19       -3.5100   -0.8760  -27.2630 C.2     1  S191        0.1203
     20  C20       -2.8130   -0.1580  -28.2110 C.2     1  S191        0.1231
     21  C21       -3.4040    0.9270  -29.0160 C.2     1  S191        0.2896
     22  N22       -4.7600    1.0480  -28.9520 N.am    1  S191       -0.0835
     23  O23       -2.6970    1.6670  -29.6880 O.2     1  S191       -0.2665
     24  C24        1.5700   -0.8380  -29.0600 C.ar    1  S191        0.0163
     25  C25        2.9170   -0.8040  -29.4130 C.ar    1  S191       -0.0029
@<TRIPOS>BOND
     1     3     4   ar
     2     3     2   ar
     3     1     2    1
     4     4     5   ar
     5     2    25   ar
     6    23    21    2
     7     5     6    1
     8     5    24   ar
     9    25    24   ar
    10     6     7    1
    11    21    22   am
    12    21    20    1
    13     7    20    1
    14     7     8    2
    15    20    19    2
    16     8     9    2
    17    19    18    1
    18     9    18    2
    19     9    10    1
    20    10    11    1
    21    11    12    1
    22    11    16    1
    23    13    12    1
    24    13    14    1
    25    16    15    1
    26    16    17    1
    27    15    14    1
