@<TRIPOS>MOLECULE
3srw_Q27_X_1.pdb
 26 29 0 0 0
SMALL
GASTEIGER

@<TRIPOS>ATOM
      1  C1        -4.0920  -28.6630    3.8390 C.2   168  Q27168      0.2204
      2  N2        -5.0400  -27.6850    3.8550 N.2   168  Q27168     -0.3112
      3  C3        -6.1810  -27.7790    4.5750 C.1   168  Q27168      0.2422
      4  N4        -6.4600  -28.8560    5.3490 N.2   168  Q27168     -0.3295
      5  C5        -5.6020  -29.9170    5.4150 C.2   168  Q27168      0.1345
      6  C6        -4.3480  -29.8810    4.6510 C.3   168  Q27168      0.1457
      7  C7        -5.9050  -31.0460    6.1750 C.2   168  Q27168      0.0291
      8  C8        -4.9730  -32.0950    6.1980 C.2   168  Q27168      0.0009
      9  C9        -3.7190  -32.0630    5.4260 C.2   168  Q27168     -0.0251
     10  C10       -3.4200  -30.9380    4.6570 C.2   168  Q27168     -0.0151
     11  N11       -2.9480  -28.5530    3.1460 N.pl3 168  Q27168     -0.0962
     12  N12       -7.0950  -26.7620    4.5460 N.pl3 168  Q27168     -0.0232
     13  C13       -2.7230  -33.2050    5.4580 C.3   168  Q27168      0.0307
     14  C14       -5.2530  -33.3320    6.9520 C.ar  168  Q27168      0.0337
     15  C15       -4.5380  -33.7250    8.1800 C.ar  168  Q27168      0.1384
     16  C16       -4.8670  -34.9590    8.7820 C.ar  168  Q27168      0.0369
     17  C17       -5.8570  -35.7900    8.2410 C.ar  168  Q27168      0.0031
     18  C18       -6.5660  -35.4840    7.0770 C.ar  168  Q27168      0.0002
     19  C19       -6.2730  -34.2180    6.3590 C.ar  168  Q27168      0.0029
     20  C20       -6.9520  -33.8820    5.1850 C.ar  168  Q27168      0.0001
     21  C21       -7.9260  -34.7400    4.6680 C.ar  168  Q27168      0.0000
     22  C22       -8.2150  -35.9410    5.3390 C.ar  168  Q27168      0.0000
     23  C23       -7.5490  -36.3100    6.5210 C.ar  168  Q27168      0.0000
     24  O24       -3.5720  -32.8690    8.6380 O.3   168  Q27168     -0.4755
     25  C25       -2.5500  -33.3470    9.5350 C.3   168  Q27168      0.2055
     26  C26       -1.1880  -33.1140    8.9480 C.3   168  Q27168      0.0512
@<TRIPOS>BOND
     1    11     1    1
     2     1     2    2
     3     1     6    1
     4     2     3    2
     5    12     3    1
     6     3     4    2
     7     6    10    1
     8     6     5    1
     9    10     9    2
    10    21    20   ar
    11    21    22   ar
    12    20    19   ar
    13    22    23   ar
    14     4     5    2
    15     5     7    1
    16     9    13    1
    17     9     8    1
    18     7     8    2
    19     8    14    1
    20    19    14   ar
    21    19    18   ar
    22    23    18   ar
    23    14    15   ar
    24    18    17   ar
    25    15    24    1
    26    15    16   ar
    27    17    16   ar
    28    24    25    1
    29    26    25    1
