@<TRIPOS>MOLECULE
3srw_NAP_X_1.pdb
 48 52 0 0 0
SMALL
GASTEIGER

@<TRIPOS>ATOM
      1  PA         6.5410  -31.6880    6.4370 P.3   169  NAP169      0.2189
      2  O1A        6.7380  -30.4170    5.7010 O.2   169  NAP169     -0.5170
      3  O2A        5.2290  -32.3580    6.3080 O.3   169  NAP169     -0.4371
      4  O5B        7.6630  -32.7720    6.0670 O.3   169  NAP169     -0.3112
      5  C5B        9.0190  -32.4500    6.2770 C.3   169  NAP169      0.1813
      6  C4B        9.8140  -33.4670    5.4960 C.3   169  NAP169      0.1820
      7  O4B        9.5830  -33.2290    4.1220 O.3   169  NAP169     -0.3136
      8  C3B       11.3210  -33.3170    5.6570 C.3   169  NAP169      0.2157
      9  O3B       11.8420  -33.8240    6.8640 O.3   169  NAP169     -0.2175
     10  C2B       11.7820  -34.0550    4.4220 C.3   169  NAP169      0.2314
     11  O2B       11.5630  -35.4400    4.5930 O.3   169  NAP169     -0.2630
     12  C1B       10.7450  -33.5850    3.4030 C.3   169  NAP169      0.3158
     13  N9A       11.2340  -32.4440    2.6070 N.pl3 169  NAP169     -0.1439
     14  C8A       10.8270  -31.1250    2.6440 C.3   169  NAP169      0.3377
     15  N7A       11.5330  -30.4140    1.7140 N.2   169  NAP169     -0.2095
     16  C5A       12.3840  -31.2840    1.0960 C.2   169  NAP169      0.2526
     17  C6A       13.3380  -31.1410    0.0870 C.2   169  NAP169      0.4393
     18  N6A       13.5510  -29.9530   -0.4650 N.pl3 169  NAP169      0.2180
     19  N1A       14.0700  -32.2530   -0.3340 N.2   169  NAP169      0.0021
     20  C2A       13.8490  -33.4880    0.2170 C.3   169  NAP169      0.5254
     21  N3A       12.9150  -33.6310    1.2240 N.2   169  NAP169     -0.0055
     22  C4A       12.1980  -32.5490    1.6450 C.2   169  NAP169      0.3518
     23  O3         6.9360  -31.4430    7.9690 O.3   169  NAP169     -0.2703
     24  PN         6.7680  -30.2260    8.9960 P.3   169  NAP169      0.2189
     25  O1N        7.4280  -29.0460    8.4010 O.2   169  NAP169     -0.5170
     26  O2N        7.1970  -30.6820   10.3410 O.3   169  NAP169     -0.4371
     27  O5D        5.1760  -29.9470    9.0030 O.3   169  NAP169     -0.3112
     28  C5D        4.3230  -30.8970    9.6270 C.3   169  NAP169      0.1813
     29  C4D        3.2480  -30.1610   10.4310 C.3   169  NAP169      0.1799
     30  O4D        2.3840  -29.5130    9.5020 O.3   169  NAP169     -0.3327
     31  C3D        2.4020  -31.1200   11.2640 C.3   169  NAP169      0.2158
     32  O3D        2.0950  -30.5540   12.5420 O.3   169  NAP169     -0.2175
     33  C2D        1.1530  -31.2890   10.4490 C.3   169  NAP169      0.2309
     34  O2D        0.0260  -31.6050   11.2370 O.3   169  NAP169     -0.2158
     35  C1D        1.0570  -29.8810    9.8550 C.3   169  NAP169      0.2263
     36  N1N        0.2800  -29.7120    8.6290 N.pl3 169  NAP169     -0.2787
     37  C2N       -0.6750  -28.7570    8.6870 C.3   169  NAP169      0.1244
     38  C3N       -1.4400  -28.4990    7.5670 C.2   169  NAP169      0.0544
     39  C7N       -2.5110  -27.4620    7.6370 C.2   169  NAP169      0.2818
     40  O7N       -2.8970  -26.9080    6.4510 O.2   169  NAP169     -0.2670
     41  N7N       -3.0620  -27.0460    8.7790 N.am  169  NAP169     -0.0839
     42  C4N       -1.1620  -29.1780    6.3640 C.2   169  NAP169      0.0033
     43  C5N       -0.1570  -30.1630    6.3180 C.2   169  NAP169      0.0157
     44  C6N        0.5870  -30.4050    7.4730 C.2   169  NAP169      0.0633
     45  P2B       12.7440  -36.4540    5.0230 P.3   169  NAP169      0.5328
     46  O1X       12.1290  -37.8390    4.9160 O.3   169  NAP169     -0.1145
     47  O2X       13.8720  -36.2190    4.0190 O.2   169  NAP169     -0.2224
     48  O3X       13.1480  -36.1520    6.4550 O.3   169  NAP169     -0.1145
@<TRIPOS>BOND
     1    18    17    1
     2    19    17    2
     3    19    20    1
     4    17    16    1
     5    20    21    1
     6    16    22    1
     7    16    15    2
     8    21    22    2
     9    22    13    1
    10    15    14    1
    11    13    14    1
    12    13    12    1
    13    12     7    1
    14    12    10    1
    15    47    45    2
    16     7     6    1
    17    10    11    1
    18    10     8    1
    19    11    45    1
    20    46    45    1
    21    45    48    1
    22     6     8    1
    23     6     5    1
    24     8     9    1
    25     2     1    2
    26     4     5    1
    27     4     1    1
    28     3     1    1
    29    43    42    1
    30    43    44    2
    31    42    38    2
    32     1    23    1
    33    40    39    2
    34    44    36    1
    35    38    39    1
    36    38    37    1
    37    39    41   am
    38    23    24    1
    39    25    24    2
    40    36    37    1
    41    36    35    1
    42    24    27    1
    43    24    26    1
    44    27    28    1
    45    30    35    1
    46    30    29    1
    47    28    29    1
    48    35    33    1
    49    29    31    1
    50    33    34    1
    51    33    31    1
    52    31    32    1
