@<TRIPOS>MOLECULE
3srz_UPG_A_1.pdb
 36 38 0 0 0
SMALL
GASTEIGER

@<TRIPOS>ATOM
      1  N1       -31.2290  -40.6180   -9.9780 N.am  556  UPG556     -0.1766
      2  C2       -30.9410  -39.9700   -8.7610 C.1   556  UPG556      0.2845
      3  N3       -29.7480  -40.1210   -8.1600 N.2   556  UPG556     -0.2452
      4  C4       -28.8080  -40.8880   -8.7270 C.1   556  UPG556      0.2182
      5  C5       -29.0700  -41.5370   -9.9400 C.2   556  UPG556      0.1242
      6  C6       -30.3060  -41.3900  -10.5640 C.2   556  UPG556      0.0929
      7  O2       -31.8270  -39.2560   -8.2490 O.2   556  UPG556     -0.1918
      8  O4       -27.6950  -41.0180   -8.1640 O.2   556  UPG556     -0.2085
      9  C1C      -32.5480  -40.4040  -10.5700 C.3   556  UPG556      0.2401
     10  C2C      -32.5980  -38.9690  -11.0570 C.3   556  UPG556      0.2319
     11  O2C      -33.8380  -38.3740  -10.6340 O.3   556  UPG556     -0.2157
     12  C3C      -32.4390  -39.1530  -12.5730 C.3   556  UPG556      0.2158
     13  C4C      -33.1360  -40.4700  -12.8370 C.3   556  UPG556      0.1799
     14  O4C      -32.7470  -41.2560  -11.7090 O.3   556  UPG556     -0.3320
     15  O3C      -32.9770  -38.1100  -13.3910 O.3   556  UPG556     -0.2175
     16  C5C      -32.7090  -41.1010  -14.1550 C.3   556  UPG556      0.1813
     17  O5C      -31.3850  -41.6240  -14.0730 O.3   556  UPG556     -0.3112
     18  PA       -30.5340  -41.7670  -15.4240 P.3   556  UPG556      0.2189
     19  O1A      -30.9680  -40.7170  -16.4200 O.2   556  UPG556     -0.5170
     20  O2A      -29.0840  -41.5900  -15.0690 O.3   556  UPG556     -0.4371
     21  O3A      -30.7720  -43.2850  -15.9140 O.3   556  UPG556     -0.2703
     22  PB       -31.6160  -43.7850  -17.2020 P.3   556  UPG556      0.2208
     23  O1B      -31.8110  -42.7010  -18.2360 O.2   556  UPG556     -0.5170
     24  O2B      -30.9840  -45.0060  -17.8260 O.3   556  UPG556     -0.4371
     25  O3B      -33.0240  -44.1900  -16.5340 O.3   556  UPG556     -0.2857
     26  C1'      -34.1180  -44.7640  -17.2460 C.3   556  UPG556      0.2742
     27  C2'      -35.2110  -43.7160  -17.3360 C.3   556  UPG556      0.2409
     28  C3'      -35.4490  -43.1670  -15.9330 C.3   556  UPG556      0.2198
     29  C4'      -35.9010  -44.2980  -15.0160 C.3   556  UPG556      0.2144
     30  C5'      -34.9220  -45.4660  -15.0980 C.3   556  UPG556      0.1835
     31  C6'      -35.5030  -46.6480  -14.3310 C.3   556  UPG556      0.2142
     32  O2'      -34.8200  -42.6570  -18.2120 O.3   556  UPG556     -0.2149
     33  O3'      -36.4560  -42.1690  -15.9930 O.3   556  UPG556     -0.2174
     34  O4'      -35.9990  -43.8540  -13.6590 O.3   556  UPG556     -0.2176
     35  O5'      -34.6490  -45.8350  -16.4630 O.3   556  UPG556     -0.3254
     36  O6'      -36.8400  -46.9160  -14.7750 O.3   556  UPG556     -0.2176
@<TRIPOS>BOND
     1    23    22    2
     2    32    27    1
     3    24    22    1
     4    27    26    1
     5    27    28    1
     6    26    25    1
     7    26    35    1
     8    22    25    1
     9    22    21    1
    10    35    30    1
    11    19    18    2
    12    33    28    1
    13    28    29    1
    14    21    18    1
    15    18    20    1
    16    18    17    1
    17    30    29    1
    18    30    31    1
    19    29    34    1
    20    36    31    1
    21    16    17    1
    22    16    13    1
    23    15    12    1
    24    13    12    1
    25    13    14    1
    26    12    10    1
    27    14     9    1
    28    10    11    1
    29    10     9    1
    30     9     1    1
    31     6     1    1
    32     6     5    2
    33     1     2   am
    34     5     4    1
    35     2     7    2
    36     2     3    2
    37     4     8    2
    38     4     3    2
