@<TRIPOS>MOLECULE
3ss5_GLU_A_1.pdb
 10 9 0 0 0
SMALL
GASTEIGER

@<TRIPOS>ATOM
      1  N          1.5390  -19.0620   29.2420 N.3     1  GLU1       -0.1208
      2  CA         2.0670  -17.9350   30.0020 C.3     1  GLU1        0.1949
      3  C          1.1030  -17.5150   31.1050 C.2     1  GLU1        0.3819
      4  O          1.5100  -16.9600   32.1250 O.co2   1  GLU1       -0.2441
      5  CB         2.3490  -16.7500   29.0770 C.3     1  GLU1        0.0424
      6  CG         2.8410  -15.5080   29.7990 C.3     1  GLU1        0.1161
      7  CD         3.0130  -14.3260   28.8710 C.2     1  GLU1        0.3649
      8  OE1        2.7350  -13.1860   29.3030 O.co2   1  GLU1       -0.2457
      9  OE2        3.4270  -14.5370   27.7110 O.co2   1  GLU1       -0.2457
     10  OXT       -0.1060  -17.7230   31.0000 O.co2   1  GLU1       -0.2441
@<TRIPOS>BOND
     1     9     7   ar
     2     7     8   ar
     3     7     6    1
     4     5     6    1
     5     5     2    1
     6     1     2    1
     7     2     3    1
     8    10     3   ar
     9     3     4   ar
