@<TRIPOS>MOLECULE
3ss7_PLP_X_1.pdb
 15 15 0 0 0
SMALL
GASTEIGER

@<TRIPOS>ATOM
      1  N1         4.8390    4.2800   22.6500 N.ar  502  PLP502     -0.2452
      2  C2         5.9340    4.8300   23.2490 C.ar  502  PLP502      0.0978
      3  C2A        5.9770    6.3130   23.5090 C.3   502  PLP502      0.0555
      4  C3         6.9740    3.9840   23.6090 C.ar  502  PLP502      0.2049
      5  O3         8.0830    4.5380   24.2260 O.3   502  PLP502     -0.2857
      6  C4         6.8240    2.6010   23.3470 C.ar  502  PLP502      0.0182
      7  C4A        7.8100    1.6510   23.9160 C.3   502  PLP502      0.0342
      8  C5         5.6820    2.0880   22.7340 C.ar  502  PLP502      0.0261
      9  C6         4.6920    2.9650   22.3780 C.ar  502  PLP502      0.0965
     10  C5A        5.4600    0.6170   22.4060 C.3   502  PLP502      0.1815
     11  O4P        6.7060    0.0590   22.0940 O.3   502  PLP502     -0.2653
     12  P          7.0470   -1.4950   21.8370 P.3   502  PLP502      0.5329
     13  O1P        8.3930   -1.3420   21.1350 O.3   502  PLP502     -0.1145
     14  O2P        6.0300   -2.0890   20.9290 O.2   502  PLP502     -0.2224
     15  O3P        7.1080   -2.2250   23.1300 O.3   502  PLP502     -0.1145
@<TRIPOS>BOND
     1    14    12    2
     2    13    12    1
     3    12    11    1
     4    12    15    1
     5    11    10    1
     6     9     1   ar
     7     9     8   ar
     8    10     8    1
     9     1     2   ar
    10     8     6   ar
    11     2     3    1
    12     2     4   ar
    13     6     4   ar
    14     6     7    1
    15     4     5    1
