@<TRIPOS>MOLECULE
3ss8_GDP_A_1.pdb
 28 30 0 0 0
SMALL
GASTEIGER

@<TRIPOS>ATOM
      1  PB         6.0690   16.9290  -34.2790 P.3   300  GDP300      0.5373
      2  O1B        5.0380   17.5020  -33.3560 O.3   300  GDP300     -0.1143
      3  O2B        5.7100   15.4340  -34.7480 O.2   300  GDP300     -0.2221
      4  O3B        7.5270   16.8250  -33.5880 O.3   300  GDP300     -0.1143
      5  O3A        6.2270   17.7990  -35.6190 O.3   300  GDP300     -0.2261
      6  PA         7.6900   18.1490  -36.2740 P.3   300  GDP300      0.2231
      7  O1A        8.6090   18.8350  -35.3320 O.3   300  GDP300     -0.4370
      8  O2A        8.2790   16.7300  -36.8020 O.2   300  GDP300     -0.5169
      9  O5'        7.3750   19.0120  -37.5530 O.3   300  GDP300     -0.3111
     10  C5'        6.2140   18.7270  -38.3560 C.3   300  GDP300      0.1813
     11  C4'        6.2940   19.4200  -39.7160 C.3   300  GDP300      0.1799
     12  O4'        5.8550   20.7400  -39.4110 O.3   300  GDP300     -0.3326
     13  C3'        7.7180   19.5370  -40.2830 C.3   300  GDP300      0.2158
     14  O3'        7.6430   19.3960  -41.6960 O.3   300  GDP300     -0.2175
     15  C2'        8.1720   20.9480  -39.8860 C.3   300  GDP300      0.2310
     16  O2'        9.0250   21.4780  -40.8910 O.3   300  GDP300     -0.2158
     17  C1'        6.8480   21.7030  -39.8690 C.3   300  GDP300      0.2293
     18  N9         6.6350   22.7880  -38.8940 N.pl3 300  GDP300     -0.2354
     19  C8         6.8330   22.7810  -37.5750 C.3   300  GDP300      0.2246
     20  N7         6.4940   23.9700  -37.0780 N.2   300  GDP300     -0.2322
     21  C5         6.0760   24.7440  -38.0750 C.2   300  GDP300      0.2182
     22  C6         5.6090   26.0590  -38.1570 C.1   300  GDP300      0.2372
     23  O6         5.5080   26.7680  -37.1590 O.2   300  GDP300     -0.2069
     24  N1         5.2340   26.5690  -39.4090 N.2   300  GDP300     -0.2485
     25  C2         5.3450   25.7460  -40.5420 C.1   300  GDP300      0.2531
     26  N2         5.0060   26.1960  -41.7390 N.pl3 300  GDP300     -0.0226
     27  N3         5.7990   24.4900  -40.4310 N.2   300  GDP300     -0.3074
     28  C4         6.1600   23.9810  -39.2360 C.2   300  GDP300      0.2300
@<TRIPOS>BOND
     1    26    25    1
     2    14    13    1
     3    16    15    1
     4    25    27    2
     5    25    24    2
     6    27    28    2
     7    13    15    1
     8    13    11    1
     9    15    17    1
    10    17    12    1
    11    17    18    1
    12    11    12    1
    13    11    10    1
    14    24    22    2
    15    28    18    1
    16    28    21    1
    17    18    19    1
    18    10     9    1
    19    22    21    1
    20    22    23    2
    21    21    20    2
    22    19    20    1
    23     9     6    1
    24     8     6    2
    25     6     5    1
    26     6     7    1
    27     5     1    1
    28     3     1    2
    29     1     4    1
    30     1     2    1
