@<TRIPOS>MOLECULE
3ss9_PLP_X_1.pdb
 15 15 0 0 0
SMALL
GASTEIGER

@<TRIPOS>ATOM
      1  N1        50.5060   13.3680   13.6390 N.ar  501  PLP501     -0.2452
      2  C2        49.9010   13.9020   14.7390 C.ar  501  PLP501      0.0978
      3  C2A       49.6410   15.3850   14.8010 C.3   501  PLP501      0.0555
      4  C3        49.5350   13.0420   15.7650 C.ar  501  PLP501      0.2049
      5  O3        48.9120   13.5800   16.8780 O.3   501  PLP501     -0.2857
      6  C4        49.7980   11.6610   15.5970 C.ar  501  PLP501      0.0182
      7  C4A       49.2230   10.6970   16.5660 C.3   501  PLP501      0.0342
      8  C5        50.4170   11.1640   14.4510 C.ar  501  PLP501      0.0261
      9  C6        50.7790   12.0550   13.4750 C.ar  501  PLP501      0.0965
     10  C5A       50.7460    9.6960   14.2100 C.3   501  PLP501      0.1815
     11  O4P       51.0510    9.1210   15.4500 O.3   501  PLP501     -0.2653
     12  P         51.3060    7.5620   15.7700 P.3   501  PLP501      0.5329
     13  O1P       52.0990    7.7010   17.0670 O.3   501  PLP501     -0.1145
     14  O2P       52.1350    6.9570   14.6940 O.2   501  PLP501     -0.2224
     15  O3P       50.0090    6.8520   15.9160 O.3   501  PLP501     -0.1145
@<TRIPOS>BOND
     1     9     1   ar
     2     9     8   ar
     3     1     2   ar
     4    10     8    1
     5    10    11    1
     6     8     6   ar
     7    14    12    2
     8     2     3    1
     9     2     4   ar
    10    11    12    1
    11     6     4   ar
    12     6     7    1
    13     4     5    1
    14    12    15    1
    15    12    13    1
