@<TRIPOS>MOLECULE
3ssa_AES_A_1.pdb
 13 13 0 0 0
SMALL
GASTEIGER

@<TRIPOS>ATOM
      1  C3        -8.3860  -25.1080    7.6040 C.ar  1474  AES1474    -0.0028
      2  C2        -8.7950  -25.7700    8.7590 C.ar  1474  AES1474     0.0208
      3  C1        -8.0180  -25.7170    9.9350 C.ar  1474  AES1474     0.1382
      4  S         -8.5330  -26.5540   11.2340 S.O2  1474  AES1474     0.1484
      5  F         -9.9790  -26.1740   11.6380 F     1474  AES1474    -0.0562
      6  O1S       -8.7690  -27.9770   10.8390 O.2   1474  AES1474    -0.1378
      7  O2S       -7.7570  -26.4460   12.3210 O.2   1474  AES1474    -0.1378
      8  C6        -6.8310  -24.9550    9.9320 C.ar  1474  AES1474     0.0208
      9  C5        -6.4100  -24.3040    8.7880 C.ar  1474  AES1474    -0.0028
     10  C4        -7.1800  -24.4140    7.6440 C.ar  1474  AES1474    -0.0206
     11  C7        -6.7240  -23.6770    6.4350 C.3   1474  AES1474     0.0468
     12  C8        -7.8270  -23.8610    5.3910 C.3   1474  AES1474     0.1140
     13  N8        -8.1370  -22.5380    4.9030 N.3   1474  AES1474    -0.1310
@<TRIPOS>BOND
     1    13    12    1
     2    12    11    1
     3    11    10    1
     4     1    10   ar
     5     1     2   ar
     6    10     9   ar
     7     2     3   ar
     8     9     8   ar
     9     8     3   ar
    10     3     4    1
    11     6     4    2
    12     4     5    1
    13     4     7    2
