@<TRIPOS>MOLECULE
3ssj_FNU_A_1.pdb
 23 24 0 0 0
SMALL
GASTEIGER

@<TRIPOS>ATOM
      1  P         19.1470   17.1580   -1.7590 P.3   248  FNU248      0.5327
      2  N1        16.6410   11.6420    0.9410 N.am  248  FNU248     -0.0533
      3  C2        15.7360   12.2760    0.1860 C.1   248  FNU248      0.3761
      4  N2        14.4330   11.9780    0.3180 N.2   248  FNU248     -0.2243
      5  O2        16.0680   13.1370   -0.6630 O.2   248  FNU248     -0.1670
      6  N3        17.1550   10.3370    2.8310 N.pl3 248  FNU248      0.2145
      7  C4        13.9700   11.0850    1.2280 C.1   248  FNU248      0.2535
      8  O4        12.7190   10.8930    1.3010 O.2   248  FNU248     -0.2059
      9  C5        14.9030   10.4810    2.0630 C.2   248  FNU248      0.3192
     10  C6        16.2410   10.8190    1.9590 C.2   248  FNU248      0.4213
     11  C1'       18.0840   11.9270    0.8030 C.3   248  FNU248      0.3331
     12  O1P       19.0510   18.2640   -0.7340 O.3   248  FNU248     -0.1145
     13  C2'       18.6560   11.8230   -0.6230 C.3   248  FNU248      0.2581
     14  O2'       19.1430   10.5250   -0.9560 O.3   248  FNU248     -0.2130
     15  F24       14.5040    9.6190    3.0560 F     248  FNU248     -0.1825
     16  O2P       17.8480   16.9380   -2.4840 O.3   248  FNU248     -0.1145
     17  C3'       19.7780   12.8430   -0.5750 C.3   248  FNU248      0.2185
     18  O3'       20.9490   12.2290    0.0280 O.3   248  FNU248     -0.2174
     19  O3P       20.3380   17.2990   -2.6870 O.2   248  FNU248     -0.2224
     20  C4'       19.2610   13.9140    0.3530 C.3   248  FNU248      0.1823
     21  O4'       18.3680   13.2380    1.2490 O.3   248  FNU248     -0.3127
     22  C5'       18.5010   15.0250   -0.3490 C.3   248  FNU248      0.1860
     23  O5'       19.5310   15.7930   -0.9710 O.3   248  FNU248     -0.2675
@<TRIPOS>BOND
     1    19     1    2
     2    16     1    1
     3     1    23    1
     4     1    12    1
     5    23    22    1
     6    14    13    1
     7     5     3    2
     8    13    17    1
     9    13    11    1
    10    17    18    1
    11    17    20    1
    12    22    20    1
    13     3     4    2
    14     3     2   am
    15     4     7    2
    16    20    21    1
    17    11     2    1
    18    11    21    1
    19     2    10    1
    20     7     8    2
    21     7     9    1
    22    10     9    2
    23    10     6    1
    24     9    15    1
