@<TRIPOS>MOLECULE
3ssm_SAH_A_1.pdb
 26 28 0 0 0
SMALL
GASTEIGER

@<TRIPOS>ATOM
      1  N         -6.8510  122.7740   52.1080 N.3   601  SAH601     -0.1208
      2  CA        -6.4340  122.5260   53.5190 C.3   601  SAH601      0.1952
      3  CB        -6.6520  121.0600   53.9150 C.3   601  SAH601      0.0422
      4  CG        -8.0600  120.5070   53.6570 C.3   601  SAH601      0.0597
      5  SD        -8.2350  118.9840   54.5570 S.3   601  SAH601     -0.1375
      6  C         -4.9710  122.8750   53.6690 C.2   601  SAH601      0.3819
      7  O         -4.4870  123.1520   54.7700 O.co2 601  SAH601     -0.2441
      8  OXT       -4.2140  122.8780   52.6960 O.co2 601  SAH601     -0.2441
      9  C5'       -9.7150  118.3020   53.8750 C.3   601  SAH601      0.0899
     10  C4'      -10.9490  119.0760   54.3200 C.3   601  SAH601      0.1630
     11  O4'      -12.0830  118.7310   53.5040 O.3   601  SAH601     -0.3153
     12  C3'      -11.3450  118.8280   55.7710 C.3   601  SAH601      0.2168
     13  O3'      -11.3470  120.0700   56.4950 O.3   601  SAH601     -0.2175
     14  C2'      -12.7500  118.2470   55.6830 C.3   601  SAH601      0.2569
     15  O2'      -13.5980  118.6990   56.7460 O.3   601  SAH601     -0.2130
     16  C1'      -13.2470  118.7510   54.3390 C.3   601  SAH601      0.3185
     17  N9       -14.3380  117.9220   53.7760 N.pl3 601  SAH601     -0.1439
     18  C8       -14.4930  116.5900   53.9320 C.3   601  SAH601      0.3377
     19  N7       -15.5960  116.1520   53.2870 N.2   601  SAH601     -0.2095
     20  C5       -16.1690  117.2120   52.7040 C.2   601  SAH601      0.2526
     21  C6       -17.3620  117.4340   51.8670 C.2   601  SAH601      0.4393
     22  N6       -18.1690  116.3910   51.5290 N.pl3 601  SAH601      0.2180
     23  N1       -17.6060  118.7070   51.4530 N.2   601  SAH601      0.0021
     24  C2       -16.8010  119.7370   51.7940 C.3   601  SAH601      0.5254
     25  N3       -15.7000  119.5980   52.5550 N.2   601  SAH601     -0.0055
     26  C4       -15.3380  118.3820   53.0280 C.2   601  SAH601      0.3518
@<TRIPOS>BOND
     1    23    24    1
     2    23    21    2
     3    22    21    1
     4    24    25    1
     5    21    20    1
     6     1     2    1
     7    25    26    2
     8     8     6   ar
     9    20    26    1
    10    20    19    2
    11    26    17    1
    12    19    18    1
    13    11    10    1
    14    11    16    1
    15     2     6    1
    16     2     3    1
    17     4     3    1
    18     4     5    1
    19     6     7   ar
    20    17    18    1
    21    17    16    1
    22     9    10    1
    23     9     5    1
    24    10    12    1
    25    16    14    1
    26    14    12    1
    27    14    15    1
    28    12    13    1
