@<TRIPOS>MOLECULE
3ssn_MVI_A_1.pdb
 47 49 0 0 0
SMALL
GASTEIGER

@<TRIPOS>ATOM
      1  CAA       -3.2530  110.9840   59.7320 C.3   701  MVI701      0.0038
      2  CAB       -0.5430  116.3810   63.9330 C.3   701  MVI701      0.0072
      3  CAC       -1.1470  123.4350   65.2070 C.3   701  MVI701      0.0322
      4  CAD        1.4350  119.7910   58.2250 C.3   701  MVI701      0.0081
      5  CAE       -1.9040  120.5610   61.4430 C.3   701  MVI701      0.0025
      6  CAF       -3.0890  111.6280   53.3400 C.3   701  MVI701      0.0350
      7  CAG        1.7870  121.0430   69.0140 C.3   701  MVI701      0.0897
      8  CAH        3.3940  121.0030   67.2000 C.3   701  MVI701      0.0897
      9  OAI       -3.7430  115.0690   60.3490 O.2   701  MVI701     -0.2449
     10  OAJ       -1.9660  120.2120   57.8870 O.2   701  MVI701     -0.2914
     11  OAK       -4.9060  113.1790   50.4940 O.3   701  MVI701     -0.2177
     12  OAL       -3.3940  115.5270   50.9200 O.3   701  MVI701     -0.2174
     13  OAM       -5.8550  115.6550   52.1800 O.3   701  MVI701     -0.2149
     14  OAN        1.6150  118.4530   65.6460 O.3   701  MVI701     -0.2163
     15  CAO       -2.2500  117.4660   57.6580 C.2   701  MVI701      0.0026
     16  CAP       -2.1950  116.0860   57.6170 C.2   701  MVI701     -0.0043
     17  CAQ       -1.1640  118.1030   58.2270 C.2   701  MVI701      0.0374
     18  CAR       -1.5420  115.3060   60.9150 C.2   701  MVI701      0.0774
     19  CAS       -1.7880  116.3720   61.7760 C.2   701  MVI701     -0.0174
     20  CAT       -3.2540  115.3690   57.0890 C.2   701  MVI701     -0.0203
     21  CAU       -3.3310  111.6700   58.3680 C.3   701  MVI701      0.0441
     22  CAV       -4.4370  113.4340   56.1700 C.3   701  MVI701      0.1528
     23  CAW        0.3090  119.6130   60.5100 C.3   701  MVI701      0.0101
     24  CAX        0.5130  122.0040   66.4980 C.3   701  MVI701      0.0483
     25  OAY       -4.1030  114.0390   54.9120 O.3   701  MVI701     -0.3281
     26  OAZ       -2.2660  113.6530   59.3600 O.3   701  MVI701     -0.4488
     27  OBA       -0.3480  121.2770   64.2850 O.3   701  MVI701     -0.3311
     28  OBB       -5.3780  112.7630   53.3990 O.3   701  MVI701     -0.3284
     29  OBC        0.3410  119.1570   63.3120 O.3   701  MVI701     -0.3308
     30  CBD       -2.5790  114.6770   60.2210 C.2   701  MVI701      0.3410
     31  CBE       -1.0690  119.4880   58.3270 C.2   701  MVI701      0.1727
     32  CBF       -0.6330  117.0360   62.5440 C.3   701  MVI701      0.0495
     33  CBG       -0.6870  122.0010   65.5140 C.3   701  MVI701      0.1194
     34  CBH        0.1630  120.0940   59.0300 C.3   701  MVI701      0.0620
     35  CBI       -1.0250  119.3120   61.2630 C.3   701  MVI701      0.0281
     36  CBJ       -4.2970  112.1950   52.5620 C.3   701  MVI701      0.1508
     37  CBK       -3.2500  113.8340   57.0500 C.3   701  MVI701      0.0918
     38  CBL       -3.8650  113.1800   51.4670 C.3   701  MVI701      0.2118
     39  CBM       -3.6000  114.6130   52.0100 C.3   701  MVI701      0.2197
     40  CBN       -4.7270  115.1550   52.9350 C.3   701  MVI701      0.2406
     41  CBO        1.2430  119.8150   65.4300 C.3   701  MVI701      0.2224
     42  CBP       -3.3440  113.2180   58.4680 C.3   701  MVI701      0.1755
     43  CBQ       -5.1670  114.0980   53.9640 C.3   701  MVI701      0.2694
     44  CBR        0.0090  119.8780   64.5220 C.3   701  MVI701      0.2679
     45  CBS       -0.8100  118.5840   62.6250 C.3   701  MVI701      0.1217
     46  CBT        0.9630  120.5430   66.7630 C.3   701  MVI701      0.0957
     47  NBU        2.1180  120.4390   67.7030 N.3   701  MVI701     -0.2691
@<TRIPOS>BOND
     1    11    38    1
     2    12    39    1
     3    38    39    1
     4    38    36    1
     5    39    40    1
     6    13    40    1
     7    36     6    1
     8    36    28    1
     9    40    43    1
    10    28    43    1
    11    43    25    1
    12    25    22    1
    13    22    37    1
    14    37    20    1
    15    37    42    1
    16    20    16    2
    17    16    15    1
    18    15    17    2
    19    10    31    2
    20     4    34    1
    21    17    31    1
    22    31    34    1
    23    21    42    1
    24    21     1    1
    25    42    26    1
    26    34    23    1
    27    26    30    1
    28    30     9    2
    29    30    18    1
    30    23    35    1
    31    18    19    2
    32    35     5    1
    33    35    45    1
    34    19    32    1
    35    32    45    1
    36    32     2    1
    37    45    29    1
    38    29    44    1
    39    27    44    1
    40    27    33    1
    41    44    41    1
    42     3    33    1
    43    41    14    1
    44    41    46    1
    45    33    24    1
    46    24    46    1
    47    46    47    1
    48     8    47    1
    49    47     7    1
