@<TRIPOS>MOLECULE
3ssn_SAH_A_1.pdb
 26 28 0 0 0
SMALL
GASTEIGER

@<TRIPOS>ATOM
      1  N         -6.8780  121.7700   51.6400 N.3   601  SAH601     -0.1208
      2  CA        -6.5960  121.6420   53.0920 C.3   601  SAH601      0.1952
      3  CB        -6.7920  120.1970   53.5360 C.3   601  SAH601      0.0422
      4  CG        -8.2440  119.7520   53.4750 C.3   601  SAH601      0.0597
      5  SD        -8.3650  118.1590   54.2320 S.3   601  SAH601     -0.1375
      6  C         -5.1550  122.0060   53.3150 C.2   601  SAH601      0.3819
      7  O         -4.3240  121.8260   52.4230 O.co2 601  SAH601     -0.2441
      8  OXT       -4.7710  122.4740   54.3920 O.co2 601  SAH601     -0.2441
      9  C5'       -9.8810  117.5490   53.5610 C.3   601  SAH601      0.0899
     10  C4'      -11.0950  118.3070   54.0860 C.3   601  SAH601      0.1630
     11  O4'      -12.2230  117.9410   53.2940 O.3   601  SAH601     -0.3153
     12  C3'      -11.4450  117.9930   55.5440 C.3   601  SAH601      0.2168
     13  O3'      -11.3360  119.1860   56.3430 O.3   601  SAH601     -0.2175
     14  C2'      -12.8780  117.4720   55.5050 C.3   601  SAH601      0.2569
     15  O2'      -13.7280  118.0020   56.5480 O.3   601  SAH601     -0.2130
     16  C1'      -13.3680  117.9120   54.1350 C.3   601  SAH601      0.3185
     17  N9       -14.4190  117.0340   53.5760 N.pl3 601  SAH601     -0.1439
     18  C8       -14.5320  115.6920   53.7170 C.3   601  SAH601      0.3377
     19  N7       -15.6370  115.2530   53.0630 N.2   601  SAH601     -0.2095
     20  C5       -16.2420  116.3150   52.4860 C.2   601  SAH601      0.2526
     21  C6       -17.4540  116.5590   51.6590 C.2   601  SAH601      0.4393
     22  N6       -18.2600  115.5370   51.2890 N.pl3 601  SAH601      0.2180
     23  N1       -17.7200  117.8370   51.2680 N.2   601  SAH601      0.0021
     24  C2       -16.9210  118.8650   51.6280 C.3   601  SAH601      0.5254
     25  N3       -15.8170  118.7070   52.3880 N.2   601  SAH601     -0.0055
     26  C4       -15.4360  117.4890   52.8350 C.2   601  SAH601      0.3518
@<TRIPOS>BOND
     1    23    24    1
     2    23    21    2
     3    22    21    1
     4    24    25    1
     5     1     2    1
     6    21    20    1
     7    25    26    2
     8     7     6   ar
     9    20    26    1
    10    20    19    2
    11    26    17    1
    12    19    18    1
    13     2     6    1
    14     2     3    1
    15    11    10    1
    16    11    16    1
    17     6     8   ar
    18     4     3    1
    19     4     5    1
    20     9    10    1
    21     9     5    1
    22    17    18    1
    23    17    16    1
    24    10    12    1
    25    16    14    1
    26    14    12    1
    27    14    15    1
    28    12    13    1
