@<TRIPOS>MOLECULE
3sso_SAH_A_1.pdb
 26 28 0 0 0
SMALL
GASTEIGER

@<TRIPOS>ATOM
      1  N        -66.2650  -62.0240    6.1650 N.3   601  SAH601     -0.1208
      2  CA       -66.8420  -61.8710    7.5320 C.3   601  SAH601      0.1952
      3  CB       -68.3310  -61.5090    7.4740 C.3   601  SAH601      0.0422
      4  CG       -68.6040  -60.2460    6.6460 C.3   601  SAH601      0.0597
      5  SD       -70.2660  -59.6970    6.9480 S.3   601  SAH601     -0.1375
      6  C        -66.7050  -63.1820    8.2570 C.2   601  SAH601      0.3819
      7  O        -66.5220  -63.2040    9.4720 O.co2 601  SAH601     -0.2441
      8  OXT      -66.7800  -64.2580    7.6620 O.co2 601  SAH601     -0.2441
      9  C5'      -70.4440  -58.4890    5.6590 C.3   601  SAH601      0.0899
     10  C4'      -69.7310  -57.1690    5.9700 C.3   601  SAH601      0.1630
     11  O4'      -69.7700  -56.3190    4.8150 O.3   601  SAH601     -0.3153
     12  C3'      -70.3660  -56.3620    7.1050 C.3   601  SAH601      0.2168
     13  O3'      -69.4060  -56.1730    8.1480 O.3   601  SAH601     -0.2175
     14  C2'      -70.7570  -55.0270    6.4740 C.3   601  SAH601      0.2569
     15  O2'      -70.5400  -53.8720    7.2960 O.3   601  SAH601     -0.2130
     16  C1'      -69.8600  -54.9690    5.2620 C.3   601  SAH601      0.3185
     17  N9       -70.4190  -54.1670    4.1620 N.pl3 601  SAH601     -0.1439
     18  C8       -71.7230  -53.9780    3.8570 C.3   601  SAH601      0.3377
     19  N7       -71.8470  -53.1940    2.7590 N.2   601  SAH601     -0.2095
     20  C5       -70.5930  -52.8940    2.3460 C.2   601  SAH601      0.2526
     21  C6       -69.9850  -52.1180    1.2450 C.2   601  SAH601      0.4393
     22  N6       -70.7660  -51.4800    0.3360 N.pl3 601  SAH601      0.2180
     23  N1       -68.6290  -52.0750    1.1820 N.2   601  SAH601      0.0021
     24  C2       -67.8330  -52.6930    2.0730 C.3   601  SAH601      0.5254
     25  N3       -68.3100  -53.4180    3.1020 N.2   601  SAH601     -0.0055
     26  C4       -69.6550  -53.5460    3.2760 C.2   601  SAH601      0.3518
@<TRIPOS>BOND
     1    22    21    1
     2    23    21    2
     3    23    24    1
     4    21    20    1
     5    24    25    1
     6    20    19    2
     7    20    26    1
     8    19    18    1
     9    25    26    2
    10    26    17    1
    11    18    17    1
    12    17    16    1
    13    11    16    1
    14    11    10    1
    15    16    14    1
    16     9    10    1
    17     9     5    1
    18    10    12    1
    19     1     2    1
    20    14    12    1
    21    14    15    1
    22     4     5    1
    23     4     3    1
    24    12    13    1
    25     3     2    1
    26     2     6    1
    27     8     6   ar
    28     6     7   ar
