@<TRIPOS>MOLECULE
3st5_G89_B_1.pdb
 41 44 0 0 0
SMALL
GASTEIGER

@<TRIPOS>ATOM
      1  C21       14.4150   20.9620   18.1820 C.2   201  G89201      0.4210
      2  C21       18.2910   25.0370   16.6620 C.3   201  G89201      0.2220
      3  O22       15.5330   20.4550   18.0540 O.2   201  G89201     -0.2246
      4  O23       13.4320   20.2870   18.8270 O.3   201  G89201     -0.4372
      5  C24       13.7380   18.9240   19.1370 C.3   201  G89201      0.1731
      6  C25       12.6040   18.3670   20.0140 C.3   201  G89201      0.0733
      7  C26       11.5310   17.9550   19.0080 C.3   201  G89201      0.1215
      8  O27       10.8600   19.1430   18.6130 O.3   201  G89201     -0.3533
      9  C28       10.9240   19.3400   17.2130 C.3   201  G89201      0.1748
     10  C29       11.5020   18.0550   16.5970 C.3   201  G89201      0.1838
     11  C30       12.2780   17.4740   17.7750 C.3   201  G89201      0.0639
     12  C31       13.6880   18.0360   17.8950 C.3   201  G89201      0.0488
     13  O41       10.3420   17.2900   16.2010 O.3   201  G89201     -0.2204
     14  N11       17.7750   24.3590   17.4450 N.3   201  G89201     -0.2488
     15  C12       18.7320   24.7000   18.4920 C.3   201  G89201      0.0739
     16  C13       18.3590   24.0590   19.8340 C.3   201  G89201      0.0160
     17  C14       18.3990   22.5230   19.7450 C.3   201  G89201      0.0014
     18  C15       19.3430   24.4580   20.9400 C.3   201  G89201      0.0014
     19  C16       16.5180   25.0850   17.4030 C.3   201  G89201      0.1087
     20  C17       15.3770   24.2200   17.9180 C.3   201  G89201      0.1881
     21  O18       14.2280   24.9750   18.2860 O.3   201  G89201     -0.2198
     22  C19       15.0010   23.0740   16.9860 C.3   201  G89201      0.1347
     23  N20       14.1020   22.1690   17.7300 N.am  201  G89201     -0.1675
     24  C32       14.2510   23.5320   15.7290 C.3   201  G89201      0.0508
     25  C33       12.6510   21.8760   14.6830 C.ar  201  G89201     -0.0042
     26  C34       12.3800   20.7480   13.9430 C.ar  201  G89201     -0.0003
     27  C35       13.3830   20.1090   13.2160 C.ar  201  G89201     -0.0000
     28  C36       14.6790   20.5870   13.3630 C.ar  201  G89201     -0.0003
     29  C37       14.9680   21.6900   14.1540 C.ar  201  G89201     -0.0042
     30  C38       13.9510   22.3330   14.8340 C.ar  201  G89201     -0.0204
     31  S8        18.4630   24.1540   15.9720 S.3   201  G89201      0.0580
     32  O9        17.3650   24.0040   14.9650 O.3   201  G89201     -0.0646
     33  O10       19.3810   22.9740   16.0730 O.2   201  G89201     -0.1620
     34  C5        19.4330   25.5380   15.5260 C.ar  201  G89201      0.0156
     35  C6        18.8380   26.6510   14.9570 C.ar  201  G89201      0.0019
     36  C4        20.7910   25.5450   15.8140 C.ar  201  G89201      0.0019
     37  C7        19.5700   27.7860   14.6250 C.ar  201  G89201      0.0367
     38  C3        21.5280   26.6990   15.5300 C.ar  201  G89201      0.0367
     39  C2        20.9330   27.8080   14.9370 C.ar  201  G89201      0.1387
     40  O39       21.5970   28.9600   14.6630 O.3   201  G89201     -0.4714
     41  C40       22.9720   28.8560   14.9670 C.3   201  G89201      0.2525
@<TRIPOS>BOND
     1    27    28   ar
     2    27    26   ar
     3    28    29   ar
     4    26    25   ar
     5    29    30   ar
     6    37    39   ar
     7    37    35   ar
     8    40    39    1
     9    40    41    1
    10    25    30   ar
    11    30    24    1
    12    39    38   ar
    13    35    34   ar
    14    32    31    1
    15    34    36   ar
    16    34     2    1
    17    38    36   ar
    18    24    22    1
    19    31    33    2
    20    31     2    1
    21    13    10    1
    22    10     9    1
    23    10    11    1
    24     2    14    1
    25    22    23    1
    26    22    20    1
    27     9     8    1
    28    19    14    1
    29    19    20    1
    30    14    15    1
    31    23     1   am
    32    11    12    1
    33    11     7    1
    34    12     5    1
    35    20    21    1
    36     3     1    2
    37     1     4    1
    38    15    16    1
    39     8     7    1
    40     4     5    1
    41     7     6    1
    42     5     6    1
    43    17    16    1
    44    16    18    1
