@<TRIPOS>MOLECULE
3st6_RVE_A_1.pdb
 16 16 0 0 0
SMALL
GASTEIGER

@<TRIPOS>ATOM
      1  C8         0.0880  -37.9250   18.2760 C.2   451  RVE451      0.0477
      2  OA'        1.1610  -38.4350   20.9550 O.co2 451  RVE451     -0.2371
      3  OB         1.2790  -38.2340   11.8820 O.co2 451  RVE451     -0.2404
      4  OB'        2.9700  -37.5330   20.2950 O.co2 451  RVE451     -0.2371
      5  OA         1.0000  -39.7890   13.3520 O.co2 451  RVE451     -0.2404
      6  O2         1.4390  -39.2500   15.8570 O.3   451  RVE451     -0.2831
      7  C5         2.5420  -35.5450   14.7230 C.ar  451  RVE451      0.0036
      8  C4         2.6050  -35.9210   16.0500 C.ar  451  RVE451      0.0408
      9  C6         2.1080  -36.4160   13.7670 C.ar  451  RVE451      0.0100
     10  O3         2.3340  -37.5060   17.7310 O.3   451  RVE451     -0.4436
     11  C'         1.8960  -38.0360   20.0910 C.2   451  RVE451      0.4216
     12  C          1.2520  -38.6410   13.0360 C.2   451  RVE451      0.3910
     13  C7         1.4220  -37.9620   18.5860 C.2   451  RVE451      0.2247
     14  C3         2.2020  -37.1720   16.4460 C.ar  451  RVE451      0.1844
     15  C2         1.8050  -38.0590   15.4880 C.ar  451  RVE451      0.2361
     16  C1         1.7310  -37.6780   14.1250 C.ar  451  RVE451      0.1217
@<TRIPOS>BOND
     1     3    12   ar
     2    12     5   ar
     3    12    16    1
     4     9    16   ar
     5     9     7   ar
     6    16    15   ar
     7     7     8   ar
     8    15     6    1
     9    15    14   ar
    10     8    14   ar
    11    14    10    1
    12    10    13    1
    13     1    13    2
    14    13    11    1
    15    11     4   ar
    16    11     2   ar
