@<TRIPOS>MOLECULE
3st8_UD1_A_1.pdb
 39 41 0 0 0
SMALL
GASTEIGER

@<TRIPOS>ATOM
      1  C1'       11.8250   23.5680   20.7720 C.3   502  UD1502      0.2633
      2  C2'       12.1020   23.8640   19.3030 C.3   502  UD1502      0.1845
      3  C3'       11.4550   22.8180   18.4030 C.3   502  UD1502      0.2094
      4  C4'       11.7870   21.4080   18.8770 C.3   502  UD1502      0.2136
      5  C5'       11.5280   21.2590   20.3710 C.3   502  UD1502      0.1834
      6  C6'       11.9320   19.8730   20.8600 C.3   502  UD1502      0.2142
      7  C7'       12.4360   26.2170   18.8160 C.2   502  UD1502      0.2420
      8  C8'       11.8370   27.4450   18.1950 C.3   502  UD1502      0.0964
      9  N2'       11.6110   25.1840   18.9620 N.am  502  UD1502     -0.1992
     10  O1'       10.4240   23.6700   21.0210 O.3   502  UD1502     -0.2864
     11  O3'       11.9190   22.9920   17.0590 O.3   502  UD1502     -0.2183
     12  O4'       10.9890   20.4620   18.1570 O.3   502  UD1502     -0.2176
     13  O5'       12.2680   22.2490   21.0830 O.3   502  UD1502     -0.3260
     14  O6'       11.9680   19.8640   22.2910 O.3   502  UD1502     -0.2176
     15  O7'       13.6040   26.1690   19.1640 O.2   502  UD1502     -0.2733
     16  N1        15.0210   28.6360   26.1110 N.am  502  UD1502     -0.1766
     17  C2        15.7850   29.7630   26.4780 C.1   502  UD1502      0.2845
     18  N3        15.3910   30.9910   26.1200 N.2   502  UD1502     -0.2452
     19  C4        14.2700   31.1680   25.4110 C.1   502  UD1502      0.2182
     20  C5        13.4990   30.0740   25.0370 C.2   502  UD1502      0.1242
     21  C6        13.8990   28.7950   25.4030 C.2   502  UD1502      0.0929
     22  O2        16.8350   29.6140   27.1400 O.2   502  UD1502     -0.1918
     23  O4        13.9160   32.3220   25.0850 O.2   502  UD1502     -0.2085
     24  C1B       15.4560   27.2940   26.5050 C.3   502  UD1502      0.2401
     25  C2B       14.4430   26.6940   27.4700 C.3   502  UD1502      0.2319
     26  O2'       15.0970   26.3470   28.6950 O.3   502  UD1502     -0.2157
     27  C3B       13.9160   25.4350   26.8030 C.3   502  UD1502      0.2158
     28  C4B       14.6330   25.3300   25.4640 C.3   502  UD1502      0.1799
     29  O4B       15.5130   26.4520   25.3500 O.3   502  UD1502     -0.3320
     30  O3B       14.2400   24.2970   27.6090 O.3   502  UD1502     -0.2175
     31  C5B       13.6390   25.3430   24.3090 C.3   502  UD1502      0.1813
     32  O5B       12.5060   26.1320   24.6660 O.3   502  UD1502     -0.3112
     33  PA        11.0190   25.5240   24.5550 P.3   502  UD1502      0.2189
     34  O1A       10.0340   26.6300   24.8480 O.2   502  UD1502     -0.5170
     35  O2A       10.9720   24.2420   25.3510 O.3   502  UD1502     -0.4371
     36  O3A       10.9070   25.1510   22.9930 O.3   502  UD1502     -0.2703
     37  PB         9.8790   24.0160   22.4950 P.3   502  UD1502      0.2208
     38  O1B       10.0650   22.7960   23.3660 O.3   502  UD1502     -0.4371
     39  O2B        8.5130   24.6430   22.3590 O.2   502  UD1502     -0.5170
@<TRIPOS>BOND
     1    11     3    1
     2    12     4    1
     3     8     7    1
     4     3     4    1
     5     3     2    1
     6     7     9   am
     7     7    15    2
     8     4     5    1
     9     9     2    1
    10     2     1    1
    11     5     6    1
    12     5    13    1
    13     1    10    1
    14     1    13    1
    15     6    14    1
    16    10    37    1
    17    39    37    2
    18    37    36    1
    19    37    38    1
    20    36    33    1
    21    31    32    1
    22    31    28    1
    23    33    32    1
    24    33    34    2
    25    33    35    1
    26    20    21    2
    27    20    19    1
    28    23    19    2
    29    29    28    1
    30    29    24    1
    31    21    16    1
    32    19    18    2
    33    28    27    1
    34    16    17   am
    35    16    24    1
    36    18    17    2
    37    17    22    2
    38    24    25    1
    39    27    25    1
    40    27    30    1
    41    25    26    1
