@<TRIPOS>MOLECULE
3st8_COA_A_1.pdb
 48 50 0 0 0
SMALL
GASTEIGER

@<TRIPOS>ATOM
      1  N1A        3.7250   -6.9210   86.8000 N.2   498  COA498      0.0021
      2  C2A        3.8330   -6.7070   88.1130 C.3   498  COA498      0.5254
      3  N3A        4.2860   -7.6130   88.9610 N.2   498  COA498     -0.0055
      4  C4A        4.6030   -8.8300   88.4840 C.2   498  COA498      0.3518
      5  C5A        4.4770   -9.1010   87.1350 C.2   498  COA498      0.2526
      6  C6A        4.0410   -8.0900   86.2650 C.2   498  COA498      0.4393
      7  N6A        3.9410   -8.3240   84.9150 N.pl3 498  COA498      0.2180
      8  N7A        4.8770  -10.3760   86.9390 N.2   498  COA498     -0.2095
      9  C8A        5.3250  -10.8590   88.1600 C.3   498  COA498      0.3377
     10  N9A        5.1060   -9.9130   89.0830 N.pl3 498  COA498     -0.1439
     11  C1B        5.4890   -9.9610   90.5070 C.3   498  COA498      0.3185
     12  C2B        4.9400  -11.2610   91.1320 C.3   498  COA498      0.2543
     13  O2B        3.7970  -10.7170   91.8010 O.3   498  COA498     -0.2131
     14  C3B        6.1000  -11.6350   92.0980 C.3   498  COA498      0.1928
     15  O3B        6.0920  -10.6800   93.1630 O.3   498  COA498     -0.2673
     16  P3B        5.7390  -11.1440   94.7420 P.3   498  COA498      0.5327
     17  O7A        6.8240  -12.2260   94.8800 O.3   498  COA498     -0.1145
     18  O8A        5.6140   -9.8030   95.5330 O.3   498  COA498     -0.1145
     19  O9A        4.2750  -11.6200   94.7120 O.2   498  COA498     -0.2224
     20  C4B        7.3620  -11.2680   91.3930 C.3   498  COA498      0.1795
     21  O4B        6.9150  -10.2860   90.3380 O.3   498  COA498     -0.3136
     22  C5B        8.0490  -12.5590   90.9320 C.3   498  COA498      0.1812
     23  O5B        7.0780  -12.9250   89.9850 O.3   498  COA498     -0.3112
     24  P1A        6.9400  -14.4860   89.8820 P.3   498  COA498      0.2189
     25  O1A        6.3430  -15.3250   90.9160 O.3   498  COA498     -0.4371
     26  O2A        8.4440  -14.7120   90.0490 O.2   498  COA498     -0.5170
     27  O3A        6.1180  -14.8750   88.5310 O.3   498  COA498     -0.2703
     28  P2A        7.1240  -15.4850   87.4640 P.3   498  COA498      0.2188
     29  O4A        6.6310  -16.7140   86.7650 O.2   498  COA498     -0.5170
     30  O5A        8.3940  -15.6030   88.2570 O.3   498  COA498     -0.4371
     31  O6A        7.2760  -14.3360   86.3210 O.3   498  COA498     -0.3138
     32  CBP        6.6570  -13.0300   84.4910 C.3   498  COA498      0.0645
     33  CCP        6.1560  -13.9840   85.6180 C.3   498  COA498      0.1519
     34  CDP        7.3800  -11.7970   84.9470 C.3   498  COA498      0.0056
     35  CEP        7.4990  -13.8220   83.5050 C.3   498  COA498      0.0056
     36  CAP        5.3160  -12.7010   83.8670 C.3   498  COA498      0.2312
     37  OAP        4.3930  -12.2150   84.9180 O.3   498  COA498     -0.2131
     38  C9P        5.4030  -11.5830   82.8210 C.2   498  COA498      0.2719
     39  O9P        5.2180  -10.4120   83.1870 O.2   498  COA498     -0.2706
     40  N8P        5.5810  -11.9930   81.5470 N.am  498  COA498     -0.2028
     41  C7P        5.7020  -11.0800   80.3920 C.3   498  COA498      0.1248
     42  C6P        6.2790  -11.8310   79.2140 C.3   498  COA498      0.1102
     43  C5P        6.1710  -10.8570   78.0250 C.2   498  COA498      0.2432
     44  O5P        5.5880   -9.7350   78.1730 O.2   498  COA498     -0.2733
     45  N4P        6.6490  -11.2220   76.8500 N.am  498  COA498     -0.2044
     46  C3P        6.6330  -10.4400   75.5890 C.3   498  COA498      0.1276
     47  C2P        5.3930  -10.8890   74.7510 C.3   498  COA498      0.0920
     48  S1P        5.3890   -9.9250   73.1620 S.3   498  COA498     -0.0802
@<TRIPOS>BOND
     1    48    47    1
     2    47    46    1
     3    46    45    1
     4    45    43   am
     5    43    44    2
     6    43    42    1
     7    42    41    1
     8    41    40    1
     9    40    38   am
    10    38    39    2
    11    38    36    1
    12    35    32    1
    13    36    32    1
    14    36    37    1
    15    32    34    1
    16    32    33    1
    17     7     6    1
    18    33    31    1
    19     6     1    2
    20     6     5    1
    21    31    28    1
    22    29    28    2
    23     1     2    1
    24     8     5    2
    25     8     9    1
    26     5     4    1
    27    28    30    1
    28    28    27    1
    29     2     3    1
    30     9    10    1
    31     4     3    2
    32     4    10    1
    33    27    24    1
    34    10    11    1
    35    24    23    1
    36    24    26    2
    37    24    25    1
    38    23    22    1
    39    21    11    1
    40    21    20    1
    41    11    12    1
    42    22    20    1
    43    12    13    1
    44    12    14    1
    45    20    14    1
    46    14    15    1
    47    15    16    1
    48    19    16    2
    49    16    17    1
    50    16    18    1
