@<TRIPOS>MOLECULE
3st8_GP1_A_1.pdb
 16 16 0 0 0
SMALL
GASTEIGER

@<TRIPOS>ATOM
      1  C1B        6.1340  -14.0810   70.2200 C.3   499  GP1499      0.2651
      2  C2B        6.2690  -12.8230   71.0870 C.3   499  GP1499      0.1812
      3  C3B        7.4630  -11.9410   70.5810 C.3   499  GP1499      0.2071
      4  C4B        8.7590  -12.7580   70.2410 C.3   499  GP1499      0.2133
      5  C5B        8.5650  -14.2010   69.6120 C.3   499  GP1499      0.1834
      6  C6B        9.8480  -15.1170   69.5870 C.3   499  GP1499      0.2142
      7  N2B        4.9010  -12.2060   71.0650 N.3   499  GP1499     -0.1247
      8  O1B        5.7550  -13.6730   68.8810 O.3   499  GP1499     -0.2428
      9  O3B        7.8000  -10.9880   71.6520 O.3   499  GP1499     -0.2186
     10  O4B        9.6670  -12.0260   69.4360 O.3   499  GP1499     -0.2176
     11  O5B        9.5150  -16.2900   68.7910 O.3   499  GP1499     -0.2176
     12  O6B        7.3730  -14.8750   70.2070 O.3   499  GP1499     -0.3261
     13  O7B        3.7410  -14.2090   67.2930 O.3   499  GP1499     -0.1145
     14  P4B        5.0760  -14.8200   67.8850 P.3   499  GP1499      0.5345
     15  O8B        4.8780  -16.1690   68.6990 O.3   499  GP1499     -0.1145
     16  O9B        6.0120  -15.0650   66.7200 O.2   499  GP1499     -0.2223
@<TRIPOS>BOND
     1    16    14    2
     2    13    14    1
     3    14    15    1
     4    14     8    1
     5    11     6    1
     6     8     1    1
     7    10     4    1
     8     6     5    1
     9     5    12    1
    10     5     4    1
    11    12     1    1
    12     1     2    1
    13     4     3    1
    14     3     2    1
    15     3     9    1
    16     7     2    1
