@<TRIPOS>MOLECULE
3sth_NAD_A_1.pdb
 44 48 0 0 0
SMALL
GASTEIGER

@<TRIPOS>ATOM
      1  PA        35.4910   27.3700   54.0440 P.3   380  NAD380      0.2189
      2  O1A       34.2430   28.0390   54.5550 O.3   380  NAD380     -0.4371
      3  O2A       35.4070   26.4430   52.8740 O.2   380  NAD380     -0.5170
      4  O5B       36.1750   26.4900   55.2150 O.3   380  NAD380     -0.3112
      5  C5B       36.0770   26.8630   56.5730 C.3   380  NAD380      0.1813
      6  C4B       35.9670   25.5760   57.3510 C.3   380  NAD380      0.1821
      7  O4B       36.2500   25.8720   58.7270 O.3   380  NAD380     -0.3135
      8  C3B       34.5650   24.9790   57.2840 C.3   380  NAD380      0.2184
      9  O3B       34.6280   23.5850   56.9410 O.3   380  NAD380     -0.2174
     10  C2B       34.0000   25.1540   58.6850 C.3   380  NAD380      0.2570
     11  O2B       33.1170   24.0890   59.0770 O.3   380  NAD380     -0.2130
     12  C1B       35.2740   25.1930   59.5320 C.3   380  NAD380      0.3186
     13  N9A       35.1300   25.8430   60.8550 N.pl3 380  NAD380     -0.1439
     14  C8A       34.2950   26.8270   61.2060 C.3   380  NAD380      0.3377
     15  N7A       34.4860   27.1250   62.5100 N.2   380  NAD380     -0.2095
     16  C5A       35.4550   26.3150   62.9810 C.2   380  NAD380      0.2526
     17  C6A       36.0490   26.1630   64.2260 C.2   380  NAD380      0.4393
     18  N6A       35.6620   26.9540   65.2590 N.pl3 380  NAD380      0.2180
     19  N1A       37.0130   25.2240   64.3920 N.2   380  NAD380      0.0021
     20  C2A       37.3930   24.4600   63.3540 C.3   380  NAD380      0.5254
     21  N3A       36.8220   24.5800   62.1360 N.2   380  NAD380     -0.0055
     22  C4A       35.8530   25.5020   61.9300 C.2   380  NAD380      0.3518
     23  O3        36.5660   28.5460   53.7650 O.3   380  NAD380     -0.2703
     24  PN        37.8920   28.3750   52.8370 P.3   380  NAD380      0.2189
     25  O1N       38.5090   27.0130   53.0750 O.3   380  NAD380     -0.4371
     26  O2N       37.6180   28.8850   51.4380 O.2   380  NAD380     -0.5170
     27  O5D       38.8550   29.4600   53.5450 O.3   380  NAD380     -0.3112
     28  C5D       39.5040   29.2370   54.7990 C.3   380  NAD380      0.1813
     29  C4D       40.4660   30.4000   55.0560 C.3   380  NAD380      0.1799
     30  O4D       41.4540   30.4400   54.0220 O.3   380  NAD380     -0.3327
     31  C3D       39.8240   31.7830   55.0100 C.3   380  NAD380      0.2158
     32  O3D       40.5930   32.6350   55.8550 O.3   380  NAD380     -0.2175
     33  C2D       39.9710   32.2280   53.5600 C.3   380  NAD380      0.2309
     34  O2D       39.9890   33.6450   53.3020 O.3   380  NAD380     -0.2158
     35  C1D       41.3580   31.6660   53.2700 C.3   380  NAD380      0.2263
     36  N1N       41.6490   31.4580   51.8520 N.pl3 380  NAD380     -0.2787
     37  C2N       40.7040   30.9910   50.9950 C.3   380  NAD380      0.1244
     38  C3N       41.0110   30.7910   49.6550 C.2   380  NAD380      0.0544
     39  C7N       39.9750   30.2800   48.6970 C.2   380  NAD380      0.2818
     40  O7N       38.9080   29.5370   49.0920 O.2   380  NAD380     -0.2670
     41  N7N       40.1300   30.6190   47.4270 N.am  380  NAD380     -0.0839
     42  C4N       42.2940   31.0750   49.2060 C.2   380  NAD380      0.0033
     43  C5N       43.2490   31.5490   50.0970 C.2   380  NAD380      0.0157
     44  C6N       42.8960   31.7370   51.4230 C.2   380  NAD380      0.0633
@<TRIPOS>BOND
     1    41    39   am
     2    39    40    2
     3    39    38    1
     4    42    38    2
     5    42    43    1
     6    38    37    1
     7    43    44    2
     8    37    36    1
     9    44    36    1
    10    26    24    2
    11    36    35    1
    12    24    25    1
    13    24    27    1
    14    24    23    1
    15     3     1    2
    16    35    33    1
    17    35    30    1
    18    34    33    1
    19    27    28    1
    20    33    31    1
    21    23     1    1
    22    30    29    1
    23     1     2    1
    24     1     4    1
    25    28    29    1
    26    31    29    1
    27    31    32    1
    28     4     5    1
    29     5     6    1
    30     9     8    1
    31     8     6    1
    32     8    10    1
    33     6     7    1
    34    10    11    1
    35    10    12    1
    36     7    12    1
    37    12    13    1
    38    13    14    1
    39    13    22    1
    40    14    15    1
    41    22    21    2
    42    22    16    1
    43    21    20    1
    44    15    16    2
    45    16    17    1
    46    20    19    1
    47    17    19    2
    48    17    18    1
