@<TRIPOS>MOLECULE
3stj_III_M_1.pdb
 25 24 0 0 0
SMALL
GASTEIGER

@<TRIPOS>ATOM
      1  N        -46.6580   88.8420  -25.3080 N.3   401  UNK401     -0.1231
      2  CA       -45.8130   89.8950  -24.7440 C.3   401  UNK401      0.1694
      3  C        -44.3490   89.4210  -24.5050 C.2   401  UNK401      0.2592
      4  O        -44.0950   88.2140  -24.3860 O.2   401  UNK401     -0.2718
      5  CB       -46.4150   90.4040  -23.4390 C.3   401  UNK401      0.0304
      6  N        -43.3990   90.3890  -24.4260 N.am  402  UNK402     -0.1966
      7  CA       -41.9730   90.1400  -24.2010 C.3   402  UNK402      0.1728
      8  C        -41.6820   89.8110  -22.7420 C.2   402  UNK402      0.2616
      9  O        -41.9910   90.6040  -21.8450 O.2   402  UNK402     -0.2715
     10  CB       -41.1440   91.3460  -24.6280 C.3   402  UNK402      0.0334
     11  N        -41.0750   88.6430  -22.5130 N.am  403  UNK403     -0.1963
     12  CA       -40.6890   88.2140  -21.1750 C.3   403  UNK403      0.1728
     13  C        -39.2010   88.4730  -20.9600 C.2   403  UNK403      0.2616
     14  O        -38.4300   88.4450  -21.9210 O.2   403  UNK403     -0.2715
     15  CB       -41.0110   86.7360  -20.9800 C.3   403  UNK403      0.0334
     16  N        -38.8030   88.7400  -19.7070 N.am  404  UNK404     -0.1963
     17  CA       -37.4040   88.9610  -19.3680 C.3   404  UNK404      0.1728
     18  C        -36.6480   87.6200  -19.2770 C.2   404  UNK404      0.2616
     19  O        -37.1810   86.6330  -18.7650 O.2   404  UNK404     -0.2715
     20  CB       -37.2870   89.7280  -18.0600 C.3   404  UNK404      0.0334
     21  N        -35.4230   87.5900  -19.8140 N.am  405  UNK405     -0.1977
     22  CA       -34.5170   86.4410  -19.8090 C.3   405  UNK405      0.1597
     23  C        -33.1040   86.9180  -19.5140 C.2   405  UNK405      0.2287
     24  O        -32.3220   86.1240  -18.9610 O.2   405  UNK405     -0.2864
     25  CB       -34.5600   85.6990  -21.1430 C.3   405  UNK405      0.0319
@<TRIPOS>BOND
     1     1     2    1
     2     2     3    1
     3     2     5    1
     4    10     7    1
     5     3     6   am
     6     3     4    2
     7     6     7    1
     8     7     8    1
     9     8    11   am
    10     8     9    2
    11    11    12    1
    12    14    13    2
    13    12    15    1
    14    12    13    1
    15    25    22    1
    16    13    16   am
    17    21    22    1
    18    21    18   am
    19    22    23    1
    20    16    17    1
    21    23    24    2
    22    17    18    1
    23    17    20    1
    24    18    19    2
