@<TRIPOS>MOLECULE
3stk_PLM_A_1.pdb
 18 17 0 0 0
SMALL
GASTEIGER

@<TRIPOS>ATOM
      1  C1        -7.1450   -4.8040   16.2910 C.2   130  PLM130      0.3649
      2  O1        -8.0270   -4.7920   17.1780 O.co2 130  PLM130     -0.2457
      3  O2        -5.9420   -4.6260   16.6130 O.co2 130  PLM130     -0.2457
      4  C2        -7.5330   -5.0410   14.8520 C.3   130  PLM130      0.1141
      5  C3        -6.4630   -5.8870   14.1690 C.3   130  PLM130      0.0118
      6  C4        -6.7820   -6.0370   12.6900 C.3   130  PLM130      0.0006
      7  C5        -5.9070   -7.0820   12.0140 C.3   130  PLM130      0.0000
      8  C6        -6.6580   -7.7170   10.8470 C.3   130  PLM130      0.0000
      9  C7        -6.4780   -9.2270   10.8520 C.3   130  PLM130      0.0000
     10  C8        -7.8150   -9.9490   10.7570 C.3   130  PLM130      0.0000
     11  C9        -7.6230  -11.4190   10.4170 C.3   130  PLM130      0.0000
     12  CA        -6.8630  -12.1540   11.5150 C.3   130  PLM130      0.0000
     13  CB        -7.7310  -12.3620   12.7520 C.3   130  PLM130      0.0000
     14  CC        -6.9720  -12.1730   14.0660 C.3   130  PLM130      0.0000
     15  CD        -5.6490  -12.9290   14.1240 C.3   130  PLM130      0.0000
     16  CE        -5.1370  -13.0250   15.5600 C.3   130  PLM130      0.0000
     17  CF        -3.7710  -12.3640   15.7170 C.3   130  PLM130      0.0000
     18  CG        -3.2910  -12.3580   17.1630 C.3   130  PLM130      0.0000
@<TRIPOS>BOND
     1    11    10    1
     2    11    12    1
     3    10     9    1
     4     8     9    1
     5     8     7    1
     6    12    13    1
     7     7     6    1
     8     6     5    1
     9    13    14    1
    10    14    15    1
    11    15    16    1
    12     5     4    1
    13     4     1    1
    14    16    17    1
    15    17    18    1
    16     1     3   ar
    17     1     2   ar
