@<TRIPOS>MOLECULE
3stm_PLM_X_1.pdb
 18 17 0 0 0
SMALL
GASTEIGER

@<TRIPOS>ATOM
      1  C1         6.9240   -4.8330  -16.1690 C.2   130  PLM130      0.3649
      2  O1         7.8580   -5.1080  -16.9660 O.co2 130  PLM130     -0.2457
      3  O2         5.7310   -4.7840  -16.5780 O.co2 130  PLM130     -0.2457
      4  C2         7.2270   -4.5700  -14.7120 C.3   130  PLM130      0.1141
      5  C3         6.3140   -5.4370  -13.8470 C.3   130  PLM130      0.0118
      6  C4         7.1200   -6.0360  -12.6970 C.3   130  PLM130      0.0006
      7  C5         6.7280   -7.4760  -12.3930 C.3   130  PLM130      0.0000
      8  C6         6.1090   -7.5890  -10.9980 C.3   130  PLM130      0.0000
      9  C7         6.6940   -8.7800  -10.2430 C.3   130  PLM130      0.0000
     10  C8         7.1120   -9.8780  -11.2150 C.3   130  PLM130      0.0000
     11  C9         7.6880  -11.0980  -10.5030 C.3   130  PLM130      0.0000
     12  CA         7.2380  -12.3390  -11.2610 C.3   130  PLM130      0.0000
     13  CB         7.5380  -12.1910  -12.7500 C.3   130  PLM130      0.0000
     14  CC         6.5940  -13.0300  -13.6120 C.3   130  PLM130      0.0000
     15  CD         5.9600  -12.1730  -14.7090 C.3   130  PLM130      0.0000
     16  CE         4.6180  -12.7320  -15.1810 C.3   130  PLM130      0.0000
     17  CF         4.3930  -12.4380  -16.6630 C.3   130  PLM130      0.0000
     18  CG         2.9410  -12.0690  -16.9640 C.3   130  PLM130      0.0000
@<TRIPOS>BOND
     1     2     1   ar
     2    18    17    1
     3    17    16    1
     4     3     1   ar
     5     1     4    1
     6    16    15    1
     7     4     5    1
     8    15    14    1
     9     5     6    1
    10    14    13    1
    11    13    12    1
    12     6     7    1
    13     7     8    1
    14    12    11    1
    15    10    11    1
    16    10     9    1
    17     8     9    1
