@<TRIPOS>MOLECULE
3str_3LI_P_1.pdb
 44 48 0 0 0
SMALL
GASTEIGER

@<TRIPOS>ATOM
      1  C01       27.2360  -12.8080    9.5350 C.3   209  3LI209      0.1388
      2  N02       25.8260  -12.5320    9.5980 N.am  209  3LI209     -0.1997
      3  C03       25.1710  -12.1040    8.4800 C.2   209  3LI209      0.2661
      4  O04       25.6580  -11.9330    7.3720 O.2   209  3LI209     -0.2683
      5  C05       23.7500  -11.8630    8.6930 C.ar  209  3LI209      0.0708
      6  C06       22.8800  -12.9130    8.5250 C.ar  209  3LI209      0.0059
      7  C07       21.5410  -12.6890    8.7220 C.ar  209  3LI209     -0.0001
      8  C08       21.1000  -11.4380    9.0820 C.ar  209  3LI209     -0.0029
      9  C09       21.9870  -10.3980    9.2420 C.ar  209  3LI209     -0.0056
     10  C10       21.4810   -9.0550    9.6330 C.3   209  3LI209      0.0324
     11  C11       23.3300  -10.6040    9.0440 C.ar  209  3LI209      0.0840
     12  N12       24.2500   -9.5650    9.2130 N.pl3 209  3LI209     -0.1244
     13  C13       24.3350   -8.4930    8.3220 C.1   209  3LI209      0.2463
     14  N14       25.2440   -7.5480    8.5800 N.2   209  3LI209     -0.2448
     15  C15       25.3030   -6.5330    7.7120 C.1   209  3LI209      0.2260
     16  N16       24.5100   -6.4590    6.6460 N.2   209  3LI209     -0.2463
     17  C17       23.6250   -7.4440    6.4620 C.1   209  3LI209      0.2250
     18  N18       23.5080   -8.4870    7.2810 N.2   209  3LI209     -0.2448
     19  N19       22.7870   -7.4030    5.3380 N.pl3 209  3LI209     -0.2295
     20  C20       21.6050   -8.2240    5.4430 C.3   209  3LI209      0.1246
     21  C21       21.0690   -8.4000    4.0390 C.3   209  3LI209      0.1131
     22  N22       20.8710   -7.0920    3.4390 N.pl3 209  3LI209     -0.3034
     23  C23       22.0690   -6.2810    3.3660 C.3   209  3LI209      0.1131
     24  C24       22.5970   -6.0840    4.7740 C.3   209  3LI209      0.1246
     25  C25       20.3020   -7.2590    2.1660 C.ar  209  3LI209      0.0586
     26  C26       20.6040   -8.3610    1.4010 C.ar  209  3LI209      0.0154
     27  C27       20.0410   -8.5240    0.1570 C.ar  209  3LI209      0.0013
     28  C28       19.1620   -7.5890   -0.3340 C.ar  209  3LI209      0.0009
     29  C29       18.8490   -6.4880    0.4230 C.ar  209  3LI209      0.0126
     30  C30       19.4220   -6.3330    1.6620 C.ar  209  3LI209      0.0709
     31 CL31       19.0160   -4.9490    2.5940 Cl    209  3LI209     -0.0810
     32  N32       26.2500   -5.5100    7.9230 N.pl3 209  3LI209     -0.2143
     33  C33       26.6120   -5.4410    9.3240 C.3   209  3LI209      0.1617
     34  S34       26.3900   -3.7440    9.9060 S.3   209  3LI209     -0.1157
     35  C35       26.3250   -3.1050    8.2140 C.3   209  3LI209      0.0891
     36  C36       25.7640   -4.2440    7.3790 C.3   209  3LI209      0.1736
     37  C37       26.2760   -4.0570    5.9830 C.2   209  3LI209      0.2614
     38  O38       25.6570   -3.4030    5.1590 O.2   209  3LI209     -0.2715
     39  N39       27.4800   -4.6640    5.7280 N.am  209  3LI209     -0.1970
     40  C40       28.0630   -4.4310    4.4280 C.3   209  3LI209      0.1659
     41  C41       29.3640   -3.7290    4.6520 C.2   209  3LI209      0.1088
     42  O42       30.4300   -4.3200    4.7120 O.2   209  3LI209     -0.5379
     43  N43       29.2430   -2.3720    4.7880 N.am  209  3LI209     -0.2012
     44  O44       30.5010   -1.8280    5.1470 O.3   209  3LI209     -0.4026
@<TRIPOS>BOND
     1    28    27   ar
     2    28    29   ar
     3    27    26   ar
     4    29    30   ar
     5    26    25   ar
     6    30    25   ar
     7    30    31    1
     8    25    22    1
     9    23    22    1
    10    23    24    1
    11    22    21    1
    12    21    20    1
    13    40    41    1
    14    40    39    1
    15    41    42    2
    16    41    43   am
    17    24    19    1
    18    43    44    1
    19    38    37    2
    20    19    20    1
    21    19    17    1
    22    39    37   am
    23    37    36    1
    24    17    16    2
    25    17    18    2
    26    16    15    2
    27    18    13    2
    28     4     3    2
    29    36    32    1
    30    36    35    1
    31    15    32    1
    32    15    14    2
    33    32    33    1
    34    35    34    1
    35    13    14    2
    36    13    12    1
    37     3     5    1
    38     3     2   am
    39     6     5   ar
    40     6     7   ar
    41     5    11   ar
    42     7     8   ar
    43    11    12    1
    44    11     9   ar
    45     8     9   ar
    46     9    10    1
    47    33    34    1
    48     1     2    1
