@<TRIPOS>MOLECULE
3stu_DK3_B_1.pdb
 16 15 0 0 0
SMALL
GASTEIGER

@<TRIPOS>ATOM
      1  C12      -31.4340   -0.5480   12.3300 C.3   266  DK3266      0.0000
      2  C13      -36.0780   -6.0190    0.9950 C.3   266  DK3266      0.2556
      3  C11      -30.9990   -0.3380   10.8950 C.3   266  DK3266      0.0000
      4  O3       -38.5990   -4.6770    6.2000 O.3   266  DK3266     -0.2225
      5  C3       -37.8410   -4.0090    5.1820 C.3   266  DK3266      0.1631
      6  C2       -37.0270   -5.0410    4.3950 C.3   266  DK3266      0.1423
      7  C1       -37.1350   -4.7610    2.9170 C.2   266  DK3266      0.3197
      8  O1       -37.1200   -5.8650    1.9600 O.3   266  DK3266     -0.4443
      9  O2       -37.2490   -3.6130    2.5230 O.2   266  DK3266     -0.2500
     10  C4       -36.9750   -2.8970    5.7960 C.3   266  DK3266      0.0335
     11  C5       -35.5290   -3.2920    6.0980 C.3   266  DK3266      0.0026
     12  C6       -35.0670   -2.7520    7.4470 C.3   266  DK3266      0.0001
     13  C7       -33.6200   -3.1520    7.7280 C.3   266  DK3266      0.0000
     14  C8       -33.1720   -2.6960    9.1140 C.3   266  DK3266      0.0000
     15  C9       -32.2010   -1.5210    9.0330 C.3   266  DK3266      0.0000
     16  C10      -31.1110   -1.6300   10.0930 C.3   266  DK3266      0.0000
@<TRIPOS>BOND
     1     2     8    1
     2     8     7    1
     3     9     7    2
     4     7     6    1
     5     6     5    1
     6     5    10    1
     7     5     4    1
     8    10    11    1
     9    11    12    1
    10    12    13    1
    11    13    14    1
    12    15    14    1
    13    15    16    1
    14    16     3    1
    15     3     1    1
