@<TRIPOS>MOLECULE
3stv_3HO_A_1.pdb
 11 10 0 0 0
SMALL
GASTEIGER

@<TRIPOS>ATOM
      1  O1        15.9870   -4.5940    1.1780 O.co2 301  3HO301     -0.2456
      2  C1        16.2830   -5.8000    1.2050 C.2   301  3HO301      0.3674
      3  O2        15.8600   -6.5800    2.0810 O.co2 301  3HO301     -0.2456
      4  C2        17.1820   -6.3340    0.1260 C.3   301  3HO301      0.1468
      5  C3        18.6000   -6.5460    0.6540 C.3   301  3HO301      0.1633
      6  O3        19.2200   -7.5950   -0.1130 O.3   301  3HO301     -0.2225
      7  C4        19.4050   -5.2490    0.5240 C.3   301  3HO301      0.0335
      8  C5        20.8550   -5.4320    0.9480 C.3   301  3HO301      0.0026
      9  C6        21.6130   -4.1220    0.8460 C.3   301  3HO301      0.0001
     10  C7        23.0830   -4.3220    1.1620 C.3   301  3HO301      0.0000
     11  C8        23.8430   -3.0300    0.9630 C.3   301  3HO301      0.0000
@<TRIPOS>BOND
     1     6     5    1
     2     4     5    1
     3     4     2    1
     4     7     5    1
     5     7     8    1
     6     9     8    1
     7     9    10    1
     8    11    10    1
     9     1     2   ar
    10     2     3   ar
