@<TRIPOS>MOLECULE
3stw_2TD_A_1.pdb
 14 13 0 0 0
SMALL
GASTEIGER

@<TRIPOS>ATOM
      1  O1       -22.1640   -7.4060  -26.6600 O.2   266  2TD266     -0.2960
      2  C2       -21.3560   -6.5880  -26.7800 C.2   266  2TD266      0.1511
      3  C1       -21.2740   -5.6290  -25.6850 C.3   266  2TD266      0.0722
      4  C3       -20.4500   -6.5430  -27.9950 C.3   266  2TD266      0.0645
      5  C4       -19.0510   -7.1310  -27.7680 C.3   266  2TD266      0.0077
      6  C5       -17.9210   -6.1650  -28.0480 C.3   266  2TD266      0.0004
      7  C6       -17.2620   -5.5440  -26.8200 C.3   266  2TD266      0.0000
      8  C7       -16.1290   -4.5830  -27.2270 C.3   266  2TD266      0.0000
      9  C8       -14.8800   -4.5080  -26.3400 C.3   266  2TD266      0.0000
     10  C9       -13.5880   -4.8780  -27.0640 C.3   266  2TD266      0.0000
     11  C10      -12.3470   -4.7920  -26.1700 C.3   266  2TD266      0.0000
     12  C11      -11.1580   -5.6520  -26.6470 C.3   266  2TD266      0.0000
     13  C12      -10.3210   -4.9280  -27.7200 C.3   266  2TD266      0.0000
     14  C13       -8.9600   -5.5170  -28.1390 C.3   266  2TD266      0.0000
@<TRIPOS>BOND
     1    14    13    1
     2     6     5    1
     3     6     7    1
     4     4     5    1
     5     4     2    1
     6    13    12    1
     7     8     7    1
     8     8     9    1
     9    10     9    1
    10    10    11    1
    11     2     1    2
    12     2     3    1
    13    12    11    1
