@<TRIPOS>MOLECULE
3stx_BKA_A_1.pdb
 10 9 0 0 0
SMALL
GASTEIGER

@<TRIPOS>ATOM
      1  O3        18.0050   -7.6180   -0.1750 O.2   266  BKA266     -0.2955
      2  C3        18.2290   -6.4280   -0.0060 C.2   266  BKA266      0.1620
      3  C2        17.0920   -5.4480    0.2300 C.3   266  BKA266      0.1782
      4  C1        15.9380   -5.9450    1.0800 C.2   266  BKA266      0.3723
      5  O1        15.8350   -7.1600    1.3660 O.co2 266  BKA266     -0.2452
      6  O2        15.1090   -5.0870    1.4690 O.co2 266  BKA266     -0.2452
      7  C4        19.6630   -5.9280   -0.0880 C.3   266  BKA266      0.0651
      8  C5        20.1740   -5.2820    1.1990 C.3   266  BKA266      0.0078
      9  C6        21.2610   -4.2470    0.9140 C.3   266  BKA266      0.0004
     10  C7        22.6550   -4.7930    1.1520 C.3   266  BKA266      0.0000
@<TRIPOS>BOND
     1     1     2    2
     2     7     2    1
     3     7     8    1
     4     2     3    1
     5     3     4    1
     6     9    10    1
     7     9     8    1
     8     4     5   ar
     9     4     6   ar
