@<TRIPOS>MOLECULE
3stz_MTN_C_1.pdb
 12 12 0 0 0
SMALL
GASTEIGER

@<TRIPOS>ATOM
      1  O1       156.3000  149.3260  -21.2610 O.3   201  MTN201     -0.1175
      2  N1       156.2480  149.0540  -22.4550 N.4   201  MTN201     -0.1311
      3  C1       157.3190  148.2600  -23.1230 C.3   201  MTN201      0.0909
      4  C2       156.8270  148.1770  -24.6010 C.2   201  MTN201     -0.0160
      5  C3       155.6040  148.8380  -24.8050 C.2   201  MTN201     -0.0205
      6  C4       154.9620  148.8520  -26.2010 C.3   201  MTN201      0.0917
      7  S1       156.0780  149.1030  -27.5600 S.3   201  MTN201     -0.0773
      8  C5       155.1560  149.4450  -23.4300 C.3   201  MTN201      0.0886
      9  C6       155.0190  150.9730  -23.5890 C.3   201  MTN201      0.0227
     10  C7       153.7850  148.8560  -23.0390 C.3   201  MTN201      0.0227
     11  C8       157.4730  146.8560  -22.5540 C.3   201  MTN201      0.0230
     12  C9       158.6840  148.9300  -23.0830 C.3   201  MTN201      0.0230
@<TRIPOS>BOND
     1     7     6    1
     2     6     5    1
     3     5     4    2
     4     5     8    1
     5     4     3    1
     6     9     8    1
     7     8    10    1
     8     8     2    1
     9     3    12    1
    10     3    11    1
    11     3     2    1
    12     2     1    1
