@<TRIPOS>MOLECULE
3su8_GNP_A_1.pdb
 32 34 0 0 0
SMALL
GASTEIGER

@<TRIPOS>ATOM
      1  PG         4.8340  -45.3520  -31.0750 P.3   200  GNP200      0.4884
      2  O1G        4.8370  -46.8090  -30.9320 O.3   200  GNP200     -0.1240
      3  O2G        3.9210  -44.6900  -29.9220 O.3   200  GNP200     -0.1240
      4  O3G        6.3360  -44.8240  -30.9510 O.2   200  GNP200     -0.2331
      5  N3B        4.2340  -44.9650  -32.6030 N.3   200  GNP200     -0.0163
      6  PB         2.5950  -45.3780  -32.7250 P.3   200  GNP200      0.4669
      7  O1B        2.3700  -46.7800  -32.3120 O.2   200  GNP200     -0.2351
      8  O2B        1.7460  -44.4360  -31.7490 O.3   200  GNP200     -0.1253
      9  O3A        2.1470  -45.2580  -34.2830 O.3   200  GNP200     -0.2360
     10  PA         1.7890  -43.7570  -34.8030 P.3   200  GNP200      0.2220
     11  O1A        0.4310  -43.3990  -34.3440 O.2   200  GNP200     -0.5170
     12  O2A        2.8010  -42.6410  -34.2210 O.3   200  GNP200     -0.4370
     13  O5'        1.7440  -43.6780  -36.4260 O.3   200  GNP200     -0.3111
     14  C5'        2.6070  -44.6450  -37.0560 C.3   200  GNP200      0.1813
     15  C4'        2.8160  -44.4000  -38.5750 C.3   200  GNP200      0.1799
     16  O4'        1.9110  -45.1630  -39.4200 O.3   200  GNP200     -0.3326
     17  C3'        2.7150  -42.9250  -39.0340 C.3   200  GNP200      0.2158
     18  O3'        3.6250  -42.6770  -40.1120 O.3   200  GNP200     -0.2175
     19  C2'        1.2450  -42.8430  -39.4940 C.3   200  GNP200      0.2310
     20  O2'        1.0530  -41.7820  -40.4410 O.3   200  GNP200     -0.2158
     21  C1'        0.9540  -44.2670  -40.0550 C.3   200  GNP200      0.2293
     22  N9        -0.4040  -44.7280  -39.7120 N.pl3 200  GNP200     -0.2354
     23  C8        -0.8770  -44.9310  -38.4440 C.3   200  GNP200      0.2246
     24  N7        -2.1160  -45.3470  -38.4610 N.2   200  GNP200     -0.2322
     25  C5        -2.5350  -45.4480  -39.7490 C.2   200  GNP200      0.2182
     26  C6        -3.7760  -45.8540  -40.3830 C.1   200  GNP200      0.2372
     27  O6        -4.7420  -46.2070  -39.7210 O.2   200  GNP200     -0.2069
     28  N1        -3.8390  -45.8400  -41.7580 N.2   200  GNP200     -0.2485
     29  C2        -2.7350  -45.4450  -42.5110 C.1   200  GNP200      0.2531
     30  N2        -2.8330  -45.4270  -43.8840 N.pl3 200  GNP200     -0.0226
     31  N3        -1.5790  -45.0710  -41.9320 N.2   200  GNP200     -0.3074
     32  C4        -1.4310  -45.0580  -40.5740 C.2   200  GNP200      0.2300
@<TRIPOS>BOND
     1    30    29    1
     2    29    31    2
     3    29    28    2
     4    31    32    2
     5    28    26    2
     6    32    25    1
     7    32    22    1
     8    20    19    1
     9    26    25    1
    10    26    27    2
    11    18    17    1
    12    21    22    1
    13    21    19    1
    14    21    16    1
    15    25    24    2
    16    22    23    1
    17    19    17    1
    18    16    15    1
    19    17    15    1
    20    15    14    1
    21    24    23    1
    22    14    13    1
    23    13    10    1
    24    10    11    2
    25    10     9    1
    26    10    12    1
    27     9     6    1
    28     6     5    1
    29     6     7    2
    30     6     8    1
    31     5     1    1
    32     1     4    2
    33     1     2    1
    34     1     3    1
