@<TRIPOS>MOLECULE
3su9_EPZ_A_1.pdb
 44 46 0 0 0
SMALL
GASTEIGER

@<TRIPOS>ATOM
      1  C1       -86.0200   -1.2430  124.0490 C.3   427  EPZ427      0.2632
      2  O1       -84.8890   -2.0780  123.9570 O.3   427  EPZ427     -0.2864
      3  C2       -85.9860   -0.2480  122.9010 C.3   427  EPZ427      0.1813
      4  N2       -85.9930   -0.9400  121.6230 N.am  427  EPZ427     -0.1994
      5  C3       -84.7110    0.5890  122.9740 C.3   427  EPZ427      0.1734
      6  O3       -84.6270    1.5010  121.9270 O.3   427  EPZ427     -0.3429
      7  C4       -84.7350    1.3310  124.3060 C.3   427  EPZ427      0.2103
      8  O4       -83.5820    2.1130  124.3980 O.3   427  EPZ427     -0.2178
      9  C5       -84.8060    0.2900  125.4200 C.3   427  EPZ427      0.1833
     10  O5       -85.9740   -0.5280  125.2870 O.3   427  EPZ427     -0.3260
     11  C6       -84.8030    1.0100  126.7640 C.3   427  EPZ427      0.2142
     12  O6       -85.9960    1.7490  126.8290 O.3   427  EPZ427     -0.2176
     13  C7       -87.1440   -1.1710  121.0010 C.2   427  EPZ427      0.2420
     14  O7       -88.2090   -0.8230  121.4670 O.2   427  EPZ427     -0.2733
     15  C8       -87.0890   -1.8730  119.6870 C.3   427  EPZ427      0.0964
     16  PA       -84.6850   -3.6860  127.4950 P.3   427  EPZ427      0.2189
     17  PB       -84.8950   -3.4610  124.6530 P.3   427  EPZ427      0.2208
     18  O1A      -84.9800   -5.0970  127.3370 O.2   427  EPZ427     -0.5170
     19  O1B      -86.1920   -4.0380  124.6730 O.3   427  EPZ427     -0.4371
     20  C1D      -80.9380   -6.0330  129.7500 C.3   427  EPZ427      0.2401
     21  C1E      -84.0390    1.1840  119.5860 C.2   427  EPZ427      0.3913
     22  O1E      -84.9550    1.9270  119.2470 O.co2 427  EPZ427     -0.2430
     23  N1U      -81.6240   -7.2390  129.2720 N.am  427  EPZ427     -0.1766
     24  O2A      -85.6020   -2.8520  128.2310 O.3   427  EPZ427     -0.4371
     25  O2B      -83.8940   -4.2030  123.9620 O.2   427  EPZ427     -0.5170
     26  C2D      -80.4370   -5.1700  128.6340 C.3   427  EPZ427      0.2319
     27  O2D      -79.0910   -5.4660  128.3810 O.3   427  EPZ427     -0.2157
     28  C2E      -83.5560    1.1990  121.0350 C.3   427  EPZ427      0.2178
     29  O2E      -83.5390    0.4290  118.7390 O.co2 427  EPZ427     -0.2430
     30  C2U      -81.0670   -8.4970  129.6250 C.1   427  EPZ427      0.2845
     31  O2U      -80.0510   -8.5440  130.3060 O.2   427  EPZ427     -0.1918
     32  O3A      -84.3760   -3.0730  126.0800 O.3   427  EPZ427     -0.2703
     33  C3D      -80.6450   -3.7680  129.1460 C.3   427  EPZ427      0.2158
     34  O3D      -79.4560   -3.4060  129.8660 O.3   427  EPZ427     -0.2175
     35  C3E      -82.4610    2.2370  121.2350 C.3   427  EPZ427      0.0444
     36  N3U      -81.6270   -9.6520  129.2250 N.2   427  EPZ427     -0.2452
     37  C4D      -81.8440   -3.8760  130.0660 C.3   427  EPZ427      0.1799
     38  O4D      -81.7730   -5.2030  130.5600 O.3   427  EPZ427     -0.3320
     39  C4U      -82.7460   -9.6260  128.4700 C.1   427  EPZ427      0.2182
     40  O4U      -83.2190  -10.6810  128.1130 O.2   427  EPZ427     -0.2085
     41  C5D      -83.1920   -3.9200  129.4430 C.3   427  EPZ427      0.1813
     42  O5D      -83.2880   -3.5450  128.1260 O.3   427  EPZ427     -0.3112
     43  C5U      -83.3240   -8.4140  128.1090 C.2   427  EPZ427      0.1242
     44  C6U      -82.7370   -7.2140  128.5260 C.2   427  EPZ427      0.0929
@<TRIPOS>BOND
     1    29    21   ar
     2    22    21   ar
     3    21    28    1
     4    15    13    1
     5    13    14    2
     6    13     4   am
     7    28    35    1
     8    28     6    1
     9     4     3    1
    10     6     5    1
    11     3     5    1
    12     3     1    1
    13     5     7    1
    14     2     1    1
    15     2    17    1
    16    25    17    2
    17     1    10    1
    18     7     8    1
    19     7     9    1
    20    17    19    1
    21    17    32    1
    22    10     9    1
    23     9    11    1
    24    32    16    1
    25    11    12    1
    26    18    16    2
    27    16    42    1
    28    16    24    1
    29    43    39    1
    30    43    44    2
    31    40    39    2
    32    42    41    1
    33    27    26    1
    34    39    36    2
    35    44    23    1
    36    26    33    1
    37    26    20    1
    38    33    34    1
    39    33    37    1
    40    36    30    2
    41    23    30   am
    42    23    20    1
    43    41    37    1
    44    30    31    2
    45    20    38    1
    46    37    38    1
