@<TRIPOS>MOLECULE
3sua_GNP_A_1.pdb
 32 34 0 0 0
SMALL
GASTEIGER

@<TRIPOS>ATOM
      1  PG       -52.6570   71.0800  -30.9740 P.3   200  GNP200      0.4884
      2  O1G      -53.4150   70.8530  -29.7490 O.3   200  GNP200     -0.1240
      3  O2G      -51.3500   71.9450  -30.6010 O.3   200  GNP200     -0.1240
      4  O3G      -52.3190   69.6530  -31.6330 O.2   200  GNP200     -0.2331
      5  N3B      -53.5710   71.8970  -32.1130 N.3   200  GNP200     -0.0163
      6  PB       -53.5850   73.5890  -32.0690 P.3   200  GNP200      0.4669
      7  O1B      -54.0310   74.1750  -30.8010 O.3   200  GNP200     -0.1253
      8  O2B      -52.1490   74.1710  -32.2190 O.2   200  GNP200     -0.2351
      9  O3A      -54.5920   73.9810  -33.2470 O.3   200  GNP200     -0.2360
     10  PA       -53.8600   74.0800  -34.6540 P.3   200  GNP200      0.2220
     11  O1A      -53.2250   75.3720  -34.5880 O.3   200  GNP200     -0.4370
     12  O2A      -52.7050   72.9880  -34.9610 O.2   200  GNP200     -0.5170
     13  O5'      -54.9020   74.0150  -35.8510 O.3   200  GNP200     -0.3111
     14  C5'      -56.1410   74.6150  -35.4580 C.3   200  GNP200      0.1813
     15  C4'      -57.3090   74.1430  -36.3590 C.3   200  GNP200      0.1799
     16  O4'      -58.3940   75.1090  -36.2990 O.3   200  GNP200     -0.3326
     17  C3'      -56.9220   74.0240  -37.8820 C.3   200  GNP200      0.2158
     18  O3'      -57.7590   73.1200  -38.6280 O.3   200  GNP200     -0.2175
     19  C2'      -57.1040   75.4760  -38.3620 C.3   200  GNP200      0.2310
     20  O2'      -57.5280   75.5070  -39.7360 O.3   200  GNP200     -0.2158
     21  C1'      -58.1320   76.1020  -37.3400 C.3   200  GNP200      0.2293
     22  N9       -57.8270   77.4830  -36.8040 N.pl3 200  GNP200     -0.2354
     23  C8       -56.8480   77.8860  -35.9140 C.3   200  GNP200      0.2246
     24  N7       -56.8770   79.1760  -35.6860 N.2   200  GNP200     -0.2322
     25  C5       -57.8960   79.7050  -36.4220 C.2   200  GNP200      0.2182
     26  C6       -58.4660   81.0240  -36.6130 C.1   200  GNP200      0.2372
     27  O6       -58.0400   81.9800  -36.0340 O.2   200  GNP200     -0.2069
     28  N1       -59.5170   81.2120  -37.4640 N.2   200  GNP200     -0.2485
     29  C2       -60.0570   80.1440  -38.1250 C.1   200  GNP200      0.2531
     30  N2       -61.1090   80.3620  -38.9710 N.pl3 200  GNP200     -0.0226
     31  N3       -59.5680   78.9040  -37.9640 N.2   200  GNP200     -0.3074
     32  C4       -58.5100   78.6340  -37.1340 C.2   200  GNP200      0.2300
@<TRIPOS>BOND
     1    20    19    1
     2    30    29    1
     3    18    17    1
     4    19    17    1
     5    19    21    1
     6    29    31    2
     7    29    28    2
     8    31    32    2
     9    17    15    1
    10    28    26    2
    11    21    22    1
    12    21    16    1
    13    32    22    1
    14    32    25    1
    15    22    23    1
    16    26    25    1
    17    26    27    2
    18    25    24    2
    19    15    16    1
    20    15    14    1
    21    23    24    1
    22    13    14    1
    23    13    10    1
    24    12    10    2
    25    10    11    1
    26    10     9    1
    27     9     6    1
    28     8     6    2
    29     5     6    1
    30     5     1    1
    31     6     7    1
    32     4     1    2
    33     1     3    1
    34     1     2    1
