@<TRIPOS>MOLECULE
3suc_ATP_A_1.pdb
 31 33 0 0 0
SMALL
GASTEIGER

@<TRIPOS>ATOM
      1  PG        41.7130  -48.8810  -15.8310 P.3   856  ATP856      0.5373
      2  O1G       42.1600  -47.9810  -14.7030 O.3   856  ATP856     -0.1143
      3  O2G       40.8290  -48.1980  -16.8490 O.2   856  ATP856     -0.2221
      4  O3G       42.8170  -49.7180  -16.4320 O.3   856  ATP856     -0.1143
      5  PB        39.6670  -50.8700  -15.8510 P.3   856  ATP856      0.2277
      6  O1B       40.1380  -51.1190  -17.2670 O.2   856  ATP856     -0.5168
      7  O2B       38.3090  -50.2470  -15.6160 O.3   856  ATP856     -0.4368
      8  O3B       40.7660  -49.9610  -15.0870 O.3   856  ATP856     -0.2258
      9  PA        41.0440  -53.1370  -14.8100 P.3   856  ATP856      0.2189
     10  O1A       41.9470  -53.0100  -16.0150 O.2   856  ATP856     -0.5170
     11  O2A       40.6370  -54.5130  -14.3330 O.3   856  ATP856     -0.4371
     12  O3A       39.6980  -52.2770  -15.0540 O.3   856  ATP856     -0.2700
     13  O5'       41.7300  -52.3480  -13.5820 O.3   856  ATP856     -0.3112
     14  C5'       42.7960  -52.9170  -12.8240 C.3   856  ATP856      0.1813
     15  C4'       42.6270  -52.5860  -11.3410 C.3   856  ATP856      0.1821
     16  O4'       41.3500  -51.9870  -11.0850 O.3   856  ATP856     -0.3135
     17  C3'       42.7220  -53.8490  -10.4990 C.3   856  ATP856      0.2184
     18  O3'       43.7910  -53.7160   -9.5550 O.3   856  ATP856     -0.2174
     19  C2'       41.3740  -53.9950   -9.8120 C.3   856  ATP856      0.2570
     20  O2'       41.5140  -54.1850   -8.4010 O.3   856  ATP856     -0.2130
     21  C1'       40.6110  -52.7090  -10.0940 C.3   856  ATP856      0.3186
     22  N9        39.2410  -53.0310  -10.5810 N.pl3 856  ATP856     -0.1439
     23  C8        38.9240  -53.4800  -11.8120 C.3   856  ATP856      0.3377
     24  N7        37.5870  -53.6810  -11.9390 N.2   856  ATP856     -0.2095
     25  C5        37.0170  -53.3570  -10.7650 C.2   856  ATP856      0.2526
     26  C6        35.6360  -53.3400  -10.2140 C.2   856  ATP856      0.4393
     27  N6        34.5750  -53.7170  -10.9680 N.pl3 856  ATP856      0.2180
     28  N1        35.4740  -52.9320   -8.9320 N.2   856  ATP856      0.0021
     29  C2        36.5220  -52.5520   -8.1700 C.3   856  ATP856      0.5254
     30  N3        37.7990  -52.5450   -8.6040 N.2   856  ATP856     -0.0055
     31  C4        38.1110  -52.9300   -9.8700 C.2   856  ATP856      0.3518
@<TRIPOS>BOND
     1     6     5    2
     2     3     1    2
     3     4     1    1
     4    10     9    2
     5     5     7    1
     6     5     8    1
     7     5    12    1
     8     1     8    1
     9     1     2    1
    10    12     9    1
    11     9    11    1
    12     9    13    1
    13    13    14    1
    14    14    15    1
    15    24    23    1
    16    24    25    2
    17    23    22    1
    18    15    16    1
    19    15    17    1
    20    16    21    1
    21    27    26    1
    22    25    26    1
    23    25    31    1
    24    22    21    1
    25    22    31    1
    26    17    19    1
    27    17    18    1
    28    26    28    2
    29    21    19    1
    30    31    30    2
    31    19    20    1
    32    28    29    1
    33    30    29    1
