@<TRIPOS>MOLECULE
3sun_TTP_A_1.pdb
 29 30 0 0 0
SMALL
GASTEIGER

@<TRIPOS>ATOM
      1  PA         2.8990  -15.8250   50.4090 P.3   896  TTP896      0.2189
      2  O1A        3.5700  -16.4880   49.2390 O.2   896  TTP896     -0.5170
      3  O2A        3.2660  -16.4710   51.7240 O.3   896  TTP896     -0.4371
      4  O3A        1.3180  -15.9090   50.1560 O.3   896  TTP896     -0.2700
      5  PB         0.2080  -15.4960   51.2320 P.3   896  TTP896      0.2277
      6  O1B       -0.4640  -14.2340   50.7600 O.2   896  TTP896     -0.5168
      7  O2B        0.7400  -15.3030   52.6370 O.3   896  TTP896     -0.4368
      8  O3B       -0.8390  -16.7070   51.1330 O.3   896  TTP896     -0.2258
      9  PG        -0.6290  -18.1310   51.8540 P.3   896  TTP896      0.5373
     10  O1G        0.6740  -18.1980   52.6120 O.3   896  TTP896     -0.1143
     11  O2G       -1.8040  -18.2910   52.7840 O.3   896  TTP896     -0.1143
     12  O3G       -0.6610  -19.2900   50.8730 O.2   896  TTP896     -0.2221
     13  O5'        3.2490  -14.2600   50.3960 O.3   896  TTP896     -0.3112
     14  C5'        3.2140  -13.4990   51.5940 C.3   896  TTP896      0.1812
     15  C4'        2.8770  -12.0550   51.2510 C.3   896  TTP896      0.1773
     16  O4'        3.7280  -11.5460   50.2120 O.3   896  TTP896     -0.3339
     17  C3'        1.4760  -11.9090   50.6880 C.3   896  TTP896      0.1857
     18  O3'        0.4860  -11.9110   51.7170 O.3   896  TTP896     -0.2203
     19  C2'        1.5910  -10.5910   49.9400 C.3   896  TTP896      0.0874
     20  C1'        3.0040  -10.6430   49.3620 C.3   896  TTP896      0.2090
     21  N1         2.8300  -11.1410   47.9820 N.am  896  TTP896     -0.1794
     22  C2         2.4560  -10.2130   46.9760 C.1   896  TTP896      0.2844
     23  O2         2.3210   -9.0010   47.2600 O.2   896  TTP896     -0.1918
     24  N3         2.2410  -10.5970   45.7160 N.2   896  TTP896     -0.2455
     25  C4         2.3600  -11.8740   45.3420 C.1   896  TTP896      0.2134
     26  O4         2.1530  -12.2000   44.1470 O.2   896  TTP896     -0.2088
     27  C5         2.7440  -12.8840   46.3630 C.2   896  TTP896      0.0891
     28  C5M        2.9040  -14.3400   45.9940 C.3   896  TTP896      0.0462
     29  C6         2.9620  -12.4470   47.6710 C.2   896  TTP896      0.0877
@<TRIPOS>BOND
     1    26    25    2
     2    25    24    2
     3    25    27    1
     4    24    22    2
     5    28    27    1
     6    27    29    2
     7    22    23    2
     8    22    21   am
     9    29    21    1
    10    21    20    1
    11     2     1    2
    12    20    19    1
    13    20    16    1
    14    19    17    1
    15     4     1    1
    16     4     5    1
    17    16    15    1
    18    13     1    1
    19    13    14    1
    20     1     3    1
    21    17    15    1
    22    17    18    1
    23     6     5    2
    24    12     9    2
    25     8     5    1
    26     8     9    1
    27     5     7    1
    28    15    14    1
    29     9    10    1
    30     9    11    1
