@<TRIPOS>MOLECULE
3suo_TTP_A_1.pdb
 29 30 0 0 0
SMALL
GASTEIGER

@<TRIPOS>ATOM
      1  PA        -0.0900  -10.4600  -49.0970 P.3   901  TTP901      0.2189
      2  O1A       -0.6680  -11.3360  -48.0220 O.3   901  TTP901     -0.4371
      3  O2A       -0.4610  -10.9580  -50.4710 O.2   901  TTP901     -0.5170
      4  O3A        1.5150  -10.4860  -48.9600 O.3   901  TTP901     -0.2700
      5  PB         2.6450  -10.0520  -50.0290 P.3   901  TTP901      0.2277
      6  O1B        3.3950   -8.8730  -49.4630 O.3   901  TTP901     -0.4368
      7  O2B        2.1160   -9.7340  -51.4070 O.2   901  TTP901     -0.5168
      8  O3B        3.6010  -11.3320  -50.0150 O.3   901  TTP901     -0.2258
      9  PG         3.3400  -12.6390  -50.9190 P.3   901  TTP901      0.5373
     10  O1G        2.0110  -12.5270  -51.6100 O.3   901  TTP901     -0.1143
     11  O2G        4.4550  -12.7040  -51.9200 O.2   901  TTP901     -0.2221
     12  O3G        3.3770  -13.8850  -50.0600 O.3   901  TTP901     -0.1143
     13  O5'       -0.4670   -8.9150  -48.8290 O.3   901  TTP901     -0.3112
     14  C5'       -0.4080   -7.9710  -49.8940 C.3   901  TTP901      0.1812
     15  C4'       -0.0060   -6.6050  -49.3680 C.3   901  TTP901      0.1773
     16  O4'       -0.8220   -6.2270  -48.2530 O.3   901  TTP901     -0.3339
     17  C3'        1.4130   -6.5930  -48.8380 C.3   901  TTP901      0.1857
     18  O3'        2.3860   -6.4000  -49.8660 O.3   901  TTP901     -0.2203
     19  C2'        1.3600   -5.4300  -47.8740 C.3   901  TTP901      0.0874
     20  C1'       -0.0390   -5.5390  -47.2670 C.3   901  TTP901      0.2090
     21  N1         0.1360   -6.2720  -45.9970 N.am  901  TTP901     -0.1794
     22  C2         0.5420   -5.5280  -44.8580 C.1   901  TTP901      0.2844
     23  O2         0.7040   -4.2900  -44.9320 O.2   901  TTP901     -0.1918
     24  N3         0.7480   -6.1180  -43.6810 N.2   901  TTP901     -0.2455
     25  C4         0.5940   -7.4340  -43.5270 C.1   901  TTP901      0.2134
     26  O4         0.8020   -7.9560  -42.4090 O.2   901  TTP901     -0.2088
     27  C5         0.1760   -8.2490  -44.6910 C.2   901  TTP901      0.0891
     28  C5M       -0.0100   -9.7410  -44.5440 C.3   901  TTP901      0.0462
     29  C6        -0.0300   -7.6090  -45.9090 C.2   901  TTP901      0.0877
@<TRIPOS>BOND
     1    11     9    2
     2    10     9    1
     3     7     5    2
     4     9    12    1
     5     9     8    1
     6     3     1    2
     7     5     8    1
     8     5     6    1
     9     5     4    1
    10    14    15    1
    11    14    13    1
    12    18    17    1
    13    15    17    1
    14    15    16    1
    15     1     4    1
    16     1    13    1
    17     1     2    1
    18    17    19    1
    19    16    20    1
    20    19    20    1
    21    20    21    1
    22    21    29    1
    23    21    22   am
    24    29    27    2
    25    23    22    2
    26    22    24    2
    27    27    28    1
    28    27    25    1
    29    24    25    2
    30    25    26    2
