@<TRIPOS>MOLECULE
3sup_DCP_A_1.pdb
 28 29 0 0 0
SMALL
GASTEIGER

@<TRIPOS>ATOM
      1  N1        -0.0620    5.9740   19.2260 N.am  904  DCP904     -0.1802
      2  C2        -0.4450    5.1380   20.2700 C.1   904  DCP904      0.2756
      3  N3        -0.6920    5.6670   21.5200 N.2   904  DCP904     -0.3024
      4  C4        -0.5120    7.0170   21.7510 C.2   904  DCP904      0.2346
      5  C5        -0.2000    7.8710   20.6970 C.2   904  DCP904      0.0687
      6  C6         0.1360    7.3180   19.4630 C.2   904  DCP904      0.0835
      7  O2        -0.5700    3.9250   20.1010 O.2   904  DCP904     -0.1925
      8  N4        -0.6360    7.4830   22.9850 N.pl3 904  DCP904     -0.0921
      9  C1'       -0.1380    5.4630   17.8400 C.3   904  DCP904      0.2090
     10  C2'       -1.5770    5.5630   17.3450 C.3   904  DCP904      0.0874
     11  C3'       -1.5610    6.7360   16.4030 C.3   904  DCP904      0.1857
     12  C4'       -0.1260    6.7500   15.9080 C.3   904  DCP904      0.1773
     13  O4'        0.6580    6.2280   16.9590 O.3   904  DCP904     -0.3339
     14  O3'       -2.5140    6.5590   15.3780 O.3   904  DCP904     -0.2203
     15  C5'        0.3880    8.1390   15.5810 C.3   904  DCP904      0.1812
     16  O5'        0.1220    9.0470   16.6260 O.3   904  DCP904     -0.3112
     17  PA        -0.0420   10.6160   16.2870 P.3   904  DCP904      0.2189
     18  O1A        0.5750   11.4030   17.4110 O.3   904  DCP904     -0.4371
     19  O2A        0.5770   11.0000   14.9610 O.2   904  DCP904     -0.5170
     20  O3A       -1.6260   10.9160   16.2240 O.3   904  DCP904     -0.2700
     21  PB        -2.7050   10.1720   15.2870 P.3   904  DCP904      0.2277
     22  O1B       -3.3240    9.0080   16.0130 O.3   904  DCP904     -0.4368
     23  O2B       -2.1340    9.7350   13.9550 O.2   904  DCP904     -0.5168
     24  O3B       -3.8190   11.3020   15.1320 O.3   904  DCP904     -0.2258
     25  PG        -3.5070   12.6950   14.3960 P.3   904  DCP904      0.5373
     26  O1G       -2.1770   12.6180   13.6910 O.3   904  DCP904     -0.1143
     27  O2G       -4.5980   12.9320   13.3970 O.2   904  DCP904     -0.2221
     28  O3G       -3.4510   13.8060   15.4170 O.3   904  DCP904     -0.1143
@<TRIPOS>BOND
     1    27    25    2
     2    26    25    1
     3    23    21    2
     4    25    24    1
     5    25    28    1
     6    19    17    2
     7    24    21    1
     8    21    22    1
     9    21    20    1
    10    14    11    1
    11    15    12    1
    12    15    16    1
    13    12    11    1
    14    12    13    1
    15    20    17    1
    16    17    16    1
    17    17    18    1
    18    11    10    1
    19    13     9    1
    20    10     9    1
    21     9     1    1
    22     1     6    1
    23     1     2   am
    24     6     5    2
    25     7     2    2
    26     2     3    2
    27     5     4    1
    28     3     4    2
    29     4     8    1
