@<TRIPOS>MOLECULE
3suq_DCP_A_1.pdb
 28 29 0 0 0
SMALL
GASTEIGER

@<TRIPOS>ATOM
      1  N1        -2.1900  -10.1710   15.1080 N.am  898  DCP898     -0.2030
      2  C2        -1.7650   -9.2610   16.0620 C.1   898  DCP898      0.2712
      3  N3        -1.5140   -9.6950   17.3590 N.2   898  DCP898     -0.3072
      4  C4        -1.7390  -11.0170   17.7030 C.2   898  DCP898      0.2123
      5  C5        -2.0350  -11.9340   16.7000 C.3   898  DCP898      0.1014
      6  C6        -2.5140  -11.4440   15.4900 C.3   898  DCP898      0.1151
      7  O2        -1.6050   -8.0740   15.7580 O.2   898  DCP898     -0.1929
      8  N4        -1.6810  -11.4130   18.9710 N.pl3 898  DCP898     -0.0969
      9  C1'       -1.9330   -9.8800   13.6870 C.3   898  DCP898      0.2048
     10  C2'       -0.4810  -10.1890   13.3450 C.3   898  DCP898      0.0871
     11  C3'       -0.5630  -11.2560   12.2760 C.3   898  DCP898      0.1857
     12  C4'       -2.0210  -11.2780   11.8390 C.3   898  DCP898      0.1773
     13  O4'       -2.7700  -10.6640   12.8590 O.3   898  DCP898     -0.3342
     14  O3'        0.2910  -10.9500   11.1990 O.3   898  DCP898     -0.2203
     15  C5'       -2.5510  -12.6840   11.6340 C.3   898  DCP898      0.1812
     16  O5'       -2.3560  -13.4450   12.7990 O.3   898  DCP898     -0.3112
     17  PA        -2.2140  -15.0430   12.7060 P.3   898  DCP898      0.2189
     18  O1A       -2.9690  -15.6800   13.8500 O.3   898  DCP898     -0.4371
     19  O2A       -2.7080  -15.5750   11.3790 O.2   898  DCP898     -0.5170
     20  O3A       -0.6450  -15.3300   12.9120 O.3   898  DCP898     -0.2700
     21  PB         0.4750  -14.9010   11.8390 P.3   898  DCP898      0.2277
     22  O1B        1.2730  -13.7540   12.4130 O.3   898  DCP898     -0.4368
     23  O2B       -0.0690  -14.5380   10.4770 O.2   898  DCP898     -0.5168
     24  O3B        1.4380  -16.1980   11.8000 O.3   898  DCP898     -0.2258
     25  PG         1.1630  -17.5380   10.9410 P.3   898  DCP898      0.5373
     26  O1G       -0.2750  -17.5610   10.4850 O.3   898  DCP898     -0.1143
     27  O2G        2.0780  -17.5910    9.7380 O.2   898  DCP898     -0.2221
     28  O3G        1.4210  -18.7440   11.8110 O.3   898  DCP898     -0.1143
@<TRIPOS>BOND
     1    27    25    2
     2    23    21    2
     3    26    25    1
     4    25    24    1
     5    25    28    1
     6    14    11    1
     7    19    17    2
     8    15    12    1
     9    15    16    1
    10    24    21    1
    11    12    11    1
    12    12    13    1
    13    21    22    1
    14    21    20    1
    15    11    10    1
    16    17    16    1
    17    17    20    1
    18    17    18    1
    19    13     9    1
    20    10     9    1
    21     9     1    1
    22     1     6    1
    23     1     2   am
    24     6     5    1
    25     7     2    2
    26     2     3    2
    27     5     4    1
    28     3     4    2
    29     4     8    1
