@<TRIPOS>MOLECULE
3sur_NGT_A_1.pdb
 14 15 0 0 0
SMALL
GASTEIGER

@<TRIPOS>ATOM
      1  C1        35.4930   19.2090  -15.8810 C.3   2000  NGT2000     0.1925
      2  C2        35.3260   18.2040  -17.0770 C.3   2000  NGT2000     0.1740
      3  C3        34.7650   16.8050  -16.6760 C.3   2000  NGT2000     0.2101
      4  C4        35.4090   16.2750  -15.3900 C.3   2000  NGT2000     0.2137
      5  C5        35.1690   17.3180  -14.2970 C.3   2000  NGT2000     0.1820
      6  C6        35.6720   16.8450  -12.9350 C.3   2000  NGT2000     0.2142
      7  C7        33.5260   19.7400  -17.4330 C.2   2000  NGT2000     0.0815
      8  C8        32.4310   20.4940  -18.1580 C.3   2000  NGT2000     0.0587
      9  N2        34.3340   18.8460  -18.0200 N.2   2000  NGT2000    -0.2643
     10  S1        33.8810   19.9880  -15.7680 S.3   2000  NGT2000    -0.0689
     11  O3        34.9590   15.8410  -17.7240 O.3   2000  NGT2000    -0.2181
     12  O4        34.8200   15.0050  -15.0530 O.3   2000  NGT2000    -0.2176
     13  O5        35.8760   18.5660  -14.6580 O.3   2000  NGT2000    -0.3400
     14  O6        35.3370   17.8720  -12.0030 O.3   2000  NGT2000    -0.2176
@<TRIPOS>BOND
     1     8     7    1
     2     9     7    2
     3     9     2    1
     4    11     3    1
     5     7    10    1
     6     2     3    1
     7     2     1    1
     8     3     4    1
     9     1    10    1
    10     1    13    1
    11     4    12    1
    12     4     5    1
    13    13     5    1
    14     5     6    1
    15     6    14    1
