@<TRIPOS>MOLECULE
3sus_GNL_A_1.pdb
 14 15 0 0 0
SMALL
GASTEIGER

@<TRIPOS>ATOM
      1  C1       -35.4970  -18.9580  -15.9290 C.3   2000  GNL2000     0.1823
      2  S1       -34.0010  -20.0150  -15.7780 S.3   2000  GNL2000    -0.0937
      3  C2       -35.1140  -17.9510  -17.0600 C.3   2000  GNL2000     0.1441
      4  N2       -34.2990  -18.7670  -18.0160 N.3   2000  GNL2000    -0.2038
      5  C3       -34.3640  -16.6830  -16.5490 C.3   2000  GNL2000     0.2038
      6  O3       -34.3990  -15.6270  -17.5280 O.3   2000  GNL2000    -0.2187
      7  C4       -34.9200  -16.1510  -15.2040 C.3   2000  GNL2000     0.2131
      8  O4       -36.2660  -15.6640  -15.3800 O.3   2000  GNL2000    -0.2176
      9  C5       -34.9120  -17.2890  -14.1730 C.3   2000  GNL2000     0.1819
     10  O5       -35.8040  -18.3330  -14.6730 O.3   2000  GNL2000    -0.3409
     11  C6       -35.3990  -16.8750  -12.7870 C.3   2000  GNL2000     0.2142
     12  O6       -35.1650  -17.9440  -11.8680 O.3   2000  GNL2000    -0.2176
     13  C7       -33.1880  -19.3960  -17.2780 C.3   2000  GNL2000     0.1222
     14  C8       -32.5030  -20.5080  -18.0620 C.3   2000  GNL2000     0.0309
@<TRIPOS>BOND
     1    14    13    1
     2     4    13    1
     3     4     3    1
     4     6     5    1
     5    13     2    1
     6     3     5    1
     7     3     1    1
     8     5     7    1
     9     1     2    1
    10     1    10    1
    11     8     7    1
    12     7     9    1
    13    10     9    1
    14     9    11    1
    15    11    12    1
