@<TRIPOS>MOLECULE
3sut_OAN_A_1.pdb
 25 26 0 0 0
SMALL
GASTEIGER

@<TRIPOS>ATOM
      1  CAH       32.4220  -20.5560   17.9330 C.3   2000  OAN2000     0.0964
      2  CAG       33.3760  -19.8100   17.0460 C.2   2000  OAN2000     0.2420
      3  OAN       33.3110  -19.8900   15.8240 O.2   2000  OAN2000    -0.2733
      4  NAI       34.2730  -19.0900   17.7120 N.am  2000  OAN2000    -0.2003
      5  CAB       35.2680  -18.2410   17.0460 C.3   2000  OAN2000     0.1756
      6  CAC       34.6120  -16.8860   16.5930 C.3   2000  OAN2000     0.2084
      7  OAJ       34.7150  -15.8780   17.6110 O.3   2000  OAN2000    -0.2183
      8  CAD       35.2680  -16.3990   15.2920 C.3   2000  OAN2000     0.2135
      9  OAK       34.6490  -15.1640   14.8480 O.3   2000  OAN2000    -0.2176
     10  CAE       35.0590  -17.4870   14.2510 C.3   2000  OAN2000     0.1826
     11  CAF       35.5360  -17.0210   12.8770 C.3   2000  OAN2000     0.2142
     12  OAM       35.2140  -18.0650   11.9610 O.3   2000  OAN2000    -0.2176
     13  OAL       35.7710  -18.7020   14.6590 O.3   2000  OAN2000    -0.3326
     14  CAA       36.0560  -18.8410   16.0060 C.3   2000  OAN2000     0.2535
     15  NAY       36.8030  -19.9320   16.1370 N.4   2000  OAN2000     0.0081
     16  OAQ       38.1310  -19.6790   15.6270 O.3   2000  OAN2000    -0.3289
     17  CAP       39.0970  -20.5490   15.2760 C.2   2000  OAN2000     0.4448
     18  OAR       39.3150  -21.4650   16.0880 O.2   2000  OAN2000    -0.2223
     19  NAO       39.9950  -20.1600   14.3350 N.am  2000  OAN2000    -0.1410
     20  CAS       41.1710  -20.7840   14.1310 C.ar  2000  OAN2000     0.0768
     21  CAT       41.3800  -22.1050   14.5820 C.ar  2000  OAN2000     0.0167
     22  CAU       42.5750  -22.7890   14.3050 C.ar  2000  OAN2000     0.0013
     23  CAV       43.5440  -22.1400   13.5280 C.ar  2000  OAN2000     0.0001
     24  CAW       43.3400  -20.8420   13.0340 C.ar  2000  OAN2000     0.0013
     25  CAX       42.1480  -20.1700   13.3250 C.ar  2000  OAN2000     0.0167
@<TRIPOS>BOND
     1    12    11    1
     2    11    10    1
     3    24    25   ar
     4    24    23   ar
     5    25    20   ar
     6    23    22   ar
     7    20    19    1
     8    20    21   ar
     9    10    13    1
    10    10     8    1
    11    22    21   ar
    12    19    17   am
    13    13    14    1
    14     9     8    1
    15    17    16    1
    16    17    18    2
    17     8     6    1
    18    16    15    1
    19     3     2    2
    20    14    15    1
    21    14     5    1
    22     6     5    1
    23     6     7    1
    24     5     4    1
    25     2     4   am
    26     2     1    1
