@<TRIPOS>MOLECULE
3suu_OGN_A_1.pdb
 25 26 0 0 0
SMALL
GASTEIGER

@<TRIPOS>ATOM
      1  CAA       36.1910   18.5890  -16.0950 C.3   2000  OGN2000     0.2535
      2  CAB       35.2290   17.9830  -17.1500 C.3   2000  OGN2000     0.1756
      3  CAC       34.4030   16.8240  -16.5560 C.3   2000  OGN2000     0.2084
      4  CAD       34.9710   16.3290  -15.2180 C.3   2000  OGN2000     0.2135
      5  CAE       34.9530   17.4980  -14.2210 C.3   2000  OGN2000     0.1826
      6  CAF       35.4560   17.0660  -12.8490 C.3   2000  OGN2000     0.2142
      7  CAG       33.4330   19.6920  -17.1760 C.2   2000  OGN2000     0.2420
      8  CAH       32.5050   20.5000  -18.0730 C.3   2000  OGN2000     0.0964
      9  NAI       34.2910   18.9070  -17.8230 N.am  2000  OGN2000    -0.2003
     10  OAJ       34.3870   15.7610  -17.5010 O.3   2000  OGN2000    -0.2183
     11  OAK       36.3120   15.8520  -15.4180 O.3   2000  OGN2000    -0.2176
     12  OAL       35.7630   18.6190  -14.6960 O.3   2000  OGN2000    -0.3326
     13  OAM       35.2640   18.1420  -11.9300 O.3   2000  OGN2000    -0.2176
     14  OAN       33.3700   19.7720  -15.9560 O.2   2000  OGN2000    -0.2733
     15  NAO       39.8310   20.5740  -14.5920 N.am  2000  OGN2000    -0.1410
     16  CAP       38.8700   20.7410  -15.5030 C.2   2000  OGN2000     0.4448
     17  OAQ       37.8340   19.9010  -15.3130 O.3   2000  OGN2000    -0.3289
     18  OAR       38.8860   21.5650  -16.4170 O.2   2000  OGN2000    -0.2223
     19  CAS       40.9790   21.2430  -14.4410 C.ar  2000  OGN2000     0.0768
     20  CAT       41.9950   20.6350  -13.7020 C.ar  2000  OGN2000     0.0167
     21  CAU       43.1990   21.3020  -13.4840 C.ar  2000  OGN2000     0.0013
     22  CAV       43.3710   22.5820  -14.0090 C.ar  2000  OGN2000     0.0001
     23  CAW       42.3590   23.2020  -14.7380 C.ar  2000  OGN2000     0.0013
     24  CAX       41.1530   22.5320  -14.9480 C.ar  2000  OGN2000     0.0167
     25  NAY       36.9110   19.8020  -16.4330 N.4   2000  OGN2000     0.0081
@<TRIPOS>BOND
     1     8     7    1
     2     9     7   am
     3     9     2    1
     4    10     3    1
     5     7    14    2
     6     2     3    1
     7     2     1    1
     8     3     4    1
     9    25     1    1
    10    25    17    1
    11    18    16    2
    12     1    12    1
    13    16    17    1
    14    16    15   am
    15    11     4    1
    16     4     5    1
    17    24    23   ar
    18    24    19   ar
    19    23    22   ar
    20    12     5    1
    21    15    19    1
    22    19    20   ar
    23     5     6    1
    24    22    21   ar
    25    20    21   ar
    26     6    13    1
