@<TRIPOS>MOLECULE
3suv_NOK_A_1.pdb
 14 14 0 0 0
SMALL
GASTEIGER

@<TRIPOS>ATOM
      1  C8        31.8880   20.0740  -18.0120 C.3   2000  NOK2000     0.0964
      2  C7        33.0200   19.5080  -17.1690 C.2   2000  NOK2000     0.2419
      3  O7        33.0660   19.7470  -15.9650 O.2   2000  NOK2000    -0.2733
      4  N2        33.9160   18.7580  -17.8360 N.am  2000  NOK2000    -0.2030
      5  C2        35.1130   18.1460  -17.2010 C.3   2000  NOK2000     0.1455
      6  C1        35.9250   19.2500  -16.5020 C.3   2000  NOK2000     0.1131
      7  N5        37.1890   18.6740  -15.9880 N.3   2000  NOK2000    -0.2122
      8  C5        36.8930   17.7430  -14.8750 C.3   2000  NOK2000     0.1386
      9  C6        38.2060   17.2350  -14.2770 C.3   2000  NOK2000     0.2020
     10  O6        39.0380   16.7230  -15.3240 O.3   2000  NOK2000    -0.2188
     11  C4        36.0390   16.5640  -15.3790 C.3   2000  NOK2000     0.2023
     12  O4        35.5780   15.7870  -14.2640 O.3   2000  NOK2000    -0.2188
     13  C3        34.8120   16.9820  -16.2340 C.3   2000  NOK2000     0.2047
     14  O3        34.4220   15.8340  -16.9920 O.3   2000  NOK2000    -0.2185
@<TRIPOS>BOND
     1     1     2    1
     2     4     5    1
     3     4     2   am
     4     5     6    1
     5     5    13    1
     6     2     3    2
     7    14    13    1
     8     6     7    1
     9    13    11    1
    10     7     8    1
    11    11     8    1
    12    11    12    1
    13    10     9    1
    14     8     9    1
