@<TRIPOS>MOLECULE
3suw_GC2_A_1.pdb
 16 17 0 0 0
SMALL
GASTEIGER

@<TRIPOS>ATOM
      1  O1        33.2480   19.8410  -15.7720 O.2   2000  GC22000    -0.2733
      2  C8        33.1730   19.5670  -16.9790 C.2   2000  GC22000     0.2419
      3  C10       32.0320   20.1210  -17.8330 C.3   2000  GC22000     0.0964
      4  N2        34.0240   18.7900  -17.6570 N.am  2000  GC22000    -0.2030
      5  C2        35.2240   18.1370  -17.0710 C.3   2000  GC22000     0.1440
      6  C3        34.8470   16.9430  -16.1580 C.3   2000  GC22000     0.2046
      7  O4        34.3320   15.8820  -16.9380 O.3   2000  GC22000    -0.2185
      8  C4        36.0380   16.3970  -15.3160 C.3   2000  GC22000     0.2008
      9  O2        35.5190   15.6520  -14.2210 O.3   2000  GC22000    -0.2188
     10  C1        36.1330   19.1680  -16.3460 C.3   2000  GC22000     0.0968
     11  N1        37.3200   18.4010  -15.8570 N.3   2000  GC22000    -0.2680
     12  C5        36.9060   17.5080  -14.7560 C.3   2000  GC22000     0.1215
     13  C9        38.4090   19.1990  -15.2600 C.3   2000  GC22000     0.0749
     14  C7        39.2370   18.1000  -14.5660 C.3   2000  GC22000     0.0517
     15  C6        38.2240   17.0150  -14.1400 C.3   2000  GC22000     0.1704
     16  O3        38.5830   15.7220  -14.6760 O.3   2000  GC22000    -0.2216
@<TRIPOS>BOND
     1     3     2    1
     2     4     5    1
     3     4     2   am
     4     5    10    1
     5     5     6    1
     6     2     1    2
     7     7     6    1
     8    10    11    1
     9     6     8    1
    10    11    13    1
    11    11    12    1
    12     8    12    1
    13     8     9    1
    14    13    14    1
    15    12    15    1
    16    16    15    1
    17    14    15    1
