@<TRIPOS>MOLECULE
3sv1_III_F_1.pdb
 14 13 0 0 0
SMALL
GASTEIGER

@<TRIPOS>ATOM
      1  N         10.2400  -32.6900   -7.7940 N.3   756  GLY756     -0.1210
      2  CA        10.8300  -33.8410   -8.5410 C.3   756  GLY756      0.1956
      3  C          9.8630  -34.3130   -9.6080 C.2   756  GLY756      0.2612
      4  O          8.6940  -33.9230   -9.6150 O.2   756  GLY756     -0.2717
      5  N         10.3590  -35.1640  -10.5010 N.am  757  TYR757     -0.1965
      6  CA         9.5620  -35.7080  -11.6000 C.3   757  TYR757      0.1728
      7  C          9.2360  -37.1760  -11.3590 C.2   757  TYR757      0.2616
      8  O          8.6160  -37.8220  -12.2090 O.2   757  TYR757     -0.2715
      9  CB        10.3180  -35.5600  -12.9060 C.3   757  TYR757      0.0334
     10  N          9.6580  -37.6780  -10.1960 N.am  758  GLU758     -0.1977
     11  CA         9.4450  -39.0640   -9.7750 C.3   758  GLU758      0.1597
     12  C          8.8040  -39.9510  -10.8480 C.2   758  GLU758      0.2287
     13  O          7.6360  -40.3570  -10.6570 O.2   758  GLU758     -0.2864
     14  CB         8.5980  -39.0910   -8.4860 C.3   758  GLU758      0.0319
@<TRIPOS>BOND
     1     9     6    1
     2     8     7    2
     3     6     7    1
     4     6     5    1
     5     7    10   am
     6    12    13    2
     7    12    11    1
     8     5     3   am
     9    10    11    1
    10    11    14    1
    11     4     3    2
    12     3     2    1
    13     2     1    1
