@<TRIPOS>MOLECULE
3sv2_P05_H_1.pdb
 26 28 0 0 0
SMALL
GASTEIGER

@<TRIPOS>ATOM
      1  N21       16.4180  -15.5200   23.1810 N.3     1  P051       -0.1228
      2  C8        17.7190  -14.8760   23.1360 C.3     1  P051        0.1721
      3  C9        17.5440  -13.4940   22.5390 C.2     1  P051        0.2437
      4  O25       16.6280  -12.7610   22.9230 O.2     1  P051       -0.2733
      5  C7        18.2270  -14.7850   24.5750 C.3     1  P051        0.0547
      6  C4        19.6320  -14.2480   24.6420 C.ar    1  P051       -0.0202
      7  C3        19.8640  -13.0460   25.3050 C.ar    1  P051       -0.0042
      8  C5        20.6930  -14.9330   24.0500 C.ar    1  P051       -0.0042
      9  C2        21.1510  -12.5260   25.3690 C.ar    1  P051       -0.0003
     10  C6        21.9780  -14.4170   24.1370 C.ar    1  P051       -0.0003
     11  C1        22.2170  -13.2070   24.7870 C.ar    1  P051       -0.0000
     12  N22       18.3880  -13.0960   21.5830 N.am    1  P051       -0.2718
     13  C13       18.1900  -11.7780   20.9800 C.3     1  P051        0.1535
     14  C14       16.8140  -11.6760   20.3860 C.2     1  P051        0.2598
     15  O26       16.3240  -12.6040   19.7390 O.2     1  P051       -0.2715
     16  C12       19.2130  -11.6680   19.8660 C.3     1  P051        0.0310
     17  C11       20.2390  -12.7270   20.1870 C.3     1  P051        0.0237
     18  C10       19.5080  -13.8260   20.9680 C.3     1  P051        0.0939
     19  C15       14.8270  -10.2230   20.1030 C.3     1  P051        0.1416
     20  C16       13.7650  -10.5290   21.1300 C.ar    1  P051        0.0025
     21  C17       13.1850   -9.5250   21.9130 C.ar    1  P051        0.0181
     22  C18       12.2070   -9.8740   22.8340 C.ar    1  P051        0.0986
     23  C19       12.3610  -12.1220   22.2190 C.ar    1  P051        0.0986
     24  C20       13.3520  -11.8470   21.2870 C.ar    1  P051        0.0181
     25  N23       16.1610  -10.5290   20.5910 N.am    1  P051       -0.1992
     26  N24       11.8080  -11.1510   22.9530 N.ar    1  P051       -0.2423
@<TRIPOS>BOND
     1    15    14    2
     2    16    17    1
     3    16    13    1
     4    19    25    1
     5    19    20    1
     6    17    18    1
     7    14    25   am
     8    14    13    1
     9    18    12    1
    10    13    12    1
    11    20    24   ar
    12    20    21   ar
    13    24    23   ar
    14    12     3   am
    15    21    22   ar
    16    23    26   ar
    17     3     4    2
    18     3     2    1
    19    22    26   ar
    20     2     1    1
    21     2     5    1
    22     8    10   ar
    23     8     6   ar
    24    10    11   ar
    25     5     6    1
    26     6     7   ar
    27    11     9   ar
    28     7     9   ar
