@<TRIPOS>MOLECULE
3sv3_5SI_A_1.pdb
 32 34 0 0 0
SMALL
GASTEIGER

@<TRIPOS>ATOM
      1  N1        14.8090  -12.3280  -34.4890 N.ar    1  5SI1       -0.2984
      2  C2        14.0450  -13.2330  -33.8490 C.ar    1  5SI1        0.0780
      3  C3        14.2880  -14.6080  -33.9030 C.ar    1  5SI1        0.0188
      4  C4        15.3600  -15.1220  -34.6260 C.ar    1  5SI1        0.0031
      5  C5        16.2510  -14.1830  -35.3410 C.ar    1  5SI1        0.0226
      6  C6        15.9360  -12.7290  -35.2400 C.ar    1  5SI1        0.0981
      7  PA        11.0540  -11.2320  -30.5510 P.3     1  5SI1        0.2189
      8  PB        13.5910  -11.1190  -29.3290 P.3     1  5SI1        0.2277
      9  PG        12.7800  -12.0510  -26.8200 P.3     1  5SI1        0.5373
     10  C1'       14.5000  -10.8980  -34.3680 C.3     1  5SI1        0.2077
     11  O1A       11.0330  -12.5400  -29.7930 O.3     1  5SI1       -0.4371
     12  O1B       13.5590  -12.6140  -29.5900 O.3     1  5SI1       -0.4368
     13  O1G       14.0880  -12.3990  -26.1580 O.3     1  5SI1       -0.1143
     14  C2'       13.6690  -10.3670  -35.5250 C.3     1  5SI1        0.0894
     15  O2A        9.8300  -10.3500  -30.5280 O.2     1  5SI1       -0.5170
     16  O2B       14.8460  -10.3220  -29.6180 O.2     1  5SI1       -0.5168
     17  O2G       12.2280  -13.1270  -27.7310 O.2     1  5SI1       -0.2221
     18  C3'       12.7010   -9.3900  -34.8850 C.3     1  5SI1        0.1859
     19  O3'       13.2360   -8.0650  -34.9420 O.3     1  5SI1       -0.2203
     20  S36       16.8290  -11.6330  -35.9860 S.2     1  5SI1       -0.0318
     21  C37       15.6210  -16.4910  -34.6900 C.ar    1  5SI1       -0.0041
     22  C38       16.7130  -16.9580  -35.4260 C.ar    1  5SI1       -0.0218
     23  C39       17.5550  -16.0730  -36.1040 C.ar    1  5SI1       -0.0042
     24  O3A       12.3480  -10.4050  -30.0650 O.3     1  5SI1       -0.2700
     25  O3B       13.1710  -10.8400  -27.8060 O.3     1  5SI1       -0.2258
     26  O3G       11.7660  -11.4300  -25.8850 O.3     1  5SI1       -0.1143
     27  C4'       12.6110   -9.8100  -33.4320 C.3     1  5SI1        0.1775
     28  O4'       13.7290  -10.6740  -33.1840 O.3     1  5SI1       -0.3327
     29  C40       17.3330  -14.6870  -36.0700 C.ar    1  5SI1        0.0016
     30  C41       16.9780  -18.4430  -35.4780 C.3     1  5SI1        0.0310
     31  C5'       11.2720  -10.4680  -33.0870 C.3     1  5SI1        0.1812
     32  O5'       11.4920  -11.4570  -32.0830 O.3     1  5SI1       -0.3112
@<TRIPOS>BOND
     1    23    29   ar
     2    23    22   ar
     3    29     5   ar
     4    20     6    2
     5    14    18    1
     6    14    10    1
     7    30    22    1
     8    22    21   ar
     9     5     6   ar
    10     5     4   ar
    11     6     1   ar
    12    19    18    1
    13    18    27    1
    14    21     4   ar
    15     4     3   ar
    16     1    10    1
    17     1     2   ar
    18    10    28    1
    19     3     2   ar
    20    27    28    1
    21    27    31    1
    22    31    32    1
    23    32     7    1
    24     7    15    2
    25     7    24    1
    26     7    11    1
    27    24     8    1
    28    16     8    2
    29    12     8    1
    30     8    25    1
    31    25     9    1
    32    17     9    2
    33     9    13    1
    34     9    26    1
