@<TRIPOS>MOLECULE
3sv6_SV6_A_1.pdb
 49 53 0 0 0
SMALL
GASTEIGER

@<TRIPOS>ATOM
      1  CBN      -23.8170   -9.5390   13.4650 C.2     1  SV61        0.1334
      2  CBO      -25.7680   -8.7300   12.5370 C.3     1  SV61        0.1715
      3  CBP      -26.1470  -10.0360   12.2190 C.2     1  SV61        0.0937
      4  CBB      -22.4830   -9.2690   14.1800 C.2     1  SV61        0.2804
      5  CBQ      -24.2070  -10.8410   13.1410 C.3     1  SV61        0.1748
      6  OBW      -22.1210   -8.1240   14.4280 O.2     1  SV61       -0.2670
      7  NAF      -24.6150   -8.5050   13.1550 N.2     1  SV61       -0.2616
      8  NAG      -25.3630  -11.0600   12.5250 N.2     1  SV61       -0.2649
      9  NAD      -21.7990  -10.3520   14.4960 N.am    1  SV61       -0.1930
     10  CAY      -20.5020  -10.2620   15.1860 C.3     1  SV61        0.1730
     11  CAX      -19.3940  -10.1610   14.1470 C.2     1  SV61        0.2616
     12  OBU      -19.2800  -11.0130   13.2620 O.2     1  SV61       -0.2715
     13  CBH      -20.3110  -11.4900   16.0670 C.3     1  SV61        0.0290
     14  CBI      -21.4240  -11.5610   17.1250 C.3     1  SV61        0.0022
     15  CBJ      -21.2230  -12.7570   18.0530 C.3     1  SV61        0.0001
     16  CBK      -19.8350  -12.7230   18.7120 C.3     1  SV61        0.0000
     17  CBL      -18.7280  -12.6440   17.6560 C.3     1  SV61        0.0001
     18  CBM      -18.9350  -11.4340   16.7400 C.3     1  SV61        0.0022
     19  NAC      -18.6430   -9.0740   14.2630 N.am    1  SV61       -0.1964
     20  CAW      -17.5300   -8.8030   13.3430 C.3     1  SV61        0.1711
     21  CAZ      -17.6910   -7.4340   12.6560 C.3     1  SV61        0.0269
     22  CBC      -17.8120   -6.2560   13.6200 C.3     1  SV61        0.0022
     23  CBD      -18.9450   -7.4560   11.7660 C.3     1  SV61        0.0022
     24  CBA      -16.4730   -7.1820   11.7430 C.3     1  SV61        0.0022
     25  CAV      -16.2010   -8.9330   14.1170 C.2     1  SV61        0.2458
     26  OBT      -15.9570   -8.1990   15.0930 O.2     1  SV61       -0.2730
     27  C        -13.1120   -8.8820   14.0310 C.2     1  SV61        0.2595
     28  N        -15.3170   -9.8560   13.7460 N.am    1  SV61       -0.2716
     29  O        -13.0890   -8.5310   12.8500 O.2     1  SV61       -0.2716
     30  CA       -14.0210  -10.0270   14.4370 C.3     1  SV61        0.1535
     31  CB       -13.4570  -11.3660   13.9710 C.3     1  SV61        0.0288
     32  CG       -14.1430  -11.6610   12.6290 C.3     1  SV61        0.0219
     33  CBE      -13.8150  -12.5080   14.9020 C.3     1  SV61        0.0022
     34  CBF      -13.8610  -13.7250   13.9800 C.3     1  SV61        0.0001
     35  CD1      -15.4400  -10.8180   12.6110 C.3     1  SV61        0.0939
     36  CD2      -14.4250  -13.1680   12.6650 C.3     1  SV61        0.0018
     37  NAA       -9.1640   -6.1430   13.0990 N.am    1  SV61       -0.2050
     38  NAE      -12.4380   -8.2720   15.0090 N.am    1  SV61       -0.2027
     39  CAH      -11.6590   -7.0550   14.7010 C.3     1  SV61        0.1347
     40  CAI      -10.1640   -7.1840   14.9970 C.3     1  SV61        0.2487
     41  CAJ      -12.2910   -5.8610   15.4430 C.3     1  SV61        0.0248
     42  CAK      -13.5620   -5.4220   14.6760 C.3     1  SV61        0.0019
     43  CAL      -14.2460   -4.2370   15.3400 C.3     1  SV61        0.0001
     44  CAM       -9.3980   -6.0150   14.3980 C.2     1  SV61        0.2736
     45  CAN       -8.4840   -5.0930   12.3450 C.3     1  SV61        0.0955
     46  CAO       -7.0370   -5.4010   12.0270 C.3     1  SV61        0.0234
     47  CAP       -8.1000   -5.4890   10.9260 C.3     1  SV61        0.0234
     48  OBR       -9.6320   -8.3780   14.4540 O.3     1  SV61       -0.2113
     49  OBS       -9.0870   -5.0460   15.0810 O.2     1  SV61       -0.2705
@<TRIPOS>BOND
     1    47    46    1
     2    47    45    1
     3    24    21    1
     4    23    21    1
     5    46    45    1
     6     3     8    2
     7     3     2    1
     8    45    37    1
     9     8     5    1
    10     2     7    1
    11    35    32    1
    12    35    28    1
    13    32    36    1
    14    32    31    1
    15    21    20    1
    16    21    22    1
    17    36    34    1
    18    29    27    2
    19    37    44   am
    20     5     1    1
    21     7     1    2
    22    12    11    2
    23    20    25    1
    24    20    19    1
    25     1     4    1
    26    28    25   am
    27    28    30    1
    28    31    30    1
    29    31    33    1
    30    34    33    1
    31    27    30    1
    32    27    38   am
    33    25    26    2
    34    11    19   am
    35    11    10    1
    36     4     6    2
    37     4     9   am
    38    44    40    1
    39    44    49    2
    40    48    40    1
    41     9    10    1
    42    42    43    1
    43    42    41    1
    44    39    40    1
    45    39    38    1
    46    39    41    1
    47    10    13    1
    48    13    18    1
    49    13    14    1
    50    18    17    1
    51    14    15    1
    52    17    16    1
    53    15    16    1
