@<TRIPOS>MOLECULE
3sv7_SV6_A_1.pdb
 49 53 0 0 0
SMALL
GASTEIGER

@<TRIPOS>ATOM
      1  CBN      -23.8730   -9.2040   13.2750 C.ar    1  SV61        0.1552
      2  CBO      -25.4500  -10.5990   12.3170 C.ar    1  SV61        0.1196
      3  CBP      -26.0850   -9.4860   11.7580 C.ar    1  SV61        0.1195
      4  CBB      -22.6080   -9.0100   14.1290 C.2     1  SV61        0.2845
      5  CBQ      -24.5140   -8.1000   12.7110 C.ar    1  SV61        0.1226
      6  OBW      -22.2640   -7.8860   14.5030 O.2     1  SV61       -0.2666
      7  NAF      -24.3600  -10.4400   13.0570 N.ar    1  SV61       -0.2360
      8  NAG      -25.6040   -8.2670   11.9700 N.ar    1  SV61       -0.2390
      9  NAD      -21.9580  -10.1360   14.4080 N.am    1  SV61       -0.1927
     10  CAY      -20.6890  -10.1580   15.1740 C.3     1  SV61        0.1730
     11  CAX      -19.5460  -10.1090   14.1640 C.2     1  SV61        0.2616
     12  OBU      -19.4390  -10.9700   13.2920 O.2     1  SV61       -0.2715
     13  CBH      -20.5810  -11.4000   16.0770 C.3     1  SV61        0.0290
     14  CBI      -21.7240  -11.4240   17.1070 C.3     1  SV61        0.0022
     15  CBJ      -21.6230  -12.6650   17.9990 C.3     1  SV61        0.0001
     16  CBK      -20.2640  -12.7180   18.7100 C.3     1  SV61        0.0000
     17  CBL      -19.1070  -12.6770   17.7060 C.3     1  SV61        0.0001
     18  CBM      -19.2220  -11.4510   16.8000 C.3     1  SV61        0.0022
     19  NAC      -18.7500   -9.0580   14.2920 N.am    1  SV61       -0.1964
     20  CAW      -17.5980   -8.8340   13.4010 C.3     1  SV61        0.1711
     21  CAZ      -17.7250   -7.4650   12.6920 C.3     1  SV61        0.0269
     22  CBC      -17.7690   -6.2500   13.6480 C.3     1  SV61        0.0022
     23  CBD      -19.0190   -7.4810   11.8390 C.3     1  SV61        0.0022
     24  CBA      -16.5090   -7.2970   11.7630 C.3     1  SV61        0.0022
     25  CAV      -16.3040   -8.9400   14.2070 C.2     1  SV61        0.2458
     26  OBT      -16.1180   -8.1830   15.1670 O.2     1  SV61       -0.2730
     27  C        -13.2110   -8.7970   14.1280 C.2     1  SV61        0.2595
     28  N        -15.3740   -9.8290   13.8460 N.am    1  SV61       -0.2716
     29  O        -13.1730   -8.4150   12.9540 O.2     1  SV61       -0.2716
     30  CA       -14.0760   -9.9800   14.5380 C.3     1  SV61        0.1535
     31  CB       -13.4740  -11.2880   14.0360 C.3     1  SV61        0.0288
     32  CG       -14.1470  -11.5370   12.6820 C.3     1  SV61        0.0219
     33  CBE      -13.8810  -12.4750   14.9040 C.3     1  SV61        0.0022
     34  CBF      -13.8540  -13.6430   13.9200 C.3     1  SV61        0.0001
     35  CD1      -15.4900  -10.7860   12.7230 C.3     1  SV61        0.0939
     36  CD2      -14.3900  -13.0430   12.6140 C.3     1  SV61        0.0018
     37  NAA       -9.3210   -6.0730   13.1230 N.am    1  SV61       -0.2050
     38  NAE      -12.5200   -8.1990   15.0950 N.am    1  SV61       -0.2027
     39  CAH      -11.7870   -6.9770   14.7710 C.3     1  SV61        0.1347
     40  CAI      -10.2940   -7.1160   15.0360 C.3     1  SV61        0.2487
     41  CAJ      -12.3970   -5.8250   15.5780 C.3     1  SV61        0.0248
     42  CAK      -13.8320   -5.5530   15.0990 C.3     1  SV61        0.0019
     43  CAL      -14.2380   -4.1250   15.4330 C.3     1  SV61        0.0001
     44  CAM       -9.5100   -5.9640   14.4240 C.2     1  SV61        0.2736
     45  CAN       -8.6180   -5.0410   12.3590 C.3     1  SV61        0.0955
     46  CAO       -7.1380   -5.3250   12.1390 C.3     1  SV61        0.0234
     47  CAP       -8.1330   -5.4910   10.9830 C.3     1  SV61        0.0234
     48  OBR       -9.8020   -8.3470   14.5090 O.3     1  SV61       -0.2113
     49  OBS       -9.0630   -5.0520   15.1170 O.2     1  SV61       -0.2705
@<TRIPOS>BOND
     1    47    46    1
     2    47    45    1
     3     3     8   ar
     4     3     2   ar
     5    24    21    1
     6    23    21    1
     7     8     5   ar
     8    46    45    1
     9     2     7   ar
    10    45    37    1
    11    36    32    1
    12    36    34    1
    13    32    35    1
    14    32    31    1
    15    21    20    1
    16    21    22    1
    17     5     1   ar
    18    35    28    1
    19    29    27    2
    20     7     1   ar
    21    37    44   am
    22     1     4    1
    23    12    11    2
    24    20    25    1
    25    20    19    1
    26    28    25   am
    27    28    30    1
    28    34    33    1
    29    31    30    1
    30    31    33    1
    31    27    30    1
    32    27    38   am
    33     4     9   am
    34     4     6    2
    35    11    19   am
    36    11    10    1
    37    25    26    2
    38     9    10    1
    39    44    40    1
    40    44    49    2
    41    48    40    1
    42    39    40    1
    43    39    38    1
    44    39    41    1
    45    42    43    1
    46    42    41    1
    47    10    13    1
    48    13    18    1
    49    13    14    1
    50    18    17    1
    51    14    15    1
    52    17    16    1
    53    15    16    1
