@<TRIPOS>MOLECULE
3sv8_SV6_A_1.pdb
 49 53 0 0 0
SMALL
GASTEIGER

@<TRIPOS>ATOM
      1  CBN       -0.2790   19.7960   15.7000 C.ar    1  SV61        0.1552
      2  CBO        0.2800   21.1790   17.4990 C.ar    1  SV61        0.1196
      3  CBP        1.1540   20.2010   17.9600 C.ar    1  SV61        0.1195
      4  CBB       -1.0760   19.5710   14.4460 C.2     1  SV61        0.2845
      5  CBQ        0.5960   18.8160   16.1770 C.ar    1  SV61        0.1226
      6  OBW       -1.9080   20.3970   14.1030 O.2     1  SV61       -0.2666
      7  NAF       -0.4150   20.9580   16.3800 N.ar    1  SV61       -0.2360
      8  NAG        1.3000   19.0430   17.2960 N.ar    1  SV61       -0.2390
      9  NAD       -0.8440   18.4650   13.7390 N.am    1  SV61       -0.1927
     10  CAY       -1.5800   18.1680   12.5230 C.3     1  SV61        0.1730
     11  CAX       -2.7130   17.2290   12.7960 C.2     1  SV61        0.2616
     12  OBU       -2.4980   16.1700   13.3750 O.2     1  SV61       -0.2715
     13  CBH       -0.6290   17.4980   11.5310 C.3     1  SV61        0.0290
     14  CBI        0.6390   18.3330   11.3080 C.3     1  SV61        0.0022
     15  CBJ        1.5300   17.8100   10.1830 C.3     1  SV61        0.0001
     16  CBK        0.7370   17.4570    8.9270 C.3     1  SV61        0.0000
     17  CBL       -0.4470   16.5400    9.2330 C.3     1  SV61        0.0001
     18  CBM       -1.3650   17.2320   10.2190 C.3     1  SV61        0.0022
     19  NAC       -3.8920   17.6630   12.3330 N.am    1  SV61       -0.1964
     20  CAW       -5.1230   16.9030   12.4460 C.3     1  SV61        0.1711
     21  CAZ       -6.1650   17.5790   13.3390 C.3     1  SV61        0.0269
     22  CBC       -6.5650   18.9600   12.8240 C.3     1  SV61        0.0022
     23  CBD       -5.5780   17.7620   14.7500 C.3     1  SV61        0.0022
     24  CBA       -7.3780   16.6460   13.4000 C.3     1  SV61        0.0022
     25  CAV       -5.6200   16.5900   11.0490 C.2     1  SV61        0.2458
     26  OBT       -5.9870   17.4980   10.3180 O.2     1  SV61       -0.2730
     27  C         -7.5860   14.9450    9.2430 C.2     1  SV61        0.2595
     28  N         -5.6020   15.3020   10.6450 N.am    1  SV61       -0.2716
     29  O         -8.2520   14.3900   10.1220 O.2     1  SV61       -0.2716
     30  CA        -6.0720   14.8990    9.3120 C.3     1  SV61        0.1535
     31  CB        -5.4980   13.5010    9.1190 C.3     1  SV61        0.0288
     32  CG        -4.7850   13.1080   10.4030 C.3     1  SV61        0.0219
     33  CBE       -4.4530   13.4120    8.0070 C.3     1  SV61        0.0022
     34  CBF       -3.0980   13.5750    8.7010 C.3     1  SV61        0.0001
     35  CD1       -5.1660   14.1500   11.4360 C.3     1  SV61        0.0939
     36  CD2       -3.2800   13.0960   10.1390 C.3     1  SV61        0.0018
     37  NAA      -12.1720   13.8490    7.6410 N.am    1  SV61       -0.2050
     38  NAE       -8.1670   15.6140    8.2350 N.am    1  SV61       -0.2027
     39  CAH       -9.6270   15.7390    8.1660 C.3     1  SV61        0.1347
     40  CAI      -10.2170   15.0790    6.9060 C.3     1  SV61        0.2487
     41  CAJ       -9.8700   17.2470    8.2020 C.3     1  SV61        0.0248
     42  CAK       -9.4410   17.8500    9.5380 C.3     1  SV61        0.0019
     43  CAL       -9.4570   19.3660    9.5220 C.3     1  SV61        0.0001
     44  CAM      -11.7240   14.9580    7.0290 C.2     1  SV61        0.2736
     45  CAN      -13.6030   13.5820    7.8110 C.3     1  SV61        0.0955
     46  CAO      -13.9760   12.9340    9.1410 C.3     1  SV61        0.0234
     47  CAP      -14.2050   14.4260    8.9300 C.3     1  SV61        0.0234
     48  OBR       -9.7450   13.7220    6.7540 O.3     1  SV61       -0.2113
     49  OBS      -12.4720   15.8300    6.5810 O.2     1  SV61       -0.2705
@<TRIPOS>BOND
     1    49    44    2
     2    48    40    1
     3    40    44    1
     4    40    39    1
     5    44    37   am
     6    37    45    1
     7    45    47    1
     8    45    46    1
     9    33    34    1
    10    33    31    1
    11    39    41    1
    12    39    38    1
    13    41    42    1
    14    38    27   am
    15    34    36    1
    16    16    17    1
    17    16    15    1
    18    47    46    1
    19    31    30    1
    20    31    32    1
    21    17    18    1
    22    27    30    1
    23    27    29    2
    24    30    28    1
    25    43    42    1
    26    36    32    1
    27    15    14    1
    28    18    13    1
    29    26    25    2
    30    32    35    1
    31    28    25   am
    32    28    35    1
    33    25    20    1
    34    14    13    1
    35    13    10    1
    36    19    20    1
    37    19    11   am
    38    20    21    1
    39    10    11    1
    40    10     9    1
    41    11    12    2
    42    22    21    1
    43    21    24    1
    44    21    23    1
    45     9     4   am
    46     6     4    2
    47     4     1    1
    48     1     5   ar
    49     1     7   ar
    50     5     8   ar
    51     7     2   ar
    52     8     3   ar
    53     2     3   ar
