@<TRIPOS>MOLECULE
3sv9_SV6_A_1.pdb
 49 53 0 0 0
SMALL
GASTEIGER

@<TRIPOS>ATOM
      1  CBN      -24.0150   -9.2160   13.1730 C.ar    1  SV61        0.1552
      2  CBO      -25.6340   -8.5070   11.6750 C.ar    1  SV61        0.1196
      3  CBP      -26.2630   -9.7500   11.7730 C.ar    1  SV61        0.1195
      4  CBB      -22.7340   -8.9340   13.9790 C.2     1  SV61        0.2845
      5  CBQ      -24.6560  -10.4550   13.2610 C.ar    1  SV61        0.1226
      6  OBW      -22.4700   -7.8000   14.3810 O.2     1  SV61       -0.2666
      7  NAF      -24.5310   -8.2650   12.3720 N.ar    1  SV61       -0.2360
      8  NAG      -25.7580  -10.6890   12.5620 N.ar    1  SV61       -0.2390
      9  NAD      -21.9590   -9.9930   14.2040 N.am    1  SV61       -0.1927
     10  CAY      -20.6930   -9.8900   14.9470 C.3     1  SV61        0.1730
     11  CAX      -19.5690   -9.6830   13.9230 C.2     1  SV61        0.2616
     12  OBU      -19.6280  -10.2050   12.8090 O.2     1  SV61       -0.2715
     13  CBH      -20.4870  -11.1580   15.7860 C.3     1  SV61        0.0290
     14  CBI      -21.7610  -11.5000   16.5710 C.3     1  SV61        0.0022
     15  CBJ      -21.6050  -12.8250   17.3220 C.3     1  SV61        0.0001
     16  CBK      -20.4010  -12.7910   18.2700 C.3     1  SV61        0.0000
     17  CBL      -19.1210  -12.3170   17.5600 C.3     1  SV61        0.0001
     18  CBM      -19.3360  -11.0110   16.7820 C.3     1  SV61        0.0022
     19  NAC      -18.5950   -8.8520   14.2940 N.am    1  SV61       -0.1964
     20  CAW      -17.4630   -8.5460   13.3910 C.3     1  SV61        0.1711
     21  CAZ      -17.5630   -7.1030   12.8250 C.3     1  SV61        0.0269
     22  CBC      -17.9060   -6.0570   13.9000 C.3     1  SV61        0.0022
     23  CBD      -18.6310   -7.0630   11.7280 C.3     1  SV61        0.0022
     24  CBA      -16.2150   -6.7080   12.2070 C.3     1  SV61        0.0022
     25  CAV      -16.1570   -8.7440   14.1550 C.2     1  SV61        0.2458
     26  OBT      -15.9920   -8.1490   15.2240 O.2     1  SV61       -0.2730
     27  C        -13.1000   -8.5740   14.0960 C.2     1  SV61        0.2595
     28  N        -15.2160   -9.5850   13.6980 N.am    1  SV61       -0.2716
     29  O        -12.8810   -8.2160   12.9420 O.2     1  SV61       -0.2716
     30  CA       -13.9280   -9.8060   14.3740 C.3     1  SV61        0.1535
     31  CB       -13.2960  -11.0400   13.7190 C.3     1  SV61        0.0288
     32  CG       -14.0350  -11.2450   12.3830 C.3     1  SV61        0.0219
     33  CBE      -13.6010  -12.3020   14.5300 C.3     1  SV61        0.0022
     34  CBF      -13.6120  -13.3840   13.4640 C.3     1  SV61        0.0001
     35  CD1      -15.3060  -10.3540   12.4390 C.3     1  SV61        0.0939
     36  CD2      -14.4400  -12.7290   12.3560 C.3     1  SV61        0.0018
     37  NAA       -9.8550   -5.4990   13.1950 N.am    1  SV61       -0.2050
     38  NAE      -12.6890   -7.9030   15.1650 N.am    1  SV61       -0.2027
     39  CAH      -11.9570   -6.6280   14.9810 C.3     1  SV61        0.1347
     40  CAI      -10.4800   -6.9250   14.9580 C.3     1  SV61        0.2487
     41  CAJ      -12.2830   -5.6060   16.0970 C.3     1  SV61        0.0248
     42  CAK      -13.6070   -4.8740   15.8800 C.3     1  SV61        0.0019
     43  CAL      -14.7130   -5.8530   15.5170 C.3     1  SV61        0.0001
     44  CAM       -9.6740   -5.7970   14.4790 C.2     1  SV61        0.2736
     45  CAN       -9.0670   -4.5000   12.4650 C.3     1  SV61        0.0955
     46  CAO       -7.9950   -5.1120   11.5690 C.3     1  SV61        0.0234
     47  CAP       -9.2570   -4.5240   10.9480 C.3     1  SV61        0.0234
     48  OBR      -10.1150   -8.0060   14.1320 O.3     1  SV61       -0.2113
     49  OBS       -8.8850   -5.2740   15.2560 O.2     1  SV61       -0.2705
@<TRIPOS>BOND
     1    47    46    1
     2    47    45    1
     3    46    45    1
     4     2     3   ar
     5     2     7   ar
     6    23    21    1
     7     3     8   ar
     8    24    21    1
     9    36    32    1
    10    36    34    1
    11     7     1   ar
    12    32    35    1
    13    32    31    1
    14    35    28    1
    15    45    37    1
    16     8     5   ar
    17    12    11    2
    18    21    20    1
    19    21    22    1
    20    29    27    2
    21     1     5   ar
    22     1     4    1
    23    37    44   am
    24    20    25    1
    25    20    19    1
    26    34    33    1
    27    28    25   am
    28    28    30    1
    29    31    30    1
    30    31    33    1
    31    11    19   am
    32    11    10    1
    33     4     9   am
    34     4     6    2
    35    27    30    1
    36    27    38   am
    37    48    40    1
    38    25    26    2
    39     9    10    1
    40    44    40    1
    41    44    49    2
    42    10    13    1
    43    40    39    1
    44    39    38    1
    45    39    41    1
    46    43    42    1
    47    13    14    1
    48    13    18    1
    49    42    41    1
    50    14    15    1
    51    18    17    1
    52    15    16    1
    53    17    16    1
