@<TRIPOS>MOLECULE
3svf_WDR_A_1.pdb
 23 25 0 0 0
SMALL
GASTEIGER

@<TRIPOS>ATOM
      1  CAA       27.8540   24.7970   21.2430 C.1     1  WDR1        0.2702
      2  NAB       28.4290   25.2110   20.0080 N.2     1  WDR1       -0.3255
      3  CAC       29.1030   26.4210   19.8710 C.2     1  WDR1        0.1274
      4  CAD       29.3070   27.2320   20.9820 C.2     1  WDR1        0.0514
      5  CAE       28.8500   26.7620   22.3730 C.3     1  WDR1        0.2286
      6  CAF       29.9590   28.4470   20.8240 C.2     1  WDR1        0.0019
      7  CAG       30.3470   28.8710   19.5600 C.2     1  WDR1       -0.0000
      8  CAH       30.9860   30.1170   19.4380 C.ar    1  WDR1        0.0493
      9  CAI       30.4950   31.3200   19.9490 C.ar    1  WDR1        0.1544
     10  OAJ       31.4080   32.3190   19.6560 O.2     1  WDR1       -0.3581
     11  CAK       29.1710   31.4800   20.7070 C.3     1  WDR1        0.0754
     12  CAL       32.1930   30.3770   18.7890 C.ar    1  WDR1        0.1006
     13  NAM       32.4950   31.6810   18.9230 N.ar    1  WDR1       -0.0817
     14  CAN       33.0720   29.3400   18.1130 C.3     1  WDR1        0.0556
     15  CAO       29.4760   26.8490   18.5980 C.3     1  WDR1        0.0858
     16  CAP       30.1220   28.0690   18.4530 C.2     1  WDR1       -0.0185
     17  NAQ       28.0400   25.5290   22.4040 N.am    1  WDR1       -0.1981
     18  CAR       27.4820   25.0790   23.7150 C.3     1  WDR1        0.1287
     19  OAS       27.2180   23.7380   21.2780 O.2     1  WDR1       -0.1929
     20  OAT       29.9380   26.3980   23.2760 O.3     1  WDR1       -0.3308
     21  CAU       30.9380   25.4970   22.7460 C.3     1  WDR1        0.1799
     22  CAV       31.8720   25.2350   23.9400 C.3     1  WDR1        0.2141
     23  OAW       31.0550   24.9060   25.0600 O.3     1  WDR1       -0.2176
@<TRIPOS>BOND
     1    14    12    1
     2    16    15    1
     3    16     7    2
     4    15     3    1
     5    12    13   ar
     6    12     8   ar
     7    13    10   ar
     8     8     7    1
     9     8     9   ar
    10     7     6    1
    11    10     9   ar
    12     3     2    2
    13     3     4    1
    14     9    11    1
    15     2     1    2
    16     6     4    2
    17     4     5    1
    18     1    19    2
    19     1    17   am
    20     5    17    1
    21     5    20    1
    22    17    18    1
    23    21    20    1
    24    21    22    1
    25    22    23    1
