@<TRIPOS>MOLECULE
3svg_ODR_A_1.pdb
 19 20 0 0 0
SMALL
GASTEIGER

@<TRIPOS>ATOM
      1  CAA       25.6550   14.6910    1.5490 C.3   169  ODR169      0.0512
      2  CAB       27.0040   15.0630    0.9450 C.3   169  ODR169      0.2055
      3  OAC       26.8000   15.1510   -0.4880 O.3   169  ODR169     -0.4755
      4  CAD       27.8860   15.5390   -1.2010 C.ar  169  ODR169      0.1383
      5  CAE       27.6360   15.7840   -2.5360 C.ar  169  ODR169      0.0351
      6  CAF       28.6260   16.1910   -3.4130 C.ar  169  ODR169      0.0107
      7  CAG       29.9330   16.3410   -2.9300 C.ar  169  ODR169     -0.0015
      8  CAH       30.2110   16.0930   -1.5660 C.ar  169  ODR169      0.0067
      9  CAI       29.1840   15.7050   -0.7060 C.ar  169  ODR169      0.0370
     10  CAJ       31.5140   16.3490   -1.0890 C.ar  169  ODR169      0.0497
     11  CAK       31.8370   17.2400   -0.0460 C.ar  169  ODR169      0.1006
     12  CAL       30.9360   18.0500    0.8690 C.3   169  ODR169      0.0556
     13  NAM       33.1560   17.3370    0.1250 N.ar  169  ODR169     -0.0817
     14  OAN       33.7390   16.5150   -0.8440 O.2   169  ODR169     -0.3581
     15  CAO       32.7490   15.9330   -1.5890 C.ar  169  ODR169      0.1544
     16  CAP       33.0370   14.9530   -2.7360 C.3   169  ODR169      0.0754
     17  CAQ       28.1430   16.4270   -4.8650 C.3   169  ODR169      0.1744
     18  OAR       29.0190   16.0100   -5.8920 O.3   169  ODR169     -0.2183
     19  CAS       27.8230   17.8960   -5.0470 C.3   169  ODR169      0.0405
@<TRIPOS>BOND
     1    18    17    1
     2    19    17    1
     3    17     6    1
     4     6     7   ar
     5     6     5   ar
     6     7     8   ar
     7    16    15    1
     8     5     4   ar
     9    15    10   ar
    10    15    14   ar
    11     8    10    1
    12     8     9   ar
    13     4     9   ar
    14     4     3    1
    15    10    11   ar
    16    14    13   ar
    17     3     2    1
    18    11    13   ar
    19    11    12    1
    20     2     1    1
