@<TRIPOS>MOLECULE
3svh_KRG_A_1.pdb
 19 20 0 0 0
SMALL
GASTEIGER

@<TRIPOS>ATOM
      1  CAA        2.1340   13.5900    5.2910 C.3     1  KRG1        0.0512
      2  CAB        1.4580   14.8940    5.7240 C.3     1  KRG1        0.2055
      3  OAC        1.6940   15.1370    7.1130 O.3     1  KRG1       -0.4755
      4  CAD        1.1420   16.2670    7.6570 C.ar    1  KRG1        0.1388
      5  CAE        0.3750   17.1580    6.9150 C.ar    1  KRG1        0.0435
      6  CAF       -0.1690   18.2840    7.5430 C.ar    1  KRG1        0.0828
      7  CAG        0.1120   18.5180    8.9040 C.ar    1  KRG1        0.0069
      8  CAH        0.8890   17.6550    9.6500 C.ar    1  KRG1        0.0072
      9  CAI        1.3960   16.5190    9.0050 C.ar    1  KRG1        0.0370
     10  CAJ        1.1620   17.9050   11.0240 C.ar    1  KRG1        0.0497
     11  CAK        2.3940   17.8540   11.6560 C.ar    1  KRG1        0.1006
     12  CAL        3.7730   17.5090   11.0650 C.3     1  KRG1        0.0556
     13  NAM        2.2800   18.1440   12.9650 N.ar    1  KRG1       -0.0817
     14  OAN        0.9080   18.4270   13.2270 O.2     1  KRG1       -0.3581
     15  CAO        0.2450   18.2750   12.0110 C.ar    1  KRG1        0.1544
     16  CAP       -1.2520   18.4840   11.9010 C.3     1  KRG1        0.0754
     17  CAQ       -0.9640   19.2770    6.7550 C.2     1  KRG1        0.3879
     18  OAR       -1.5060   18.8550    5.7010 O.co2   1  KRG1       -0.2406
     19  OAS       -0.9280   20.4790    7.1650 O.co2   1  KRG1       -0.2406
@<TRIPOS>BOND
     1     1     2    1
     2    18    17   ar
     3     2     3    1
     4    17    19   ar
     5    17     6    1
     6     5     6   ar
     7     5     4   ar
     8     3     4    1
     9     6     7   ar
    10     4     9   ar
    11     7     8   ar
    12     9     8   ar
    13     8    10    1
    14    10    11   ar
    15    10    15   ar
    16    12    11    1
    17    11    13   ar
    18    16    15    1
    19    15    14   ar
    20    13    14   ar
