@<TRIPOS>MOLECULE
3svj_4LI_P_1.pdb
 40 44 0 0 0
SMALL
GASTEIGER

@<TRIPOS>ATOM
      1  C1        20.0290   -8.6810    0.1580 C.ar  207  4LI207      0.0013
      2  C2        19.2690   -7.6980   -0.4310 C.ar  207  4LI207      0.0009
      3  C3        21.3210  -12.6650    8.8860 C.ar  207  4LI207     -0.0001
      4  C4        22.6600  -12.8690    8.6580 C.ar  207  4LI207      0.0059
      5  C5        20.8740  -11.4310    9.2950 C.ar  207  4LI207     -0.0029
      6  C6        20.4940   -8.5240    1.4440 C.ar  207  4LI207      0.0154
      7  C7        18.9760   -6.5540    0.2720 C.ar  207  4LI207      0.0126
      8  C8        23.5280  -11.8210    8.8510 C.ar  207  4LI207      0.0708
      9  C9        21.7550  -10.3910    9.4830 C.ar  207  4LI207     -0.0056
     10  C10       20.2060   -7.3830    2.1540 C.ar  207  4LI207      0.0586
     11  C11       23.0990  -10.5790    9.2600 C.ar  207  4LI207      0.0840
     12  C12       19.4450   -6.4050    1.5550 C.ar  207  4LI207      0.0709
     13  C13       23.3600   -7.5640    6.5550 C.1   207  4LI207      0.2250
     14  C14       25.0340   -6.5900    7.7530 C.1   207  4LI207      0.2260
     15  C15       24.0680   -8.5070    8.4870 C.1   207  4LI207      0.2463
     16  C16       24.9470  -12.0580    8.5980 C.2   207  4LI207      0.2661
     17  C17       26.0060   -4.5660    5.7340 C.2   207  4LI207      0.2611
     18  C18       20.8040   -8.4960    4.1170 C.3   207  4LI207      0.1131
     19  C19       21.8960   -6.4250    3.4160 C.3   207  4LI207      0.1131
     20  C20       21.2920   -8.2640    5.5330 C.3   207  4LI207      0.1246
     21  C21       22.4590   -6.2390    4.8060 C.3   207  4LI207      0.1246
     22  C22       26.3060   -3.2010    7.7740 C.3   207  4LI207      0.0891
     23  C23       26.2000   -5.3140    9.3230 C.3   207  4LI207      0.1617
     24  C24       25.5850   -4.3850    7.1670 C.3   207  4LI207      0.1735
     25  C25       21.2500   -9.0650    9.9290 C.3   207  4LI207      0.0324
     26  C26       26.9900  -12.9670    9.5400 C.3   207  4LI207      0.1388
     27  C27       27.3660   -5.8800    4.2280 C.3   207  4LI207      0.1386
     28  N28       24.2420   -6.5700    6.6820 N.2   207  4LI207     -0.2463
     29  N29       23.2430   -8.5610    7.4370 N.2   207  4LI207     -0.2448
     30  N30       24.9740   -7.5460    8.6820 N.2   207  4LI207     -0.2448
     31  N31       20.6730   -7.2050    3.4680 N.pl3 207  4LI207     -0.3034
     32  N32       22.5410   -7.5470    5.4150 N.pl3 207  4LI207     -0.2295
     33  N33       25.9840   -5.5650    7.9160 N.pl3 207  4LI207     -0.2143
     34  N34       23.9900   -9.5200    9.4510 N.pl3 207  4LI207     -0.1244
     35  N35       25.6090  -12.5910    9.6650 N.am  207  4LI207     -0.1997
     36  N36       26.9060   -5.5850    5.5590 N.am  207  4LI207     -0.2021
     37  O37       25.4250  -11.7920    7.5050 O.2   207  4LI207     -0.2683
     38  O38       25.5720   -3.8780    4.8220 O.2   207  4LI207     -0.2715
     39  S39       26.3700   -3.5310    9.5500 S.3   207  4LI207     -0.1157
     40 CL40       19.0750   -4.9710    2.4310 Cl    207  4LI207     -0.0810
@<TRIPOS>BOND
     1     2     1   ar
     2     2     7   ar
     3     1     6   ar
     4     7    12   ar
     5     6    10   ar
     6    12    10   ar
     7    12    40    1
     8    10    31    1
     9    19    31    1
    10    19    21    1
    11    31    18    1
    12    18    20    1
    13    27    36    1
    14    21    32    1
    15    38    17    2
    16    32    20    1
    17    32    13    1
    18    36    17   am
    19    17    24    1
    20    13    28    2
    21    13    29    2
    22    28    14    2
    23    24    22    1
    24    24    33    1
    25    29    15    2
    26    37    16    2
    27    14    33    1
    28    14    30    2
    29    22    39    1
    30    33    23    1
    31    15    30    2
    32    15    34    1
    33    16     8    1
    34    16    35   am
    35     4     8   ar
    36     4     3   ar
    37     8    11   ar
    38     3     5   ar
    39    11    34    1
    40    11     9   ar
    41     5     9   ar
    42    23    39    1
    43     9    25    1
    44    26    35    1
