@<TRIPOS>MOLECULE
3svl_FMN_A_1.pdb
 31 33 0 0 0
SMALL
GASTEIGER

@<TRIPOS>ATOM
      1  N1        94.0280   51.5940    8.9910 N.2   200  FMN200     -0.2890
      2  C2        93.4400   51.4330    7.7770 C.1   200  FMN200      0.3669
      3  O2        93.6440   52.2930    6.9090 O.2   200  FMN200     -0.1744
      4  N3        92.6230   50.3410    7.4940 N.2   200  FMN200     -0.2300
      5  C4        92.3570   49.3410    8.4300 C.1   200  FMN200      0.2513
      6  O4        91.6430   48.3940    8.1640 O.2   200  FMN200     -0.2057
      7  C4A       92.9750   49.4740    9.7960 C.2   200  FMN200      0.2700
      8  N5        92.7690   48.5520   10.8490 N.2   200  FMN200     -0.3878
      9  C5A       93.0400   48.8900   12.1070 C.2   200  FMN200      0.1320
     10  C6        92.3370   48.1810   13.1670 C.2   200  FMN200      0.0250
     11  C7        92.4480   48.5990   14.5100 C.2   200  FMN200     -0.0238
     12  C7M       91.6700   47.8190   15.5550 C.3   200  FMN200      0.0308
     13  C8        93.2980   49.7600   14.8570 C.2   200  FMN200     -0.0280
     14  C8M       93.3970   50.3050   16.2770 C.3   200  FMN200      0.0304
     15  C9        93.9750   50.4730   13.8340 C.2   200  FMN200     -0.0041
     16  C9A       93.8930   50.0620   12.4560 C.3   200  FMN200      0.1497
     17  N10       94.4680   50.8940   11.2590 N.pl3 200  FMN200     -0.2691
     18  C10       93.8610   50.7120   10.0090 C.2   200  FMN200      0.2416
     19  C1'       95.4760   51.9690   11.4430 C.3   200  FMN200      0.1294
     20  C2'       94.7720   53.2840   11.7730 C.3   200  FMN200      0.2044
     21  O2'       94.4430   53.9390   10.5660 O.3   200  FMN200     -0.2185
     22  C3'       95.6960   54.1510   12.6810 C.3   200  FMN200      0.2164
     23  O3'       96.0020   53.4290   13.8940 O.3   200  FMN200     -0.2175
     24  C4'       95.0560   55.5370   13.0630 C.3   200  FMN200      0.2147
     25  O4'       96.1210   56.4720   13.1820 O.3   200  FMN200     -0.2176
     26  C5'       93.9280   55.4070   14.1080 C.3   200  FMN200      0.1892
     27  O5'       93.0080   56.5200   14.0720 O.3   200  FMN200     -0.2674
     28  P         93.3400   57.5950   15.2830 P.3   200  FMN200      0.5327
     29  O1P       94.6970   58.1880   15.1270 O.2   200  FMN200     -0.2224
     30  O2P       92.2710   58.7740   15.2290 O.3   200  FMN200     -0.1145
     31  O3P       93.2830   56.8640   16.7110 O.3   200  FMN200     -0.1145
@<TRIPOS>BOND
     1     3     2    2
     2     4     2    2
     3     4     5    2
     4     2     1    2
     5     6     5    2
     6     5     7    1
     7     1    18    2
     8     7    18    1
     9     7     8    2
    10    18    17    1
    11    21    20    1
    12     8     9    2
    13    17    19    1
    14    17    16    1
    15    19    20    1
    16    20    22    1
    17     9    16    1
    18     9    10    1
    19    16    15    1
    20    22    24    1
    21    22    23    1
    22    24    25    1
    23    24    26    1
    24    10    11    2
    25    15    13    2
    26    27    26    1
    27    27    28    1
    28    11    13    1
    29    11    12    1
    30    13    14    1
    31    29    28    2
    32    30    28    1
    33    28    31    1
