@<TRIPOS>MOLECULE
3svp_H4B_A_1.pdb
 17 18 0 0 0
SMALL
GASTEIGER

@<TRIPOS>ATOM
      1  N1         9.8860    2.3750   33.6630 N.2   760  H4B760     -0.2683
      2  C2        10.0760    2.0080   32.3770 C.1   760  H4B760      0.2608
      3  N2        11.3440    1.9010   31.8890 N.pl3 760  H4B760     -0.0220
      4  N3         9.0050    1.7550   31.5960 N.2   760  H4B760     -0.2474
      5  C4         7.7530    1.8610   32.0590 C.1   760  H4B760      0.2441
      6  O4         6.8050    1.5750   31.2740 O.2   760  H4B760     -0.2063
      7  C4A        7.5570    2.2700   33.3790 C.2   760  H4B760      0.2463
      8  C8A        8.6710    2.5520   34.1580 C.1   760  H4B760      0.1270
      9  N5         6.3090    2.4220   33.9300 N.2   760  H4B760     -0.2460
     10  N8         8.5790    2.9350   35.4550 N.2   760  H4B760     -0.2054
     11  C6         6.1900    3.3240   35.0570 C.3   760  H4B760      0.1627
     12  C7         7.2780    3.0570   36.0950 C.3   760  H4B760      0.1643
     13  C9         4.7890    3.3540   35.7000 C.3   760  H4B760      0.2063
     14  O9         4.5040    2.0650   36.2240 O.3   760  H4B760     -0.2183
     15  C10        4.7490    4.3630   36.8280 C.3   760  H4B760      0.1842
     16  C11        3.3600    4.5760   37.3800 C.3   760  H4B760      0.0383
     17  O10        5.2360    5.5990   36.3210 O.3   760  H4B760     -0.2204
@<TRIPOS>BOND
     1     6     5    2
     2     4     5    2
     3     4     2    2
     4     3     2    1
     5     5     7    1
     6     2     1    2
     7     7     9    2
     8     7     8    1
     9     1     8    2
    10     9    11    1
    11     8    10    2
    12    11    13    1
    13    11    12    1
    14    10    12    1
    15    13    14    1
    16    13    15    1
    17    17    15    1
    18    15    16    1
