@<TRIPOS>MOLECULE
3svp_HEM_A_1.pdb
 43 50 0 0 0
SMALL
GASTEIGER

@<TRIPOS>ATOM
      1  CHA       12.9920    4.6870   26.5680 C.2   750  HEM750      0.0000
      2  CHB       16.7800    1.7600   26.1390 C.2   750  HEM750      0.0000
      3  CHC       17.7790    3.4920   21.7840 C.2   750  HEM750      0.0000
      4  CHD       14.7790    7.2250   22.7480 C.2   750  HEM750      0.0000
      5  C1A       13.8660    3.6460   26.7450 C.2   750  HEM750      0.0000
      6  C2A       13.7030    2.5830   27.6800 C.2   750  HEM750      0.0000
      7  C3A       14.7410    1.7650   27.5750 C.2   750  HEM750      0.0000
      8  C4A       15.5910    2.2930   26.5350 C.2   750  HEM750      0.0000
      9  CMA       14.9760    0.4750   28.4000 C.3   750  HEM750      0.0000
     10  CAA       12.5060    2.4290   28.6190 C.3   750  HEM750      0.0000
     11  CBA       11.4030    2.1840   27.6020 C.3   750  HEM750      0.0000
     12  CGA       10.2210    1.4750   28.1730 C.2   750  HEM750      0.0000
     13  O1A       10.3750    0.9500   29.3180 O.co2 750  HEM750      0.0000
     14  O2A        9.1670    1.4730   27.4570 O.co2 750  HEM750      0.0000
     15  C1B       17.3520    1.9190   24.9180 C.ar  750  HEM750      0.0000
     16  C2B       18.4390    1.1170   24.4140 C.ar  750  HEM750      0.0000
     17  C3B       18.7260    1.5660   23.1930 C.ar  750  HEM750      0.0000
     18  C4B       17.8720    2.7160   22.9130 C.ar  750  HEM750      0.0000
     19  CMB       19.0720   -0.0920   25.1510 C.3   750  HEM750      0.0000
     20  CAB       19.8340    0.9490   22.3080 C.2   750  HEM750      0.0000
     21  CBB       20.3100    1.5960   21.2590 C.2   750  HEM750      0.0000
     22  C1C       16.9720    4.6170   21.6370 C.2   750  HEM750      0.0000
     23  C2C       16.9020    5.4210   20.4450 C.2   750  HEM750      0.0000
     24  C3C       16.0790    6.4520   20.7230 C.2   750  HEM750      0.0000
     25  C4C       15.6190    6.3430   22.0730 C.2   750  HEM750      0.0000
     26  CMC       17.6170    5.0800   19.0930 C.3   750  HEM750      0.0000
     27  CAC       15.6370    7.5980   19.8010 C.2   750  HEM750      0.0000
     28  CBC       16.3730    8.1230   18.8200 C.2   750  HEM750      0.0000
     29  C1D       13.9880    6.8200   23.8050 C.ar  750  HEM750      0.0000
     30  C2D       12.7830    7.4810   24.1970 C.ar  750  HEM750      0.0000
     31  C3D       12.2370    6.7100   25.3870 C.ar  750  HEM750      0.0000
     32  C4D       13.1660    5.6240   25.5670 C.ar  750  HEM750      0.0000
     33  CMD       12.2360    8.7990   23.5540 C.3   750  HEM750      0.0000
     34  CAD       10.9350    6.9900   26.2170 C.3   750  HEM750      0.0000
     35  CBD        9.7440    6.3790   25.4440 C.3   750  HEM750      0.0000
     36  CGD        8.4500    6.5780   26.1600 C.2   750  HEM750      0.0000
     37  O1D        8.2810    7.6400   26.8290 O.co2 750  HEM750      0.0000
     38  O2D        7.5810    5.6610   26.0600 O.co2 750  HEM750      0.0000
     39  NA        15.0630    3.4900   26.0970 N.2   750  HEM750      0.0000
     40  NB        17.1000    2.9530   24.0230 N.ar  750  HEM750      0.0000
     41  NC        16.2290    5.2600   22.6290 N.2   750  HEM750      0.0000
     42  ND        14.2590    5.7480   24.6710 N.ar  750  HEM750      0.0000
     43 FE         15.7390    4.4520   24.4010 Fe    750  HEM750      0.0000
@<TRIPOS>BOND
     1    28    27    2
     2    26    23    1
     3    27    24    1
     4    23    24    2
     5    23    22    1
     6    24    25    1
     7    21    20    2
     8    22     3    2
     9    22    41    1
    10     3    18    1
    11    25    41    2
    12    25     4    1
    13    20    17    1
    14    41    43    1
    15     4    29    2
    16    18    17   ar
    17    18    40   ar
    18    17    16   ar
    19    33    30    1
    20    29    30   ar
    21    29    42   ar
    22    40    43    1
    23    40    15   ar
    24    30    31   ar
    25    43    42    1
    26    43    39    1
    27    16    15   ar
    28    16    19    1
    29    42    32   ar
    30    15     2    1
    31    31    32   ar
    32    31    34    1
    33    35    36    1
    34    35    34    1
    35    32     1    2
    36    38    36   ar
    37    39     8    1
    38    39     5    2
    39     2     8    2
    40    36    37   ar
    41     8     7    1
    42     1     5    1
    43     5     6    1
    44    14    12   ar
    45     7     6    2
    46     7     9    1
    47    11    12    1
    48    11    10    1
    49     6    10    1
    50    12    13   ar
