@<TRIPOS>MOLECULE
3svp_JK5_A_1.pdb
 30 32 0 0 0
SMALL
GASTEIGER

@<TRIPOS>ATOM
      1  N01        5.1080    5.6060   26.7790 N.2   800  JK5800     -0.3924
      2  C02        4.7350    6.8230   27.2690 C.2   800  JK5800      0.2001
      3  N02        5.6580    7.8370   27.3500 N.pl3 800  JK5800     -0.0977
      4  C03        3.3840    6.9930   27.6880 C.3   800  JK5800      0.1001
      5  C04        2.4620    5.9340   27.5880 C.2   800  JK5800     -0.0332
      6  C05        2.8760    4.7040   27.0810 C.2   800  JK5800      0.0196
      7  C06        4.2270    4.5600   26.6870 C.2   800  JK5800      0.1098
      8  C07        1.0110    6.1130   28.0240 C.3   800  JK5800      0.0269
      9  C08        4.7200    3.2400   26.1310 C.3   800  JK5800      0.0629
     10  O09        6.1840    1.1630   25.4580 O.3   800  JK5800     -0.3532
     11  N1'        6.7970    1.3160   28.4780 N.3   800  JK5800     -0.2154
     12  C10        7.1530    0.1830   25.0870 C.3   800  JK5800      0.1609
     13  C11        7.9670    0.7920   23.9640 C.3   800  JK5800      0.1209
     14  N12        9.0120    1.6470   24.5040 N.3   800  JK5800     -0.2094
     15  C13       10.3970    1.1940   24.5860 C.3   800  JK5800      0.1596
     16  C14       10.7690    0.1080   23.5800 C.3   800  JK5800      0.2985
     17  F15       10.0830    0.2060   22.4400 F     800  JK5800     -0.1980
     18  F16       10.4560   -1.1060   24.0210 F     800  JK5800     -0.1980
     19  C2'        6.2470    0.1850   27.7440 C.3   800  JK5800      0.1182
     20  C21       12.2560    0.2570   23.2920 C.ar  800  JK5800      0.0423
     21  C22       13.2320   -0.4650   23.9780 C.ar  800  JK5800      0.0307
     22  C23       14.5780   -0.3070   23.6730 C.ar  800  JK5800      0.1408
     23  F23       15.5100   -0.9990   24.3030 F     800  JK5800     -0.2042
     24  C24       14.9880    0.5470   22.7020 C.ar  800  JK5800      0.0410
     25  C25       14.0270    1.2560   22.0390 C.ar  800  JK5800      0.0598
     26 CL25       14.5630    2.3490   20.7810 Cl    800  JK5800     -0.0822
     27  C26       12.6790    1.1450   22.3020 C.ar  800  JK5800      0.0125
     28  C3'        5.4120    0.8540   26.6390 C.3   800  JK5800      0.1343
     29  C4'        4.9820    2.1980   27.2290 C.3   800  JK5800      0.0531
     30  C5'        6.1350    2.5820   28.1620 C.3   800  JK5800      0.0916
@<TRIPOS>BOND
     1    26    25    1
     2    25    27   ar
     3    25    24   ar
     4    27    20   ar
     5    17    16    1
     6    24    22   ar
     7    20    16    1
     8    20    21   ar
     9    16    18    1
    10    16    15    1
    11    22    21   ar
    12    22    23    1
    13    13    14    1
    14    13    12    1
    15    14    15    1
    16    12    10    1
    17    10    28    1
    18     9     7    1
    19     9    29    1
    20    28    29    1
    21    28    19    1
    22     7     1    2
    23     7     6    1
    24     1     2    2
    25     6     5    2
    26    29    30    1
    27     2     3    1
    28     2     4    1
    29     5     4    1
    30     5     8    1
    31    19    11    1
    32    30    11    1
