@<TRIPOS>MOLECULE
3svq_H4B_A_1.pdb
 17 18 0 0 0
SMALL
GASTEIGER

@<TRIPOS>ATOM
      1  N1         9.8850    2.3730   33.8410 N.2   760  H4B760     -0.2683
      2  C2        10.1410    1.9380   32.5860 C.1   760  H4B760      0.2608
      3  N2        11.4350    1.8170   32.1360 N.pl3 760  H4B760     -0.0220
      4  N3         9.0910    1.6430   31.8080 N.2   760  H4B760     -0.2474
      5  C4         7.8230    1.7640   32.2710 C.1   760  H4B760      0.2441
      6  O4         6.9200    1.4380   31.4710 O.2   760  H4B760     -0.2063
      7  C4A        7.5660    2.2420   33.5680 C.2   760  H4B760      0.2463
      8  C8A        8.6610    2.5640   34.3360 C.1   760  H4B760      0.1270
      9  N5         6.3090    2.4160   34.1260 N.2   760  H4B760     -0.2460
     10  N8         8.5560    3.0090   35.6180 N.2   760  H4B760     -0.2054
     11  C6         6.1770    3.3760   35.2240 C.3   760  H4B760      0.1627
     12  C7         7.2820    3.2000   36.2710 C.3   760  H4B760      0.1643
     13  C9         4.8070    3.3660   35.8930 C.3   760  H4B760      0.2063
     14  O9         4.5540    2.0620   36.4110 O.3   760  H4B760     -0.2183
     15  C10        4.7160    4.3540   37.0420 C.3   760  H4B760      0.1842
     16  C11        3.2850    4.4890   37.4960 C.3   760  H4B760      0.0383
     17  O10        5.1240    5.6260   36.5780 O.3   760  H4B760     -0.2204
@<TRIPOS>BOND
     1     6     5    2
     2     4     5    2
     3     4     2    2
     4     3     2    1
     5     5     7    1
     6     2     1    2
     7     7     9    2
     8     7     8    1
     9     1     8    2
    10     9    11    1
    11     8    10    2
    12    11    13    1
    13    11    12    1
    14    10    12    1
    15    13    14    1
    16    13    15    1
    17    17    15    1
    18    15    16    1
