@<TRIPOS>MOLECULE
3svq_JK4_A_1.pdb
 30 32 0 0 0
SMALL
GASTEIGER

@<TRIPOS>ATOM
      1  N01        5.1720    5.6700   26.9140 N.2   800  JK4800     -0.3924
      2  C02        4.5550    6.8220   27.2790 C.2   800  JK4800      0.2001
      3  N02        5.2760    7.9790   27.3460 N.pl3 800  JK4800     -0.0977
      4  C03        3.1840    6.7870   27.5780 C.3   800  JK4800      0.1001
      5  C04        2.4750    5.5800   27.4960 C.2   800  JK4800     -0.0332
      6  C05        3.1510    4.4160   27.1190 C.2   800  JK4800      0.0196
      7  C06        4.5240    4.4780   26.8310 C.2   800  JK4800      0.1098
      8  C07        0.9990    5.5330   27.8170 C.3   800  JK4800      0.0269
      9  C08        5.3270    3.2560   26.4020 C.3   800  JK4800      0.0629
     10  O09        6.9620    1.0830   25.9570 O.3   800  JK4800     -0.3532
     11  N1'        6.5080    0.9080   28.9280 N.3   800  JK4800     -0.2154
     12  C10        7.0870    0.2660   24.8020 C.3   800  JK4800      0.1609
     13  C11        8.2720    0.7800   24.0090 C.3   800  JK4800      0.1209
     14  N12        9.4390    0.0410   24.4180 N.3   800  JK4800     -0.2094
     15  C13       10.6140    0.0240   23.5830 C.3   800  JK4800      0.1597
     16  C14       11.6410    0.9770   24.1970 C.3   800  JK4800      0.3006
     17  F15       11.7280    0.8160   25.4920 F     800  JK4800     -0.1979
     18  F16       11.2060    2.2120   24.0540 F     800  JK4800     -0.1979
     19  C2'        6.2380   -0.0910   27.9160 C.3   800  JK4800      0.1182
     20  C21       13.0090    0.7450   23.5770 C.ar  800  JK4800      0.0689
     21  C22       13.3820    1.4800   22.4760 C.ar  800  JK4800      0.1685
     22  F22       12.6080    2.3960   21.9220 F     800  JK4800     -0.2020
     23  C23       14.5740    1.3200   21.8780 C.ar  800  JK4800      0.1672
     24  F23       14.7530    2.1220   20.8040 F     800  JK4800     -0.2018
     25  C24       15.4780    0.3890   22.3780 C.ar  800  JK4800      0.0319
     26  C25       15.1420   -0.3890   23.4860 C.ar  800  JK4800      0.0023
     27  C26       13.9040   -0.2020   24.0720 C.ar  800  JK4800      0.0034
     28  C3'        5.8030    0.7560   26.7250 C.3   800  JK4800      0.1343
     29  C4'        5.1960    2.0300   27.3140 C.3   800  JK4800      0.0531
     30  C5'        5.9280    2.2140   28.6380 C.3   800  JK4800      0.0916
@<TRIPOS>BOND
     1    24    23    1
     2    23    25   ar
     3    23    21   ar
     4    22    21    1
     5    25    26   ar
     6    21    20   ar
     7    26    27   ar
     8    20    27   ar
     9    20    16    1
    10    15    16    1
    11    15    14    1
    12    13    14    1
    13    13    12    1
    14    18    16    1
    15    16    17    1
    16    12    10    1
    17    10    28    1
    18     9     7    1
    19     9    29    1
    20    28    29    1
    21    28    19    1
    22     7     1    2
    23     7     6    1
    24     1     2    2
    25     6     5    2
    26     2     3    1
    27     2     4    1
    28    29    30    1
    29     5     4    1
    30     5     8    1
    31    19    11    1
    32    30    11    1
