@<TRIPOS>MOLECULE
3svq_HEM_A_1.pdb
 43 50 0 0 0
SMALL
GASTEIGER

@<TRIPOS>ATOM
      1  CHA       13.0070    4.6980   26.6820 C.2   750  HEM750      0.0000
      2  CHB       16.7530    1.7450   26.2660 C.2   750  HEM750      0.0000
      3  CHC       17.6870    3.3720   21.7830 C.2   750  HEM750      0.0000
      4  CHD       14.8430    7.1450   22.8490 C.2   750  HEM750      0.0000
      5  C1A       13.8510    3.6610   26.8820 C.2   750  HEM750      0.0000
      6  C2A       13.6920    2.6610   27.8840 C.2   750  HEM750      0.0000
      7  C3A       14.7150    1.8190   27.7710 C.2   750  HEM750      0.0000
      8  C4A       15.5650    2.3010   26.6870 C.2   750  HEM750      0.0000
      9  CMA       14.9570    0.5580   28.6440 C.3   750  HEM750      0.0000
     10  CAA       12.4680    2.5820   28.8200 C.3   750  HEM750      0.0000
     11  CBA       11.4480    1.9500   27.8760 C.3   750  HEM750      0.0000
     12  CGA       10.2850    1.2740   28.5340 C.2   750  HEM750      0.0000
     13  O1A       10.4480    0.7490   29.6810 O.co2 750  HEM750      0.0000
     14  O2A        9.2060    1.2750   27.8560 O.co2 750  HEM750      0.0000
     15  C1B       17.2990    1.8840   25.0240 C.ar  750  HEM750      0.0000
     16  C2B       18.3920    1.0860   24.4890 C.ar  750  HEM750      0.0000
     17  C3B       18.6470    1.5270   23.2550 C.ar  750  HEM750      0.0000
     18  C4B       17.7930    2.6610   22.9750 C.ar  750  HEM750      0.0000
     19  CMB       19.1390   -0.1030   25.1920 C.3   750  HEM750      0.0000
     20  CAB       19.7380    0.8860   22.3770 C.2   750  HEM750      0.0000
     21  CBB       20.3670    1.5490   21.3990 C.2   750  HEM750      0.0000
     22  C1C       16.9230    4.5310   21.6390 C.2   750  HEM750      0.0000
     23  C2C       16.9340    5.4000   20.4750 C.2   750  HEM750      0.0000
     24  C3C       16.1700    6.4600   20.8120 C.2   750  HEM750      0.0000
     25  C4C       15.6730    6.2980   22.1510 C.2   750  HEM750      0.0000
     26  CMC       17.6910    5.1000   19.1260 C.3   750  HEM750      0.0000
     27  CAC       15.8060    7.6730   19.9700 C.2   750  HEM750      0.0000
     28  CBC       16.2020    7.7020   18.7030 C.2   750  HEM750      0.0000
     29  C1D       14.0090    6.7560   23.8950 C.ar  750  HEM750      0.0000
     30  C2D       12.8250    7.4640   24.2950 C.ar  750  HEM750      0.0000
     31  C3D       12.2650    6.6930   25.4800 C.ar  750  HEM750      0.0000
     32  C4D       13.1860    5.6120   25.6730 C.ar  750  HEM750      0.0000
     33  CMD       12.2210    8.7590   23.6730 C.3   750  HEM750      0.0000
     34  CAD       10.9900    6.9710   26.3310 C.3   750  HEM750      0.0000
     35  CBD        9.7580    6.4140   25.6040 C.3   750  HEM750      0.0000
     36  CGD        8.5040    6.5290   26.4400 C.2   750  HEM750      0.0000
     37  O1D        8.2260    7.6060   27.0490 O.co2 750  HEM750      0.0000
     38  O2D        7.7590    5.5050   26.5000 O.co2 750  HEM750      0.0000
     39  NA        15.0330    3.4770   26.2070 N.2   750  HEM750      0.0000
     40  NB        16.9980    2.8890   24.1050 N.ar  750  HEM750      0.0000
     41  NC        16.1540    5.1360   22.6290 N.2   750  HEM750      0.0000
     42  ND        14.2550    5.6980   24.7810 N.ar  750  HEM750      0.0000
     43 FE         15.6430    4.3800   24.5040 Fe    750  HEM750      0.0000
@<TRIPOS>BOND
     1    28    27    2
     2    26    23    1
     3    27    24    1
     4    23    24    2
     5    23    22    1
     6    24    25    1
     7    21    20    2
     8    22     3    2
     9    22    41    1
    10     3    18    1
    11    25    41    2
    12    25     4    1
    13    20    17    1
    14    41    43    1
    15     4    29    2
    16    18    17   ar
    17    18    40   ar
    18    17    16   ar
    19    33    30    1
    20    29    30   ar
    21    29    42   ar
    22    40    43    1
    23    40    15   ar
    24    30    31   ar
    25    16    15   ar
    26    16    19    1
    27    43    42    1
    28    43    39    1
    29    42    32   ar
    30    15     2    1
    31    31    32   ar
    32    31    34    1
    33    35    34    1
    34    35    36    1
    35    32     1    2
    36    39     8    1
    37    39     5    2
    38     2     8    2
    39    36    38   ar
    40    36    37   ar
    41     1     5    1
    42     8     7    1
    43     5     6    1
    44     7     6    2
    45     7     9    1
    46    14    12   ar
    47    11    12    1
    48    11    10    1
    49     6    10    1
    50    12    13   ar
