@<TRIPOS>MOLECULE
3svv_VSP_A_1.pdb
 26 28 0 0 0
SMALL
GASTEIGER

@<TRIPOS>ATOM
      1  C10      -12.0730   10.2680    5.8780 C.2   600  VSP600      0.1047
      2  C13       -9.4150   12.0090    8.1380 C.ar  600  VSP600      0.0141
      3  C17       -9.1730   15.5000    9.5380 C.3   600  VSP600      0.1744
      4  C21       -9.7240   11.4470   10.4880 C.ar  600  VSP600      0.0180
      5  C22      -10.7960   10.6110   10.1410 C.ar  600  VSP600      0.0011
      6  O20       -6.5120   15.0970    9.5460 O.2   600  VSP600     -0.1529
      7  N01      -13.5840   12.6370    7.3760 N.pl3 600  VSP600      0.2118
      8  C11      -10.8200   11.0610    6.3360 C.3   600  VSP600      0.0725
      9  C02      -14.2340   11.5900    6.6850 C.2   600  VSP600      0.4078
     10  C12      -10.4800   11.1650    7.8080 C.ar  600  VSP600     -0.0151
     11  C03      -13.4990   10.5940    6.0480 C.3   600  VSP600      0.2601
     12  C23      -11.1780   10.4540    8.8070 C.ar  600  VSP600     -0.0038
     13  N24      -15.5780    9.5390    5.3510 N.2   600  VSP600     -0.0088
     14  C04      -14.2140    9.5410    5.3680 C.2   600  VSP600      0.3401
     15  C14       -9.0400   12.1460    9.4900 C.ar  600  VSP600      0.0903
     16  N05      -13.2770    8.7200    4.8450 N.pl3 600  VSP600     -0.0842
     17  N15       -7.9410   13.0110    9.8440 N.pl3 600  VSP600     -0.1007
     18  C25      -16.2660   10.5070    5.9720 C.3   600  VSP600      0.5248
     19  N26      -15.5950   11.5310    6.6170 N.2   600  VSP600     -0.0027
     20  C06      -13.5640    7.5240    4.0640 C.3   600  VSP600      0.1876
     21  S16       -7.7580   14.4940    9.1370 S.O2  600  VSP600      0.0731
     22  C07      -12.6880    6.3690    4.5320 C.3   600  VSP600      0.0532
     23  C08      -13.2660    7.8250    2.6140 C.3   600  VSP600      0.0532
     24  C18       -9.2540   15.8240   11.0140 C.3   600  VSP600      0.0293
     25  N09      -12.0380    9.1430    5.1500 N.2   600  VSP600     -0.0954
     26  O19       -7.5600   14.4380    7.7010 O.2   600  VSP600     -0.1529
@<TRIPOS>BOND
     1    23    20    1
     2    20    22    1
     3    20    16    1
     4    16    25    1
     5    16    14    1
     6    25     1    2
     7    13    14    2
     8    13    18    1
     9    14    11    1
    10     1    11    1
    11     1     8    1
    12    18    19    1
    13    11     9    1
    14     8    10    1
    15    19     9    2
    16     9     7    1
    17    26    21    2
    18    10     2   ar
    19    10    12   ar
    20     2    15   ar
    21    12     5   ar
    22    21     3    1
    23    21     6    2
    24    21    17    1
    25    15    17    1
    26    15     4   ar
    27     3    24    1
    28     5     4   ar
