@<TRIPOS>MOLECULE
3svw_HEC_A_1.pdb
 43 50 0 0 0
SMALL
GASTEIGER

@<TRIPOS>ATOM
      1 FE         25.5300  -37.7890   80.4880 Fe    500  HEC500      0.0000
      2  CHA       25.4020  -38.2020   77.0990 C.2   500  HEC500      0.0000
      3  CHB       22.7430  -39.7930   80.7910 C.2   500  HEC500      0.0000
      4  CHC       26.2820  -38.2420   83.7620 C.2   500  HEC500      0.0000
      5  CHD       28.0460  -35.5200   80.1450 C.2   500  HEC500      0.0000
      6  NA        24.1980  -38.7330   79.1770 N.2   500  HEC500      0.0000
      7  C1A       24.3330  -38.8440   77.8740 C.2   500  HEC500      0.0000
      8  C2A       23.1730  -39.5060   77.2160 C.2   500  HEC500      0.0000
      9  C3A       22.4520  -40.0010   78.2480 C.2   500  HEC500      0.0000
     10  C4A       23.1870  -39.5510   79.4420 C.2   500  HEC500      0.0000
     11  CMA       21.1460  -40.7820   78.2430 C.3   500  HEC500      0.0000
     12  CAA       22.9810  -39.7210   75.7270 C.3   500  HEC500      0.0000
     13  CBA       21.8640  -38.8630   75.2270 C.3   500  HEC500      0.0000
     14  CGA       21.9020  -38.7730   73.6960 C.2   500  HEC500      0.0000
     15  O1A       20.9680  -38.1710   73.0980 O.co2 500  HEC500      0.0000
     16  O2A       22.9040  -39.2240   73.1080 O.co2 500  HEC500      0.0000
     17  NB        24.6280  -38.7480   82.0460 N.ar  500  HEC500      0.0000
     18  C1B       23.5880  -39.6110   81.9860 C.ar  500  HEC500      0.0000
     19  C2B       23.2880  -40.2260   83.2960 C.ar  500  HEC500      0.0000
     20  C3B       24.3090  -39.7950   84.1390 C.ar  500  HEC500      0.0000
     21  C4B       25.1360  -38.9430   83.2630 C.ar  500  HEC500      0.0000
     22  CMB       22.1120  -41.1450   83.6100 C.3   500  HEC500      0.0000
     23  CAB       24.5730  -40.1330   85.5900 C.3   500  HEC500      0.0000
     24  CBB       24.8220  -41.6460   85.6800 C.3   500  HEC500      0.0000
     25  NC        26.8860  -36.9640   81.7470 N.2   500  HEC500      0.0000
     26  C1C       27.0340  -37.2270   83.0330 C.2   500  HEC500      0.0000
     27  C2C       27.9900  -36.3170   83.7170 C.2   500  HEC500      0.0000
     28  C3C       28.4680  -35.5120   82.6890 C.2   500  HEC500      0.0000
     29  C4C       27.8290  -36.0640   81.4740 C.2   500  HEC500      0.0000
     30  CMC       28.2770  -36.2580   85.1950 C.3   500  HEC500      0.0000
     31  CAC       29.4490  -34.3520   82.6590 C.3   500  HEC500      0.0000
     32  CBC       30.7330  -34.7230   83.3870 C.3   500  HEC500      0.0000
     33  ND        26.4770  -36.9160   78.9160 N.ar  500  HEC500      0.0000
     34  C1D       27.6150  -36.1710   78.9220 C.ar  500  HEC500      0.0000
     35  C2D       28.2740  -36.0100   77.6130 C.ar  500  HEC500      0.0000
     36  C3D       27.5260  -36.8160   76.7610 C.ar  500  HEC500      0.0000
     37  C4D       26.4780  -37.4130   77.6520 C.ar  500  HEC500      0.0000
     38  CMD       29.5400  -35.2270   77.2840 C.3   500  HEC500      0.0000
     39  CAD       27.8660  -37.0640   75.3070 C.3   500  HEC500      0.0000
     40  CBD       29.0990  -37.9580   75.3360 C.3   500  HEC500      0.0000
     41  CGD       29.3350  -38.6710   73.9880 C.2   500  HEC500      0.0000
     42  O1D       30.3740  -39.3670   73.8640 O.co2 500  HEC500      0.0000
     43  O2D       28.4670  -38.6050   73.0850 O.co2 500  HEC500      0.0000
@<TRIPOS>BOND
     1    43    41   ar
     2    15    14   ar
     3    16    14   ar
     4    14    13    1
     5    42    41   ar
     6    41    40    1
     7    13    12    1
     8    39    40    1
     9    39    36    1
    10    12     8    1
    11    36    35   ar
    12    36    37   ar
    13     2    37    2
    14     2     7    1
    15     8     7    1
    16     8     9    2
    17    38    35    1
    18    35    34   ar
    19    37    33   ar
    20     7     6    2
    21    11     9    1
    22     9    10    1
    23    33    34   ar
    24    33     1    1
    25    34     5    2
    26     6    10    1
    27     6     1    1
    28    10     3    2
    29     5    29    1
    30     1    25    1
    31     1    17    1
    32     3    18    1
    33    29    25    2
    34    29    28    1
    35    25    26    1
    36    18    17   ar
    37    18    19   ar
    38    17    21   ar
    39    31    28    1
    40    31    32    1
    41    28    27    2
    42    26    27    1
    43    26     4    2
    44    21     4    1
    45    21    20   ar
    46    19    22    1
    47    19    20   ar
    48    27    30    1
    49    20    23    1
    50    23    24    1
