@<TRIPOS>MOLECULE
3sw1_FMN_A_1.pdb
 31 33 0 0 0
SMALL
GASTEIGER

@<TRIPOS>ATOM
      1  N1        -5.1700   20.4360    4.4090 N.2   500  FMN500     -0.2937
      2  C2        -5.4650   19.3280    5.1780 C.1   500  FMN500      0.3663
      3  O2        -5.7420   18.2910    4.6150 O.2   500  FMN500     -0.1745
      4  N3        -5.3510   19.4330    6.5440 N.2   500  FMN500     -0.2346
      5  C4        -4.7910   20.4700    7.2340 C.1   500  FMN500      0.2239
      6  O4        -4.4510   20.3480    8.4180 O.2   500  FMN500     -0.2109
      7  C4A       -4.0550   21.6000    6.4260 C.3   500  FMN500      0.2881
      8  N5        -4.3320   22.8840    7.0700 N.2   500  FMN500     -0.2495
      9  C5A       -4.0210   24.0460    6.3070 C.2   500  FMN500      0.0730
     10  C6        -3.5650   25.1980    6.9360 C.3   500  FMN500      0.0684
     11  C7        -3.2480   26.3380    6.1870 C.2   500  FMN500     -0.0418
     12  C7M       -2.7620   27.5650    6.9120 C.3   500  FMN500      0.0264
     13  C8        -3.4190   26.2210    4.8000 C.2   500  FMN500     -0.0281
     14  C8M       -3.0670   27.4550    3.9420 C.3   500  FMN500      0.0304
     15  C9        -3.8650   25.0780    4.1640 C.2   500  FMN500      0.0112
     16  C9A       -4.1840   23.9130    4.9190 C.2   500  FMN500      0.0667
     17  N10       -4.6320   22.7650    4.2970 N.pl3 500  FMN500     -0.2591
     18  C10       -4.7730   21.5740    5.0440 C.2   500  FMN500      0.2191
     19  C1'       -5.4480   22.7300    3.0540 C.3   500  FMN500      0.1333
     20  C2'       -4.5990   22.4620    1.7260 C.3   500  FMN500      0.2048
     21  O2'       -3.1890   22.7960    1.9130 O.3   500  FMN500     -0.2185
     22  C3'       -5.2370   23.1400    0.4200 C.3   500  FMN500      0.2165
     23  O3'       -5.0550   24.5280    0.3610 O.3   500  FMN500     -0.2175
     24  C4'       -6.7080   22.7340    0.2060 C.3   500  FMN500      0.2147
     25  O4'       -6.8110   21.3200    0.0680 O.3   500  FMN500     -0.2176
     26  C5'       -7.3080   23.4760   -1.0290 C.3   500  FMN500      0.1892
     27  O5'       -6.4490   23.5100   -2.1690 O.3   500  FMN500     -0.2674
     28  P         -6.4310   22.3680   -3.3070 P.3   500  FMN500      0.5327
     29  O1P       -7.8670   22.1100   -3.7870 O.3   500  FMN500     -0.1145
     30  O2P       -5.5890   22.8570   -4.4740 O.2   500  FMN500     -0.2224
     31  O3P       -5.9720   20.9900   -2.7680 O.3   500  FMN500     -0.1145
@<TRIPOS>BOND
     1    30    28    2
     2    29    28    1
     3    28    31    1
     4    28    27    1
     5    27    26    1
     6    26    24    1
     7    25    24    1
     8    24    22    1
     9    23    22    1
    10    22    20    1
    11    20    21    1
    12    20    19    1
    13    19    17    1
    14    14    13    1
    15    15    13    1
    16    15    16    2
    17    17    16    1
    18    17    18    1
    19     1    18    2
    20     1     2    2
    21     3     2    2
    22    13    11    2
    23    16     9    1
    24    18     7    1
    25     2     4    2
    26    11    12    1
    27    11    10    1
    28     9    10    1
    29     9     8    2
    30     7     8    1
    31     7     5    1
    32     4     5    2
    33     5     6    2
