@<TRIPOS>MOLECULE
3sw2_FI1_B_1.pdb
 39 44 0 0 0
SMALL
GASTEIGER

@<TRIPOS>ATOM
      1  C1        10.0510   45.2140   62.5900 C.ar    1  FI11        0.0014
      2  C2        10.1080   43.4220   65.8670 C.ar    1  FI11        0.0009
      3  C3         8.6980   45.3160   62.3670 C.ar    1  FI11        0.0200
      4  C4        11.4520   43.3150   66.1130 C.ar    1  FI11        0.0114
      5  C5         8.2350   44.1610   64.4360 C.ar    1  FI11        0.0200
      6  C6        11.9360   44.4680   64.0310 C.ar    1  FI11        0.0114
      7  C7         9.6270   44.0540   64.6940 C.ar    1  FI11        0.0014
      8  C8        10.5520   44.5910   63.7670 C.ar    1  FI11        0.0009
      9  C9         7.7510   44.7820   63.2990 C.ar    1  FI11        0.1236
     10  C10       12.3850   43.8410   65.1790 C.ar    1  FI11        0.0577
     11  C11        5.7650   40.8930   54.7310 C.ar    1  FI11        0.0060
     12  C12        4.8200   40.1370   55.3440 C.ar    1  FI11        0.0608
     13  C13        7.1250   40.4640   54.7400 C.ar    1  FI11        0.0130
     14  C14        7.4710   39.2820   55.3620 C.ar    1  FI11        0.0411
     15  C15        5.1670   38.8840   56.0210 C.ar    1  FI11        0.2607
     16  C16        7.0540   42.3240   60.4260 C.2     1  FI11        0.2437
     17  C17        7.9560   39.7730   58.6200 C.2     1  FI11        0.2459
     18  C18        4.2810   41.9170   59.8760 C.3     1  FI11        0.0235
     19  C19        4.7190   41.8210   61.3210 C.3     1  FI11        0.0304
     20  C20        9.0780   37.3610   55.5110 C.3     1  FI11        0.0112
     21  C21        5.3290   41.3740   58.9090 C.3     1  FI11        0.0940
     22  C22        9.4570   39.5580   56.6500 C.3     1  FI11        0.0992
     23  C23        6.8970   37.2450   56.6800 C.3     1  FI11        0.1104
     24  C24        9.0120   37.6090   58.0200 C.3     1  FI11        0.0954
     25  C25        8.9130   38.8710   55.3900 C.3     1  FI11        0.0583
     26  C26        6.0060   42.6550   61.5170 C.3     1  FI11        0.1737
     27  C27        8.3940   36.9100   56.7920 C.3     1  FI11        0.0430
     28  C28        7.7130   41.2630   58.3440 C.3     1  FI11        0.1793
     29  N29        6.5380   38.4930   56.0080 N.ar    1  FI11       -0.2991
     30  N30        6.6930   41.6910   59.2590 N.am    1  FI11       -0.2701
     31  N31        8.8020   39.0060   57.8180 N.am    1  FI11       -0.2777
     32  N32        5.7970   44.0740   61.6460 N.3     1  FI11       -0.0700
     33  O33        4.3400   38.1460   56.6040 O.2     1  FI11       -0.2670
     34  O34        8.2440   42.6140   60.5830 O.2     1  FI11       -0.2733
     35  O35        7.4020   39.2410   59.6020 O.2     1  FI11       -0.2730
     36  O36        5.4370   44.2590   64.1310 O.2     1  FI11       -0.1516
     37  O37        5.7180   46.2160   62.7930 O.2     1  FI11       -0.1516
     38  S38        6.0710   44.8800   63.0350 S.O2    1  FI11        0.0772
     39 CL39       14.0540   43.6650   65.5290 Cl      1  FI11       -0.0822
@<TRIPOS>BOND
     1    11    13   ar
     2    11    12   ar
     3    13    14   ar
     4    12    15   ar
     5    14    25    1
     6    14    29   ar
     7    25    20    1
     8    25    22    1
     9    20    27    1
    10    29    15   ar
    11    29    23    1
    12    15    33    2
    13    22    31    1
    14    23    27    1
    15    27    24    1
    16    31    24    1
    17    31    17   am
    18    28    17    1
    19    28    30    1
    20    17    35    2
    21    21    30    1
    22    21    18    1
    23    30    16   am
    24    18    19    1
    25    16    34    2
    26    16    26    1
    27    19    26    1
    28    26    32    1
    29    32    38    1
    30     3     1   ar
    31     3     9   ar
    32     1     8   ar
    33    37    38    2
    34    38     9    1
    35    38    36    2
    36     9     5   ar
    37     8     6   ar
    38     8     7   ar
    39     6    10   ar
    40     5     7   ar
    41     7     2   ar
    42    10    39    1
    43    10     4   ar
    44     2     4   ar
