@<TRIPOS>MOLECULE
3sw4_18K_A_1.pdb
 23 25 0 0 0
SMALL
GASTEIGER

@<TRIPOS>ATOM
      1  S         13.3310    7.6580  -10.7870 S.3   299  18K299     -0.0508
      2  C1        15.9570    7.1430  -13.8380 C.3   299  18K299      0.0629
      3  N1        15.5680    6.5490  -11.4680 N.2   299  18K299     -0.3852
      4  C2        15.1280    7.2090  -12.6000 C.2   299  18K299      0.1063
      5  N2        14.9890    6.2370   -9.2200 N.pl3 299  18K299     -0.0867
      6  C3        14.7500    6.7050  -10.4530 C.2   299  18K299      0.2461
      7  N3        11.3310   10.2870  -14.7170 N.2   299  18K299     -0.1683
      8  C4        13.9110    7.8890  -12.4240 C.3   299  18K299      0.1563
      9  N4        10.1120   10.6080  -12.8170 N.pl3 299  18K299     -0.1358
     10  C5        13.0650    8.7100  -13.3070 C.2   299  18K299      0.1398
     11  N5         7.7990   10.5220   -7.6470 N.pl3 299  18K299     -0.3041
     12  C6        13.3150    8.9100  -14.6590 C.2   299  18K299      0.0513
     13  N6        12.0220    9.2670  -12.6730 N.2   299  18K299     -0.3393
     14  C7        12.3980    9.7220  -15.3070 C.2   299  18K299      0.1141
     15  C8        11.1850   10.0280  -13.4110 C.1   299  18K299      0.1694
     16  C9         9.5530   10.5680  -11.5240 C.ar  299  18K299      0.0827
     17  C10        8.5980   11.5200  -11.1720 C.ar  299  18K299      0.0186
     18  C11        8.0590   11.5340   -9.8970 C.ar  299  18K299      0.0159
     19  C12        8.4640   10.5750   -8.9720 C.ar  299  18K299      0.0480
     20  C13        6.4220    9.9460   -7.7240 C.3   299  18K299      0.1122
     21  C14        8.6120    9.8470   -6.5930 C.3   299  18K299      0.1122
     22  C15        9.4310    9.6250   -9.3100 C.ar  299  18K299      0.0159
     23  C16        9.9680    9.6290  -10.5860 C.ar  299  18K299      0.0186
@<TRIPOS>BOND
     1    14     7    1
     2    14    12    2
     3     7    15    2
     4    12    10    1
     5     2     4    1
     6    15     9    1
     7    15    13    2
     8    10    13    2
     9    10     8    1
    10     9    16    1
    11     4     8    1
    12     4     3    2
    13     8     1    1
    14    16    17   ar
    15    16    23   ar
    16     3     6    2
    17    17    18   ar
    18     1     6    1
    19    23    22   ar
    20     6     5    1
    21    18    19   ar
    22    22    19   ar
    23    19    11    1
    24    20    11    1
    25    11    21    1
