@<TRIPOS>MOLECULE
3sw6_5FU_A_1.pdb
 22 23 0 0 0
SMALL
GASTEIGER

@<TRIPOS>ATOM
      1  F5        43.8470   43.0590   38.6700 F     1000  5FU1000    -0.1891
      2  C5        43.3590   41.8900   38.1740 C.2   1000  5FU1000     0.2499
      3  C4        44.2530   40.8930   37.8420 C.1   1000  5FU1000     0.2454
      4  O4        45.4740   40.9860   38.0840 O.2   1000  5FU1000    -0.2062
      5  N3        43.7970   39.7810   37.2460 N.2   1000  5FU1000    -0.2430
      6  C2        42.4770   39.6380   37.0290 C.1   1000  5FU1000     0.2846
      7  O2        42.1560   38.6170   36.3710 O.2   1000  5FU1000    -0.1918
      8  C6        42.0000   41.7560   37.9280 C.2   1000  5FU1000     0.1222
      9  N1        41.5710   40.5870   37.3630 N.am  1000  5FU1000    -0.1744
     10  C1'       40.1450   40.2620   37.3240 C.3   1000  5FU1000     0.2401
     11  O4'       40.0750   38.9880   38.0650 O.3   1000  5FU1000    -0.3319
     12  C2'       39.4280   39.9780   36.0500 C.3   1000  5FU1000     0.2319
     13  O2'       38.8450   41.2030   35.6620 O.3   1000  5FU1000    -0.2157
     14  C3'       38.3760   38.9520   36.4650 C.3   1000  5FU1000     0.2158
     15  O3'       37.2930   39.6060   37.1540 O.3   1000  5FU1000    -0.2175
     16  C4'       39.1090   38.0960   37.4740 C.3   1000  5FU1000     0.1801
     17  C5'       39.8030   36.9070   36.8100 C.3   1000  5FU1000     0.1859
     18  O5'       38.7490   36.0490   36.3440 O.3   1000  5FU1000    -0.2675
     19  P         39.0240   34.7480   35.4280 P.3   1000  5FU1000     0.5327
     20  O1P       37.8430   34.6860   34.4980 O.2   1000  5FU1000    -0.2224
     21  O2P       40.2980   34.9640   34.6560 O.3   1000  5FU1000    -0.1145
     22  O3P       39.1210   33.5490   36.3430 O.3   1000  5FU1000    -0.1145
@<TRIPOS>BOND
     1    20    19    2
     2    21    19    1
     3    19    22    1
     4    19    18    1
     5    13    12    1
     6    12    14    1
     7    12    10    1
     8    18    17    1
     9     7     6    2
    10    14    15    1
    11    14    16    1
    12    17    16    1
    13     6     5    2
    14     6     9   am
    15     5     3    2
    16    10     9    1
    17    10    11    1
    18     9     8    1
    19    16    11    1
    20     3     4    2
    21     3     2    1
    22     8     2    2
    23     2     1    1
