@<TRIPOS>MOLECULE
3sw7_19K_A_1.pdb
 26 28 0 0 0
SMALL
GASTEIGER

@<TRIPOS>ATOM
      1  S         13.0150    7.2400  -10.8720 S.3   299  19K299     -0.0735
      2  C1        14.3780    5.3150   -9.3090 C.3   299  19K299      0.0735
      3  N1        15.2580    6.1370  -11.4630 N.2   299  19K299     -0.4074
      4  O1         7.1530   13.4840  -10.1070 O.2   299  19K299     -0.1261
      5  C2        14.3330    6.1540  -10.5460 C.2   299  19K299      0.1347
      6  N2        11.3680   10.2960  -14.6630 N.2   299  19K299     -0.1683
      7  C3        14.9800    7.0000  -12.5100 C.2   299  19K299      0.1041
      8  N3        10.1430   10.6200  -12.7430 N.pl3 299  19K299     -0.1357
      9  C4        16.0020    7.1620  -13.5850 C.3   299  19K299      0.0628
     10  N4         8.0820   10.1240   -7.4370 N.pl3 299  19K299     -0.3028
     11  C5        13.7580    7.6900  -12.3850 C.3   299  19K299      0.1546
     12  N5         7.1290   12.4640   -9.4340 N.pl3 299  19K299      0.0589
     13  C6        12.9690    8.5720  -13.2650 C.2   299  19K299      0.1397
     14  N6        11.9440    9.1700  -12.6380 N.2   299  19K299     -0.3393
     15  C7        13.2600    8.7940  -14.6060 C.2   299  19K299      0.0513
     16  C8        12.4030    9.6700  -15.2520 C.2   299  19K299      0.1141
     17  C9        11.1760   10.0040  -13.3690 C.1   299  19K299      0.1694
     18  C10        9.5820   10.5120  -11.4500 C.ar  299  19K299      0.0843
     19  C11        9.9510    9.4790  -10.5990 C.ar  299  19K299      0.0187
     20  C12        9.4170    9.3920   -9.3280 C.ar  299  19K299      0.0176
     21  C13        8.4970   10.3100   -8.8520 C.ar  299  19K299      0.0707
     22  C14        6.6500    9.7330   -7.2880 C.3   299  19K299      0.1123
     23  C15        8.4480   11.2710   -6.5530 C.3   299  19K299      0.1123
     24  C16        8.0820   11.3880   -9.7630 C.ar  299  19K299      0.1574
     25  C17        8.6630   11.4640  -11.0170 C.ar  299  19K299      0.0427
     26  O2         6.4730   12.3710   -8.4130 O.2   299  19K299     -0.1261
@<TRIPOS>BOND
     1    16     6    1
     2    16    15    2
     3     6    17    2
     4    15    13    1
     5     9     7    1
     6    17     8    1
     7    17    14    2
     8    13    14    2
     9    13    11    1
    10     8    18    1
    11     7    11    1
    12     7     3    2
    13    11     1    1
    14     3     5    2
    15    18    25   ar
    16    18    19   ar
    17    25    24   ar
    18     1     5    1
    19    19    20   ar
    20     5     2    1
    21     4    12    2
    22    24    12    1
    23    24    21   ar
    24    12    26    2
    25    20    21   ar
    26    21    10    1
    27    10    22    1
    28    10    23    1
