@<TRIPOS>MOLECULE
3sw8_5LI_P_1.pdb
 17 17 0 0 0
SMALL
GASTEIGER

@<TRIPOS>ATOM
      1  C1        25.1390   -6.8630    8.6880 C.ar  205  5LI205      0.0011
      2  C2        25.5200   -6.5720    7.4010 C.ar  205  5LI205      0.0055
      3  C3        25.2860   -5.9250    9.6850 C.ar  205  5LI205      0.0123
      4  C4        26.0490   -5.3380    7.0960 C.ar  205  5LI205      0.0664
      5  C5        25.8190   -4.6970    9.3710 C.ar  205  5LI205      0.0683
      6  C6        26.2050   -4.3880    8.0830 C.ar  205  5LI205      0.0726
      7  C7        29.5190   -2.1860    4.8800 C.2   205  5LI205      0.1130
      8  C8        26.4350   -5.0900    5.6920 C.2   205  5LI205      0.2657
      9  C9        28.1300   -5.4320    3.9910 C.3   205  5LI205      0.1374
     10  C10       28.3030   -3.9790    3.5930 C.3   205  5LI205      0.1214
     11  N11       27.6670   -5.5680    5.3510 N.am  205  5LI205     -0.1998
     12  N12       29.4470   -3.3960    4.2480 N.am  205  5LI205     -0.2778
     13  O13       30.5110   -1.7200    5.4180 O.2   205  5LI205     -0.5358
     14  O14       25.6800   -4.5330    4.9060 O.2   205  5LI205     -0.2683
     15  O15       30.6350   -4.1390    4.2460 O.3   205  5LI205     -0.4194
     16 CL16       25.9810   -3.5600   10.6490 Cl    205  5LI205     -0.0814
     17 CL17       26.8710   -2.8300    7.7190 Cl    205  5LI205     -0.0812
@<TRIPOS>BOND
     1    10     9    1
     2    10    12    1
     3     9    11    1
     4    15    12    1
     5    12     7   am
     6     7    13    2
     7    14     8    2
     8    11     8   am
     9     8     4    1
    10     4     2   ar
    11     4     6   ar
    12     2     1   ar
    13    17     6    1
    14     6     5   ar
    15     1     3   ar
    16     5     3   ar
    17     5    16    1
