@<TRIPOS>MOLECULE
3sw9_III_P_1.pdb
 39 38 0 0 0
SMALL
GASTEIGER

@<TRIPOS>ATOM
      1  N         41.8530  -26.9320   10.8260 N.3    41  THR41      -0.1203
      2  CA        40.4330  -27.1350   11.1510 C.3    41  THR41       0.1994
      3  C         39.6070  -27.5400    9.9220 C.2    41  THR41       0.2618
      4  O         39.9680  -27.2010    8.7900 O.2    41  THR41      -0.2717
      5  CB        39.7880  -25.8850   11.8070 C.3    41  THR41       0.1784
      6  OG1       39.6160  -24.8540   10.8240 O.3    41  THR41      -0.2211
      7  CG2       40.6490  -25.3730   12.9700 C.3    41  THR41       0.0376
      8  N         38.4990  -28.2510   10.1540 N.am   42  ALA42      -0.1965
      9  CA        37.7590  -28.9190    9.0740 C.3    42  ALA42       0.1728
     10  C         36.8700  -27.9850    8.2570 C.2    42  ALA42       0.2616
     11  O         35.8640  -27.4990    8.7630 O.2    42  ALA42      -0.2715
     12  CB        36.9350  -30.0830    9.6270 C.3    42  ALA42       0.0334
     13  N         37.2310  -27.7670    6.9920 N.am   43  ARG43      -0.1963
     14  CA        36.5040  -26.8460    6.1200 C.3    43  ARG43       0.1729
     15  C         35.8550  -27.5570    4.9390 C.2    43  ARG43       0.2616
     16  O         36.5250  -28.3160    4.2240 O.2    43  ARG43      -0.2715
     17  CB        37.4440  -25.7700    5.5610 C.3    43  ARG43       0.0348
     18  CG        38.4480  -25.1970    6.5530 C.3    43  ARG43       0.0492
     19  CD        37.8940  -24.0250    7.3630 C.3    43  ARG43       0.2205
     20  NE        38.8920  -23.5220    8.3070 N.pl3  43  ARG43      -0.0865
     21  CZ        39.8320  -22.6310    7.9980 C.cat  43  ARG43       0.5346
     22  NH1       40.7100  -22.2360    8.9170 N.pl3  43  ARG43       0.1354
     23  NH2       39.8950  -22.1320    6.7670 N.pl3  43  ARG43       0.1354
     24  N         34.5590  -27.2930    4.7310 N.am   44  LYS44      -0.1963
     25  CA        33.8580  -27.6920    3.5030 C.3    44  LYS44       0.1728
     26  C         34.2640  -26.7680    2.3440 C.2    44  LYS44       0.2616
     27  O         34.4870  -25.5820    2.5570 O.2    44  LYS44      -0.2715
     28  CB        32.3360  -27.6260    3.6920 C.3    44  LYS44       0.0311
     29  CG        31.8120  -28.0940    5.0520 C.3    44  LYS44       0.0038
     30  CD        30.2850  -28.0370    5.0790 C.3    44  LYS44       0.0206
     31  CE        29.7060  -28.1510    6.4850 C.3    44  LYS44       0.1093
     32  NZ        28.2090  -28.0300    6.4530 N.3    44  LYS44      -0.1314
     33  N         34.3880  -27.3130    1.1310 N.am   45  VAL45      -0.1977
     34  CA        34.5850  -26.4950   -0.0800 C.3    45  VAL45       0.1596
     35  C         33.8860  -27.1120   -1.2920 C.2    45  VAL45       0.2287
     36  O         33.5590  -28.3020   -1.2970 O.2    45  VAL45      -0.2864
     37  CB        36.0800  -26.2480   -0.4450 C.3    45  VAL45       0.0276
     38  CG1       36.2000  -25.0360   -1.3900 C.3    45  VAL45       0.0022
     39  CG2       36.9330  -26.0400    0.7960 C.3    45  VAL45       0.0022
@<TRIPOS>BOND
     1    38    37    1
     2    36    35    2
     3    35    34    1
     4    37    34    1
     5    37    39    1
     6    34    33    1
     7    33    26   am
     8    26    27    2
     9    26    25    1
    10    25    28    1
    11    25    24    1
    12    28    29    1
    13    16    15    2
    14    24    15   am
    15    15    14    1
    16    29    30    1
    17    30    31    1
    18    17    14    1
    19    17    18    1
    20    14    13    1
    21    32    31    1
    22    18    19    1
    23    23    21    1
    24    13    10   am
    25    19    20    1
    26    21    20    2
    27    21    22    1
    28    10    11    2
    29    10     9    1
    30     4     3    2
    31     9    12    1
    32     9     8    1
    33     3     8   am
    34     3     2    1
    35     6     5    1
    36     1     2    1
    37     2     5    1
    38     5     7    1
