@<TRIPOS>MOLECULE
3sw9_SFG_A_1.pdb
 27 29 0 0 0
SMALL
GASTEIGER

@<TRIPOS>ATOM
      1  N         23.9310  -33.6980   10.2500 N.3   101  SFG101     -0.1208
      2  CA        24.0040  -32.2580   10.5370 C.3   101  SFG101      0.1944
      3  C         23.1300  -31.8040   11.7190 C.2   101  SFG101      0.3819
      4  O         22.4690  -32.6810   12.3330 O.co2 101  SFG101     -0.2441
      5  OXT       23.1660  -30.5930   12.0540 O.co2 101  SFG101     -0.2441
      6  CB        23.8700  -31.3640    9.2550 C.3   101  SFG101      0.0321
      7  CG        25.1970  -31.5450    8.4440 C.3   101  SFG101      0.0212
      8  CD        26.3680  -30.6640    8.9480 C.3   101  SFG101      0.0944
      9  NE        26.5930  -29.4530    8.0900 N.3   101  SFG101     -0.1328
     10  C5'       27.6460  -31.5000    8.7700 C.3   101  SFG101      0.0514
     11  C4'       27.8120  -32.5380    9.9210 C.3   101  SFG101      0.1537
     12  O4'       26.9240  -33.6480    9.7330 O.3   101  SFG101     -0.3161
     13  C3'       29.2080  -33.1630   10.1130 C.3   101  SFG101      0.2159
     14  O3'       29.9730  -32.3870   11.0190 O.3   101  SFG101     -0.2175
     15  C2'       28.8680  -34.5850   10.5570 C.3   101  SFG101      0.2569
     16  O2'       28.6260  -34.6800   11.9760 O.3   101  SFG101     -0.2130
     17  C1'       27.5680  -34.9260    9.8130 C.3   101  SFG101      0.3185
     18  N9        27.6100  -35.5220    8.4510 N.pl3 101  SFG101     -0.1439
     19  C8        27.4080  -35.0170    7.1950 C.3   101  SFG101      0.3377
     20  N7        27.4730  -35.8870    6.1780 N.2   101  SFG101     -0.2095
     21  C5        27.7700  -37.0870    6.8100 C.2   101  SFG101      0.2526
     22  C6        27.9970  -38.4230    6.4210 C.2   101  SFG101      0.4393
     23  N6        27.9310  -38.7450    5.1040 N.pl3 101  SFG101      0.2180
     24  N1        28.2960  -39.4100    7.3550 N.2   101  SFG101      0.0021
     25  C2        28.3650  -39.1310    8.6990 C.3   101  SFG101      0.5254
     26  N3        28.1370  -37.8550    9.1490 N.2   101  SFG101     -0.0055
     27  C4        27.8570  -36.8660    8.2190 C.2   101  SFG101      0.3518
@<TRIPOS>BOND
     1    23    22    1
     2    20    21    2
     3    20    19    1
     4    22    21    1
     5    22    24    2
     6    21    27    1
     7    19    18    1
     8    24    25    1
     9     9     8    1
    10    27    18    1
    11    27    26    2
    12     7     8    1
    13     7     6    1
    14    18    17    1
    15    25    26    1
    16    10     8    1
    17    10    11    1
    18     6     2    1
    19    12    17    1
    20    12    11    1
    21    17    15    1
    22    11    13    1
    23    13    15    1
    24    13    14    1
    25     1     2    1
    26     2     3    1
    27    15    16    1
    28     3     5   ar
    29     3     4   ar
