@<TRIPOS>MOLECULE
3swa_UD1_A_1.pdb
 39 41 0 0 0
SMALL
GASTEIGER

@<TRIPOS>ATOM
      1  C1'       43.1440  -37.1340  -25.2350 C.3   425  UD1425      0.2633
      2  C2'       42.1910  -36.9940  -26.4450 C.3   425  UD1425      0.1845
      3  C3'       41.2910  -35.7970  -26.2240 C.3   425  UD1425      0.2094
      4  C4'       40.4690  -36.0710  -24.9300 C.3   425  UD1425      0.2136
      5  C5'       41.4130  -36.2320  -23.7250 C.3   425  UD1425      0.1834
      6  C6'       40.6530  -36.5540  -22.4390 C.3   425  UD1425      0.2142
      7  C7'       43.5330  -37.7730  -28.3740 C.2   425  UD1425      0.2420
      8  C8'       44.3280  -37.3290  -29.6040 C.3   425  UD1425      0.0964
      9  N2'       43.0070  -36.7780  -27.6690 N.am  425  UD1425     -0.1992
     10  O1'       43.9860  -35.9930  -25.1620 O.3   425  UD1425     -0.2864
     11  O3'       40.3820  -35.6860  -27.3280 O.3   425  UD1425     -0.2183
     12  O4'       39.5820  -34.9930  -24.5250 O.3   425  UD1425     -0.2176
     13  O5'       42.3390  -37.3180  -24.0500 O.3   425  UD1425     -0.3260
     14  O6'       39.7130  -37.7010  -22.5900 O.3   425  UD1425     -0.2176
     15  O7'       43.3500  -38.9350  -28.0140 O.2   425  UD1425     -0.2733
     16  N1        47.9600  -33.0350  -18.8740 N.am  425  UD1425     -0.1766
     17  C2        49.1050  -32.5720  -18.1710 C.1   425  UD1425      0.2845
     18  N3        50.3020  -33.0830  -18.4920 N.2   425  UD1425     -0.2452
     19  C4        50.5550  -34.0320  -19.4510 C.1   425  UD1425      0.2182
     20  C5        49.3950  -34.5280  -20.1850 C.2   425  UD1425      0.1242
     21  C6        48.1280  -34.0150  -19.8760 C.2   425  UD1425      0.0929
     22  O2        49.0370  -31.7030  -17.2670 O.2   425  UD1425     -0.1918
     23  O4        51.6630  -34.4090  -19.6580 O.2   425  UD1425     -0.2085
     24  C1B       46.5930  -32.4860  -18.5520 C.3   425  UD1425      0.2401
     25  C2B       45.8910  -31.8780  -19.7210 C.3   425  UD1425      0.2319
     26  O2'       46.5290  -30.6550  -20.3330 O.3   425  UD1425     -0.2157
     27  C3B       44.4150  -31.8570  -19.2750 C.3   425  UD1425      0.2158
     28  C4B       44.3880  -33.2830  -18.6000 C.3   425  UD1425      0.1799
     29  O4B       45.7640  -33.5470  -18.2030 O.3   425  UD1425     -0.3320
     30  O3B       44.2850  -30.6690  -18.4110 O.3   425  UD1425     -0.2175
     31  C5B       43.9720  -34.4950  -19.4690 C.3   425  UD1425      0.1813
     32  O5B       44.7860  -34.6290  -20.5760 O.3   425  UD1425     -0.3112
     33  PA        45.0220  -35.9490  -21.3040 P.3   425  UD1425      0.2189
     34  O1A       44.2850  -37.0080  -20.6780 O.3   425  UD1425     -0.4371
     35  O2A       46.4290  -36.2360  -21.3190 O.2   425  UD1425     -0.5170
     36  O3A       44.3600  -35.9440  -22.6580 O.3   425  UD1425     -0.2703
     37  PB        45.0560  -35.8650  -24.0650 P.3   425  UD1425      0.2208
     38  O1B       45.8920  -36.9730  -24.1990 O.3   425  UD1425     -0.4371
     39  O2B       45.6970  -34.6200  -24.3800 O.2   425  UD1425     -0.5170
@<TRIPOS>BOND
     1     8     7    1
     2     7    15    2
     3     7     9   am
     4     9     2    1
     5    11     3    1
     6     2     3    1
     7     2     1    1
     8     3     4    1
     9     1    10    1
    10     1    13    1
    11    10    37    1
    12     4    12    1
    13     4     5    1
    14    39    37    2
    15    38    37    1
    16    37    36    1
    17    13     5    1
    18     5     6    1
    19    36    33    1
    20    14     6    1
    21    35    33    2
    22    33    34    1
    23    33    32    1
    24    32    31    1
    25    26    25    1
    26    20    21    2
    27    20    19    1
    28    21    16    1
    29    25    27    1
    30    25    24    1
    31    23    19    2
    32    31    28    1
    33    19    18    2
    34    27    28    1
    35    27    30    1
    36    16    24    1
    37    16    17   am
    38    28    29    1
    39    24    29    1
    40    18    17    2
    41    17    22    2
