@<TRIPOS>MOLECULE
3swc_SAH_A_1.pdb
 26 28 0 0 0
SMALL
GASTEIGER

@<TRIPOS>ATOM
      1  N        -23.8480   33.2350   10.0260 N.3   202  SAH202     -0.1208
      2  CA       -24.3020   31.9290   10.4950 C.3   202  SAH202      0.1952
      3  CB       -24.3450   30.9030    9.3670 C.3   202  SAH202      0.0422
      4  CG       -25.6240   30.9240    8.5450 C.3   202  SAH202      0.0597
      5  SD       -26.9690   30.0870    9.4190 S.3   202  SAH202     -0.1375
      6  C        -23.3850   31.4340   11.6060 C.2   202  SAH202      0.3819
      7  O        -22.5190   32.2040   12.0460 O.co2 202  SAH202     -0.2441
      8  OXT      -23.4920   30.2850   12.0720 O.co2 202  SAH202     -0.2441
      9  C5'      -28.1410   31.4190    9.0730 C.3   202  SAH202      0.0899
     10  C4'      -28.1390   32.5090   10.1340 C.3   202  SAH202      0.1630
     11  O4'      -27.0780   33.4060    9.8610 O.3   202  SAH202     -0.3153
     12  C3'      -29.4090   33.3490   10.1180 C.3   202  SAH202      0.2168
     13  O3'      -30.4150   32.8570   10.9750 O.3   202  SAH202     -0.2175
     14  C2'      -28.9000   34.6980   10.5580 C.3   202  SAH202      0.2569
     15  O2'      -28.5620   34.6610   11.9220 O.3   202  SAH202     -0.2130
     16  C1'      -27.5720   34.7330    9.8680 C.3   202  SAH202      0.3185
     17  N9       -27.6670   35.2350    8.4810 N.pl3 202  SAH202     -0.1439
     18  C8       -27.4470   34.5060    7.3340 C.3   202  SAH202      0.3377
     19  N7       -27.5960   35.3290    6.2720 N.2   202  SAH202     -0.2095
     20  C5       -27.9160   36.5670    6.7260 C.2   202  SAH202      0.2526
     21  C6       -28.1840   37.7670    6.0760 C.2   202  SAH202      0.4393
     22  N6       -28.1460   37.8260    4.7470 N.pl3 202  SAH202      0.2180
     23  N1       -28.4860   38.8970    6.8170 N.2   202  SAH202      0.0021
     24  C2       -28.5330   38.8340    8.1900 C.3   202  SAH202      0.5254
     25  N3       -28.2640   37.6390    8.8200 N.2   202  SAH202     -0.0055
     26  C4       -27.9570   36.5250    8.1060 C.2   202  SAH202      0.3518
@<TRIPOS>BOND
     1    22    21    1
     2    21    20    1
     3    21    23    2
     4    19    20    2
     5    19    18    1
     6    20    26    1
     7    23    24    1
     8    18    17    1
     9    26    17    1
    10    26    25    2
    11    24    25    1
    12    17    16    1
    13     4     3    1
    14     4     5    1
    15     9     5    1
    16     9    10    1
    17     3     2    1
    18    11    16    1
    19    11    10    1
    20    16    14    1
    21     1     2    1
    22    12    10    1
    23    12    14    1
    24    12    13    1
    25     2     6    1
    26    14    15    1
    27     6     7   ar
    28     6     8   ar
