@<TRIPOS>MOLECULE
3swd_EPZ_A_1.pdb
 44 46 0 0 0
SMALL
GASTEIGER

@<TRIPOS>ATOM
      1  C1        -1.8820   -5.8340   -1.0010 C.3   501  EPZ501      0.2632
      2  O1        -3.0290   -6.4690   -0.5250 O.3   501  EPZ501     -0.2864
      3  C2        -1.8590   -4.3930   -0.4900 C.3   501  EPZ501      0.1813
      4  N2        -1.9010   -4.3310    0.9430 N.am  501  EPZ501     -0.1994
      5  C3        -3.0470   -3.5760   -1.0650 C.3   501  EPZ501      0.1734
      6  O3        -3.0730   -2.2690   -0.6200 O.3   501  EPZ501     -0.3429
      7  C4        -2.9270   -3.6000   -2.5920 C.3   501  EPZ501      0.2103
      8  O4        -3.9630   -2.8600   -3.1400 O.3   501  EPZ501     -0.2178
      9  C5        -2.9230   -5.0610   -3.0630 C.3   501  EPZ501      0.1833
     10  O5        -1.8650   -5.8240   -2.4600 O.3   501  EPZ501     -0.3260
     11  C6        -2.7990   -5.1130   -4.5770 C.3   501  EPZ501      0.2142
     12  O6        -1.5900   -4.5130   -4.9240 O.3   501  EPZ501     -0.2176
     13  C7        -0.7550   -4.3280    1.6690 C.2   501  EPZ501      0.2420
     14  O7         0.3450   -4.3960    1.1640 O.2   501  EPZ501     -0.2733
     15  C8        -0.8770   -4.2200    3.1510 C.3   501  EPZ501      0.0964
     16  PA        -3.2450   -9.5240   -3.0200 P.3   501  EPZ501      0.2189
     17  PB        -3.1470   -8.0100   -0.5690 P.3   501  EPZ501      0.2208
     18  O1A       -3.0860  -10.6550   -2.1320 O.3   501  EPZ501     -0.4371
     19  O1B       -1.9830   -8.6770   -0.1050 O.2   501  EPZ501     -0.5170
     20  C1D       -7.3790  -12.4880   -3.9720 C.3   501  EPZ501      0.2401
     21  C1E       -3.2360   -1.0180    1.4970 C.2   501  EPZ501      0.3913
     22  O1E       -2.6840   -0.0020    1.0570 O.co2 501  EPZ501     -0.2430
     23  N1U       -6.7530  -13.4110   -2.9880 N.am  501  EPZ501     -0.1766
     24  O2A       -2.2880   -9.3070   -4.0790 O.2   501  EPZ501     -0.5170
     25  O2B       -4.3180   -8.2790    0.2020 O.3   501  EPZ501     -0.4371
     26  C2D       -7.8910  -11.2250   -3.3450 C.3   501  EPZ501      0.2319
     27  O2D       -9.2370  -11.3530   -3.0870 O.3   501  EPZ501     -0.2157
     28  C2E       -3.9320   -2.0220    0.5150 C.3   501  EPZ501      0.2178
     29  O2E       -3.1950   -1.2150    2.7260 O.co2 501  EPZ501     -0.2430
     30  C2U       -7.2640  -14.7500   -2.8980 C.1   501  EPZ501      0.2845
     31  O2U       -8.1990  -15.1260   -3.6240 O.2   501  EPZ501     -0.1918
     32  O3A       -3.3920   -8.2520   -2.1140 O.3   501  EPZ501     -0.2703
     33  C3D       -7.5480  -10.1450   -4.3360 C.3   501  EPZ501      0.2158
     34  O3D       -8.7050   -9.9310   -5.1660 O.3   501  EPZ501     -0.2175
     35  C3E       -5.2820   -1.5110   -0.0020 C.3   501  EPZ501      0.0444
     36  N3U       -6.7180  -15.6420   -1.9960 N.2   501  EPZ501     -0.2452
     37  C4D       -6.3300  -10.6660   -5.1030 C.3   501  EPZ501      0.1799
     38  O4D       -6.4640  -12.0750   -5.0080 O.3   501  EPZ501     -0.3320
     39  C4U       -5.6770  -15.2630   -1.1760 C.1   501  EPZ501      0.2182
     40  O4U       -5.2170  -16.0780   -0.3890 O.2   501  EPZ501     -0.2085
     41  C5D       -4.9520  -10.5550   -4.5170 C.3   501  EPZ501      0.1813
     42  O5D       -4.6710   -9.5490   -3.6130 O.3   501  EPZ501     -0.3112
     43  C5U       -5.1590  -13.9640   -1.2490 C.2   501  EPZ501      0.1242
     44  C6U       -5.7190  -13.0540   -2.1660 C.2   501  EPZ501      0.0929
@<TRIPOS>BOND
     1    34    33    1
     2    37    38    1
     3    37    41    1
     4    37    33    1
     5    38    20    1
     6    12    11    1
     7    11     9    1
     8    41    42    1
     9    33    26    1
    10    24    16    2
    11    20    26    1
    12    20    23    1
    13    31    30    2
    14    42    16    1
    15    26    27    1
    16     8     7    1
    17     9     7    1
    18     9    10    1
    19    16    18    1
    20    16    32    1
    21    23    30   am
    22    23    44    1
    23    30    36    2
    24     7     5    1
    25    10     1    1
    26    44    43    2
    27    32    17    1
    28    36    39    2
    29    43    39    1
    30    39    40    2
    31     5     6    1
    32     5     3    1
    33     1     2    1
    34     1     3    1
    35     6    28    1
    36    17     2    1
    37    17    19    2
    38    17    25    1
    39     3     4    1
    40    35    28    1
    41    28    21    1
    42     4    13   am
    43    22    21   ar
    44    14    13    2
    45    21    29   ar
    46    13    15    1
