@<TRIPOS>MOLECULE
3swe_EPZ_A_1.pdb
 44 46 0 0 0
SMALL
GASTEIGER

@<TRIPOS>ATOM
      1  C1        -1.3480   16.7150  -14.4200 C.3   508  EPZ508      0.2632
      2  O1        -2.2200   15.5460  -14.5140 O.3   508  EPZ508     -0.2864
      3  C2        -0.3680   16.6450  -15.6240 C.3   508  EPZ508      0.1813
      4  N2        -1.1020   16.6400  -16.9400 N.am  508  EPZ508     -0.1994
      5  C3         0.4650   15.3290  -15.5030 C.3   508  EPZ508      0.1734
      6  O3         1.3860   15.2050  -16.6050 O.3   508  EPZ508     -0.3429
      7  C4         1.2710   15.3730  -14.1890 C.3   508  EPZ508      0.2103
      8  O4         2.0690   14.1970  -14.0040 O.3   508  EPZ508     -0.2178
      9  C5         0.2760   15.4880  -13.0010 C.3   508  EPZ508      0.1833
     10  O5        -0.5910   16.6850  -13.1760 O.3   508  EPZ508     -0.3260
     11  C6         0.9600   15.5950  -11.6330 C.3   508  EPZ508      0.2142
     12  O6         1.7660   16.7780  -11.6020 O.3   508  EPZ508     -0.2176
     13  C7        -1.5460   17.8240  -17.5370 C.2   508  EPZ508      0.2420
     14  O7        -1.3850   18.9520  -17.0250 O.2   508  EPZ508     -0.2733
     15  C8        -2.2510   17.7400  -18.8730 C.3   508  EPZ508      0.0964
     16  PA        -4.0870   15.4750  -10.8230 P.3   508  EPZ508      0.2189
     17  PB        -3.5920   15.4750  -13.7460 P.3   508  EPZ508      0.2208
     18  O1A       -5.5210   15.9160  -10.9910 O.2   508  EPZ508     -0.5170
     19  O1B       -4.4110   16.6580  -14.1240 O.2   508  EPZ508     -0.5170
     20  C1D       -6.1170   11.8280   -8.6090 C.3   508  EPZ508      0.2401
     21  C1E        0.9020   14.5810  -18.9450 C.2   508  EPZ508      0.3913
     22  O1E        1.4940   15.5980  -19.2520 O.co2 508  EPZ508     -0.2430
     23  N1U       -7.4490   12.4500   -9.0290 N.am  508  EPZ508     -0.1766
     24  O2A       -3.1630   16.3440  -10.0100 O.3   508  EPZ508     -0.4371
     25  O2B       -4.3790   14.2530  -13.9910 O.3   508  EPZ508     -0.4371
     26  C2D       -5.4080   11.1000   -9.7220 C.3   508  EPZ508      0.2319
     27  O2D       -6.0030    9.8490  -10.0270 O.3   508  EPZ508     -0.2157
     28  C2E        0.9390   14.1020  -17.5040 C.3   508  EPZ508      0.2178
     29  O2E        0.2850   13.9550  -19.8270 O.co2 508  EPZ508     -0.2430
     30  C2U       -8.6710   11.8490   -8.5150 C.1   508  EPZ508      0.2845
     31  O2U       -8.6900   10.8740   -7.7580 O.2   508  EPZ508     -0.1918
     32  O3A       -3.4150   15.7380  -12.2320 O.3   508  EPZ508     -0.2703
     33  C3D       -3.9650   10.9840   -9.2270 C.3   508  EPZ508      0.2158
     34  O3D       -3.7890    9.9310   -8.2600 O.3   508  EPZ508     -0.2175
     35  C3E        1.9140   12.9610  -17.3250 C.3   508  EPZ508      0.0444
     36  N3U       -9.8510   12.4740   -8.9560 N.2   508  EPZ508     -0.2452
     37  C4D       -3.7530   12.3130   -8.5300 C.3   508  EPZ508      0.1799
     38  O4D       -5.1440   12.7800   -8.1740 O.3   508  EPZ508     -0.3320
     39  C4U       -9.9350   13.6090   -9.8340 C.1   508  EPZ508      0.2182
     40  O4U      -11.0500   14.0460  -10.1280 O.2   508  EPZ508     -0.2085
     41  C5D       -3.0350   13.4180   -9.4040 C.3   508  EPZ508      0.1813
     42  O5D       -4.0740   14.1990   -9.9130 O.3   508  EPZ508     -0.3112
     43  C5U       -8.6350   14.1540  -10.3060 C.2   508  EPZ508      0.1242
     44  C6U       -7.4880   13.5770   -9.9030 C.2   508  EPZ508      0.0929
@<TRIPOS>BOND
     1    29    21   ar
     2    22    21   ar
     3    21    28    1
     4    15    13    1
     5    13    14    2
     6    13     4   am
     7    28    35    1
     8    28     6    1
     9     4     3    1
    10     6     5    1
    11     3     5    1
    12     3     1    1
    13     5     7    1
    14     2     1    1
    15     2    17    1
    16     1    10    1
    17     7     8    1
    18     7     9    1
    19    19    17    2
    20    25    17    1
    21    17    32    1
    22    10     9    1
    23     9    11    1
    24    32    16    1
    25    11    12    1
    26    18    16    2
    27    16    24    1
    28    16    42    1
    29    43    44    2
    30    43    39    1
    31    40    39    2
    32    27    26    1
    33    42    41    1
    34    44    23    1
    35    39    36    2
    36    26    33    1
    37    26    20    1
    38    41    37    1
    39    33    37    1
    40    33    34    1
    41    23    20    1
    42    23    30   am
    43    36    30    2
    44    20    38    1
    45    37    38    1
    46    30    31    2
