@<TRIPOS>MOLECULE
3swg_EPZ_A_1.pdb
 44 46 0 0 0
SMALL
GASTEIGER

@<TRIPOS>ATOM
      1  C1        93.2910   42.0000    5.7450 C.3   518  EPZ518      0.2632
      2  O1        94.5940   42.6040    5.3490 O.3   518  EPZ518     -0.2864
      3  C2        92.3190   42.4260    4.6030 C.3   518  EPZ518      0.1813
      4  N2        92.8830   41.9090    3.3460 N.am  518  EPZ518     -0.1994
      5  C3        92.1740   43.9730    4.5570 C.3   518  EPZ518      0.1734
      6  O3        91.2910   44.3620    3.4710 O.3   518  EPZ518     -0.3429
      7  C4        91.5150   44.3850    5.9160 C.3   518  EPZ518      0.2103
      8  O4        91.3270   45.7900    5.9320 O.3   518  EPZ518     -0.2178
      9  C5        92.4840   43.9720    7.0900 C.3   518  EPZ518      0.1833
     10  O5        92.7060   42.4990    7.0540 O.3   518  EPZ518     -0.3260
     11  C6        91.9010   44.3370    8.4840 C.3   518  EPZ518      0.2142
     12  O6        90.6430   43.7130    8.7100 O.3   518  EPZ518     -0.2176
     13  C7        92.6390   40.6050    2.9890 C.2   518  EPZ518      0.2420
     14  O7        91.9670   39.8500    3.7220 O.2   518  EPZ518     -0.2733
     15  C8        93.1820   40.0820    1.6820 C.3   518  EPZ518      0.0964
     16  PA        96.4030   42.8090    8.9990 P.3   518  EPZ518      0.2189
     17  PB        95.8060   42.2620    6.3320 P.3   518  EPZ518      0.2208
     18  O1A       97.5170   41.8890    8.8170 O.2   518  EPZ518     -0.5170
     19  O1B       95.9790   40.8270    6.5390 O.3   518  EPZ518     -0.4371
     20  C1D       99.9000   45.4110   10.9830 C.3   518  EPZ518      0.2401
     21  C1E       91.6800   44.5760    1.0950 C.2   518  EPZ518      0.3913
     22  O1E       90.5080   44.2090    0.8630 O.co2 518  EPZ518     -0.2430
     23  N1U      100.7640   44.2820   10.6090 N.am  518  EPZ518     -0.1766
     24  O2A       95.3710   42.1310    9.9830 O.3   518  EPZ518     -0.4371
     25  O2B       97.0310   42.8930    5.6200 O.2   518  EPZ518     -0.5170
     26  C2D       99.4700   46.1600    9.6980 C.3   518  EPZ518      0.2319
     27  O2D      100.3910   47.0680    9.1390 O.3   518  EPZ518     -0.2157
     28  C2E       92.0640   45.0550    2.4940 C.3   518  EPZ518      0.2178
     29  O2E       92.5260   44.5540    0.1830 O.co2 518  EPZ518     -0.2430
     30  C2U      102.1270   44.3360   10.8770 C.1   518  EPZ518      0.2845
     31  O2U      102.6260   45.3300   11.4320 O.2   518  EPZ518     -0.1918
     32  O3A       95.4900   43.0410    7.7120 O.3   518  EPZ518     -0.2703
     33  C3D       98.0840   46.7230   10.1040 C.3   518  EPZ518      0.2158
     34  O3D       98.3200   48.0380   10.6790 O.3   518  EPZ518     -0.2175
     35  C3E       91.8170   46.5450    2.6490 C.3   518  EPZ518      0.0444
     36  N3U      102.9320   43.2610   10.5130 N.2   518  EPZ518     -0.2452
     37  C4D       97.6250   45.7680   11.3000 C.3   518  EPZ518      0.1799
     38  O4D       98.7090   44.9120   11.5930 O.3   518  EPZ518     -0.3320
     39  C4U      102.4470   42.0990    9.8820 C.1   518  EPZ518      0.2182
     40  O4U      103.2070   41.2080    9.5900 O.2   518  EPZ518     -0.2085
     41  C5D       96.4630   44.8020   10.8460 C.3   518  EPZ518      0.1813
     42  O5D       96.9290   44.2580    9.5520 O.3   518  EPZ518     -0.3112
     43  C5U      101.0310   41.9600    9.5680 C.2   518  EPZ518      0.1242
     44  C6U      100.1720   43.1290    9.9660 C.2   518  EPZ518      0.0929
@<TRIPOS>BOND
     1    29    21   ar
     2    22    21   ar
     3    21    28    1
     4    15    13    1
     5    28    35    1
     6    28     6    1
     7    13     4   am
     8    13    14    2
     9     4     3    1
    10     6     5    1
    11     5     3    1
    12     5     7    1
    13     3     1    1
    14     2     1    1
    15     2    17    1
    16    25    17    2
    17     1    10    1
    18     7     8    1
    19     7     9    1
    20    17    19    1
    21    17    32    1
    22    10     9    1
    23     9    11    1
    24    32    16    1
    25    11    12    1
    26    18    16    2
    27    16    42    1
    28    16    24    1
    29    27    26    1
    30    42    41    1
    31    43    39    1
    32    43    44    2
    33    40    39    2
    34    26    33    1
    35    26    20    1
    36    39    36    2
    37    44    23    1
    38    33    34    1
    39    33    37    1
    40    36    30    2
    41    23    30   am
    42    23    20    1
    43    41    37    1
    44    30    31    2
    45    20    38    1
    46    37    38    1
