@<TRIPOS>MOLECULE
3swi_UPN_A_1.pdb
 44 46 0 0 0
SMALL
GASTEIGER

@<TRIPOS>ATOM
      1  C1       154.1700   69.8800  191.6820 C.3   427  UPN427      0.2644
      2  O1       153.0250   70.8860  191.4720 O.3   427  UPN427     -0.2864
      3  C2       154.0190   68.7810  190.5900 C.3   427  UPN427      0.1940
      4  N2       154.1450   69.4280  189.2720 N.am  427  UPN427     -0.1981
      5  C3       152.6890   67.9970  190.7180 C.3   427  UPN427      0.2235
      6  O3       152.6800   67.0300  189.7180 O.2   427  UPN427     -0.4682
      7  C4       152.5400   67.2950  192.1110 C.3   427  UPN427      0.2230
      8  O4       153.4830   66.2900  192.1410 O.3   427  UPN427     -0.2165
      9  C5       152.8470   68.3260  193.2190 C.3   427  UPN427      0.1845
     10  O5       153.9940   69.1950  192.9400 O.3   427  UPN427     -0.3259
     11  C6       153.1770   67.6260  194.5190 C.3   427  UPN427      0.2142
     12  O6       152.8710   68.6450  195.4550 O.3   427  UPN427     -0.2176
     13  C7       155.2770   69.8770  188.7070 C.2   427  UPN427      0.2421
     14  O7       156.3750   69.8210  189.1860 O.2   427  UPN427     -0.2733
     15  C8       155.1370   70.4970  187.3730 C.3   427  UPN427      0.0964
     16  PA       152.7240   72.4710  195.0930 P.3   427  UPN427      0.2189
     17  PB       152.9200   72.1260  192.4010 P.3   427  UPN427      0.2208
     18  O1A      153.1650   73.8550  194.9370 O.2   427  UPN427     -0.5170
     19  O1B      154.1230   72.8040  192.1450 O.3   427  UPN427     -0.4371
     20  C1D      149.1630   74.5170  197.4030 C.3   427  UPN427      0.2401
     21  C1E      152.0860   67.0540  187.4480 C.2   427  UPN427      0.4211
     22  O1E      152.7740   66.0530  187.2090 O.co2 427  UPN427     -0.2371
     23  N1U      149.7400   75.8280  196.9690 N.am  427  UPN427     -0.1766
     24  O2A      153.6840   71.7610  195.9200 O.3   427  UPN427     -0.4371
     25  O2B      151.7650   72.8940  191.9890 O.2   427  UPN427     -0.5170
     26  C2D      148.5890   73.6360  196.3380 C.3   427  UPN427      0.2319
     27  O2D      147.3860   74.1570  195.5580 O.3   427  UPN427     -0.2157
     28  C2E      151.5720   67.0930  188.7870 C.2   427  UPN427      0.2182
     29  O2E      151.8080   67.9800  186.6950 O.co2 427  UPN427     -0.2371
     30  C2U      149.1580   77.0460  197.3810 C.1   427  UPN427      0.2845
     31  O2U      148.1680   77.1010  198.0980 O.2   427  UPN427     -0.1918
     32  O3A      152.8300   71.6450  193.8600 O.3   427  UPN427     -0.2703
     33  C3D      148.4960   72.2850  197.1240 C.3   427  UPN427      0.2158
     34  O3D      147.2640   72.3850  197.9870 O.3   427  UPN427     -0.2175
     35  C3E      150.2390   67.1400  189.0140 C.2   427  UPN427      0.0471
     36  N3U      149.7010   78.1860  196.9810 N.2   427  UPN427     -0.2452
     37  C4D      149.9270   72.3490  197.8170 C.3   427  UPN427      0.1799
     38  O4D      150.2190   73.7590  197.9360 O.3   427  UPN427     -0.3320
     39  C4U      150.8030   78.3220  196.1900 C.1   427  UPN427      0.2182
     40  O4U      151.2210   79.4160  195.8810 O.2   427  UPN427     -0.2085
     41  C5D      151.1270   71.7600  197.0190 C.3   427  UPN427      0.1813
     42  O5D      151.3520   72.4200  195.7730 O.3   427  UPN427     -0.3112
     43  C5U      151.4190   77.0740  195.7590 C.2   427  UPN427      0.1242
     44  C6U      150.8780   75.8620  196.1530 C.2   427  UPN427      0.0929
@<TRIPOS>BOND
     1    29    21   ar
     2    22    21   ar
     3    15    13    1
     4    21    28    1
     5    13    14    2
     6    13     4   am
     7    28    35    2
     8    28     6    1
     9     4     3    1
    10     6     5    1
    11     3     5    1
    12     3     1    1
    13     5     7    1
    14     2     1    1
    15     2    17    1
    16     1    10    1
    17    25    17    2
    18     7     8    1
    19     7     9    1
    20    19    17    1
    21    17    32    1
    22    10     9    1
    23     9    11    1
    24    32    16    1
    25    11    12    1
    26    18    16    2
    27    16    42    1
    28    16    24    1
    29    27    26    1
    30    43    44    2
    31    43    39    1
    32    42    41    1
    33    40    39    2
    34    44    23    1
    35    39    36    2
    36    26    33    1
    37    26    20    1
    38    23    30   am
    39    23    20    1
    40    36    30    2
    41    41    37    1
    42    33    37    1
    43    33    34    1
    44    30    31    2
    45    20    38    1
    46    37    38    1
