@<TRIPOS>MOLECULE
3swi_UD2_A_1.pdb
 39 41 0 0 0
SMALL
GASTEIGER

@<TRIPOS>ATOM
      1  C1'      141.4290   69.8360  176.4150 C.3   426  UD2426      0.2633
      2  C2'      141.3390   69.1130  175.0250 C.3   426  UD2426      0.1845
      3  C3'      142.7410   68.4520  174.6780 C.3   426  UD2426      0.2094
      4  C4'      143.8530   69.5290  174.6340 C.3   426  UD2426      0.2136
      5  C5'      143.8550   70.2480  176.0710 C.3   426  UD2426      0.1834
      6  C6'      144.8690   71.3860  176.3100 C.3   426  UD2426      0.2142
      7  C7'      139.3350   67.8390  174.0430 C.2   426  UD2426      0.2420
      8  C8'      139.5620   68.3640  172.6310 C.3   426  UD2426      0.0964
      9  N2'      140.2190   68.1130  175.0920 N.am  426  UD2426     -0.1992
     10  O1'      141.6080   68.8290  177.3870 O.3   426  UD2426     -0.2864
     11  O3'      142.7230   67.8020  173.4240 O.3   426  UD2426     -0.2183
     12  O4'      143.5410   70.4520  173.5820 O.3   426  UD2426     -0.2176
     13  O5'      142.5090   70.7740  176.3740 O.3   426  UD2426     -0.3260
     14  O6'      144.5940   72.0190  177.5470 O.3   426  UD2426     -0.2176
     15  O7'      138.3710   67.1560  174.2780 O.2   426  UD2426     -0.2733
     16  N1       140.1460   74.7320  183.2720 N.am  426  UD2426     -0.1766
     17  C2       139.7580   76.0080  183.7650 C.1   426  UD2426      0.2845
     18  N3       140.5380   77.1100  183.3450 N.2   426  UD2426     -0.2452
     19  C4       141.6690   77.0540  182.4750 C.1   426  UD2426      0.2182
     20  C5       142.0380   75.6990  181.9820 C.2   426  UD2426      0.1242
     21  C6       141.2840   74.6240  182.3890 C.2   426  UD2426      0.0929
     22  O2       138.8080   76.1810  184.5160 O.2   426  UD2426     -0.1918
     23  O4       142.2610   78.0780  182.1860 O.2   426  UD2426     -0.2085
     24  C1B      139.3510   73.5050  183.6950 C.3   426  UD2426      0.2401
     25  C2B      138.4240   72.9820  182.5840 C.3   426  UD2426      0.2319
     26  O2'      137.1070   73.5090  182.7120 O.3   426  UD2426     -0.2157
     27  C3B      138.4390   71.4680  182.8950 C.3   426  UD2426      0.2158
     28  C4B      139.8370   71.2500  183.5740 C.3   426  UD2426      0.1799
     29  O4B      140.2790   72.5020  184.0190 O.3   426  UD2426     -0.3320
     30  O3B      137.4440   71.1130  183.8590 O.3   426  UD2426     -0.2175
     31  C5B      140.9290   70.7130  182.6000 C.3   426  UD2426      0.1813
     32  O5B      140.9250   71.5640  181.4570 O.3   426  UD2426     -0.3112
     33  PA       141.9130   71.4230  180.1230 P.3   426  UD2426      0.2189
     34  O1A      143.2600   71.0820  180.5370 O.3   426  UD2426     -0.4371
     35  O2A      141.6480   72.4390  179.0930 O.2   426  UD2426     -0.5170
     36  O3A      141.1080   70.0790  179.7520 O.3   426  UD2426     -0.2703
     37  PB       140.7910   68.8620  178.8210 P.3   426  UD2426      0.2208
     38  O1B      139.3750   69.0570  178.4730 O.2   426  UD2426     -0.5170
     39  O2B      141.1360   67.6930  179.5910 O.3   426  UD2426     -0.4371
@<TRIPOS>BOND
     1     8     7    1
     2    11     3    1
     3    12     4    1
     4     7    15    2
     5     7     9   am
     6     4     3    1
     7     4     5    1
     8     3     2    1
     9     2     9    1
    10     2     1    1
    11     5     6    1
    12     5    13    1
    13     6    14    1
    14    13     1    1
    15     1    10    1
    16    10    37    1
    17    38    37    2
    18    37    39    1
    19    37    36    1
    20    35    33    2
    21    36    33    1
    22    33    34    1
    23    33    32    1
    24    32    31    1
    25    20    21    2
    26    20    19    1
    27    23    19    2
    28    21    16    1
    29    19    18    2
    30    25    26    1
    31    25    27    1
    32    25    24    1
    33    31    28    1
    34    27    28    1
    35    27    30    1
    36    16    24    1
    37    16    17   am
    38    18    17    2
    39    28    29    1
    40    24    29    1
    41    17    22    2
