@<TRIPOS>MOLECULE
3swj_HEM_A_1.pdb
 43 50 0 0 0
SMALL
GASTEIGER

@<TRIPOS>ATOM
      1  CHA       30.5070  -16.6670    0.6740 C.2   300  HEM300      0.0000
      2  CHB       34.4300  -18.6540   -1.4620 C.2   300  HEM300      0.0000
      3  CHC       34.1260  -22.5260    1.4870 C.2   300  HEM300      0.0000
      4  CHD       30.3510  -20.4850    3.7530 C.2   300  HEM300      0.0000
      5  C1A       31.6030  -16.8550   -0.1540 C.ar  300  HEM300      0.0000
      6  C2A       32.0940  -15.9170   -1.1520 C.ar  300  HEM300      0.0000
      7  C3A       33.1710  -16.4670   -1.7350 C.ar  300  HEM300      0.0000
      8  C4A       33.4080  -17.7720   -1.1370 C.ar  300  HEM300      0.0000
      9  CMA       34.0230  -15.8290   -2.8570 C.3   300  HEM300      0.0000
     10  CAA       31.4820  -14.5280   -1.4780 C.3   300  HEM300      0.0000
     11  CBA       30.2400  -14.6980   -2.3510 C.3   300  HEM300      0.0000
     12  CGA       29.4570  -13.4100   -2.4840 C.2   300  HEM300      0.0000
     13  O1A       29.7750  -12.4100   -1.7820 O.co2 300  HEM300      0.0000
     14  O2A       28.4940  -13.3860   -3.2960 O.co2 300  HEM300      0.0000
     15  C1B       34.6900  -19.8800   -0.8690 C.2   300  HEM300      0.0000
     16  C2B       35.7250  -20.8380   -1.2370 C.2   300  HEM300      0.0000
     17  C3B       35.6360  -21.8840   -0.4040 C.2   300  HEM300      0.0000
     18  C4B       34.5350  -21.6540    0.4980 C.2   300  HEM300      0.0000
     19  CMB       36.7680  -20.6680   -2.3660 C.3   300  HEM300      0.0000
     20  CAB       36.4870  -23.1730   -0.3820 C.2   300  HEM300      0.0000
     21  CBB       37.0140  -23.6810   -1.5020 C.2   300  HEM300      0.0000
     22  C1C       33.1150  -22.3020    2.3960 C.ar  300  HEM300      0.0000
     23  C2C       32.7770  -23.1100    3.5550 C.ar  300  HEM300      0.0000
     24  C3C       31.7250  -22.5380    4.1520 C.ar  300  HEM300      0.0000
     25  C4C       31.3790  -21.3410    3.4250 C.ar  300  HEM300      0.0000
     26  CMC       33.4800  -24.4160    3.9970 C.3   300  HEM300      0.0000
     27  CAC       30.9920  -22.9840    5.4350 C.2   300  HEM300      0.0000
     28  CBC       31.6680  -23.4690    6.4800 C.2   300  HEM300      0.0000
     29  C1D       30.0820  -19.2500    3.2030 C.2   300  HEM300      0.0000
     30  C2D       29.1660  -18.2790    3.7620 C.2   300  HEM300      0.0000
     31  C3D       29.2140  -17.0810    2.8060 C.2   300  HEM300      0.0000
     32  C4D       30.1510  -17.4500    1.7610 C.2   300  HEM300      0.0000
     33  CMD       28.3200  -18.4090    5.0500 C.3   300  HEM300      0.0000
     34  CAD       28.4170  -15.7640    2.9470 C.3   300  HEM300      0.0000
     35  CBD       29.3670  -14.6620    3.4100 C.3   300  HEM300      0.0000
     36  CGD       28.7610  -13.3090    3.1340 C.2   300  HEM300      0.0000
     37  O1D       27.6640  -13.0170    3.6740 O.co2 300  HEM300      0.0000
     38  O2D       29.3830  -12.5180    2.3770 O.co2 300  HEM300      0.0000
     39  NA        32.4280  -17.9720   -0.1770 N.ar  300  HEM300      0.0000
     40  NB        33.9860  -20.4220    0.1930 N.2   300  HEM300      0.0000
     41  NC        32.2410  -21.2350    2.3560 N.ar  300  HEM300      0.0000
     42  ND        30.6360  -18.7280    2.0340 N.2   300  HEM300      0.0000
     43 FE         32.2840  -19.6680    1.0690 Fe    300  HEM300      0.0000
@<TRIPOS>BOND
     1    14    12   ar
     2     9     7    1
     3    12    11    1
     4    12    13   ar
     5    19    16    1
     6    11    10    1
     7     7     6   ar
     8     7     8   ar
     9    21    20    2
    10    10     6    1
    11     2     8    2
    12     2    15    1
    13    16    15    1
    14    16    17    2
    15     6     5   ar
    16     8    39   ar
    17    15    40    2
    18    17    20    1
    19    17    18    1
    20    39     5   ar
    21    39    43    1
    22     5     1    2
    23    40    18    1
    24    40    43    1
    25    18     3    2
    26     1    32    1
    27    43    42    1
    28    43    41    1
    29     3    22    1
    30    32    42    2
    31    32    31    1
    32    42    29    1
    33    41    22   ar
    34    41    25   ar
    35    38    36   ar
    36    22    23   ar
    37    31    34    1
    38    31    30    2
    39    34    35    1
    40    36    35    1
    41    36    37   ar
    42    29     4    2
    43    29    30    1
    44    25     4    1
    45    25    24   ar
    46    23    26    1
    47    23    24   ar
    48    30    33    1
    49    24    27    1
    50    27    28    2
