@<TRIPOS>MOLECULE
3swq_EPU_A_1.pdb
 44 46 0 0 0
SMALL
GASTEIGER

@<TRIPOS>ATOM
      1  N1U       81.4280    7.1860  128.8760 N.am  440  EPU440     -0.1766
      2  C2U       80.8390    8.4260  129.2080 C.1   440  EPU440      0.2845
      3  N3U       81.4550    9.5990  128.7200 N.2   440  EPU440     -0.2452
      4  C4U       82.6470    9.5820  127.9070 C.1   440  EPU440      0.2182
      5  C5U       83.1990    8.2660  127.6050 C.2   440  EPU440      0.1242
      6  C6U       82.5960    7.1430  128.0810 C.2   440  EPU440      0.0929
      7  O2U       79.8170    8.5510  129.8950 O.2   440  EPU440     -0.1918
      8  O4U       83.0990   10.6420  127.5380 O.2   440  EPU440     -0.2085
      9  C1D       80.8460    5.8860  129.3440 C.3   440  EPU440      0.2401
     10  C2D       80.3250    4.9810  128.1910 C.3   440  EPU440      0.2319
     11  O2D       79.0650    5.4770  127.8050 O.3   440  EPU440     -0.2157
     12  C3D       80.3740    3.5930  128.8900 C.3   440  EPU440      0.2158
     13  C4D       81.6270    3.7120  129.7850 C.3   440  EPU440      0.1799
     14  O4D       81.8280    5.1230  129.9870 O.3   440  EPU440     -0.3320
     15  O3D       79.2180    3.4670  129.6870 O.3   440  EPU440     -0.2175
     16  C5D       82.9210    3.0760  129.1380 C.3   440  EPU440      0.1813
     17  O5D       83.1230    3.6940  127.9360 O.3   440  EPU440     -0.3112
     18  PA        84.6080    3.7120  127.1710 P.3   440  EPU440      0.2189
     19  O1A       84.8880    5.1640  126.9040 O.2   440  EPU440     -0.5170
     20  O2A       85.5110    2.9330  128.0780 O.3   440  EPU440     -0.4371
     21  O3A       84.3320    3.0020  125.8160 O.3   440  EPU440     -0.2703
     22  PB        84.7770    3.3510  124.3280 P.3   440  EPU440      0.2208
     23  O1B       86.1060    3.9760  124.3240 O.3   440  EPU440     -0.4371
     24  O2B       83.5930    4.0010  123.6920 O.2   440  EPU440     -0.5170
     25  C1        86.0360    1.0630  123.7870 C.3   440  EPU440      0.2644
     26  C2        85.9340    0.0190  122.6540 C.3   440  EPU440      0.1940
     27  C3        84.6210   -0.7980  122.7930 C.3   440  EPU440      0.2235
     28  C4        84.6820   -1.4960  124.1780 C.3   440  EPU440      0.2230
     29  C5        84.7620   -0.3720  125.2820 C.3   440  EPU440      0.1845
     30  C6        84.8070   -0.9830  126.7180 C.3   440  EPU440      0.2142
     31  C7        87.2060    1.0700  120.8670 C.2   440  EPU440      0.2421
     32  C8        87.1500    1.7860  119.4960 C.3   440  EPU440      0.0964
     33  N2        85.9940    0.7130  121.3830 N.am  440  EPU440     -0.1981
     34  O1        84.9360    1.8740  123.6260 O.3   440  EPU440     -0.2864
     35  O3        84.5830   -1.7580  121.7040 O.2   440  EPU440     -0.4682
     36  O4        83.4980   -2.2540  124.3240 O.3   440  EPU440     -0.2165
     37  O5        85.9480    0.3870  125.0540 O.3   440  EPU440     -0.3259
     38  O6        85.8530   -1.9460  126.8000 O.3   440  EPU440     -0.2176
     39  O7        88.2950    0.8690  121.3710 O.2   440  EPU440     -0.2733
     40  C1E       83.8830   -1.3580  119.2840 C.2   440  EPU440      0.4211
     41  O1E       84.6950   -2.1730  118.8800 O.co2 440  EPU440     -0.2371
     42  O2E       83.3840   -0.3930  118.6220 O.co2 440  EPU440     -0.2371
     43  C2E       83.4890   -1.6220  120.7660 C.2   440  EPU440      0.2182
     44  C3E       82.1740   -1.7810  121.0530 C.2   440  EPU440      0.0471
@<TRIPOS>BOND
     1    42    40   ar
     2    41    40   ar
     3    40    43    1
     4    32    31    1
     5    43    44    2
     6    43    35    1
     7    31    39    2
     8    31    33   am
     9    33    26    1
    10    35    27    1
    11    26    27    1
    12    26    25    1
    13    27    28    1
    14    34    25    1
    15    34    22    1
    16    24    22    2
    17    25    37    1
    18    28    36    1
    19    28    29    1
    20    23    22    1
    21    22    21    1
    22    37    29    1
    23    29    30    1
    24    21    18    1
    25    30    38    1
    26    19    18    2
    27    18    17    1
    28    18    20    1
    29     8     4    2
    30     5     4    1
    31     5     6    2
    32    11    10    1
    33     4     3    2
    34    17    16    1
    35     6     1    1
    36    10    12    1
    37    10     9    1
    38     3     2    2
    39     1     2   am
    40     1     9    1
    41    12    15    1
    42    12    13    1
    43    16    13    1
    44     2     7    2
    45     9    14    1
    46    13    14    1
