@<TRIPOS>MOLECULE
3swr_SFG_A_1.pdb
 27 29 0 0 0
SMALL
GASTEIGER

@<TRIPOS>ATOM
      1  N         -8.8670   -3.5670   28.1190 N.3   300  SFG300     -0.1159
      2  CA        -7.7050   -4.3550   28.7450 C.3   300  SFG300      0.2160
      3  C         -7.5800   -5.7580   27.9810 C.2   300  SFG300      0.3860
      4  O         -8.3780   -6.0360   27.0490 O.co2 300  SFG300     -0.2437
      5  OXT       -6.6280   -6.5530   28.3780 O.co2 300  SFG300     -0.2437
      6  CB        -7.6680   -4.5150   30.2800 C.2   300  SFG300      0.0007
      7  CG        -7.7830   -3.2820   31.1550 C.2   300  SFG300     -0.0100
      8  CD        -7.5700   -3.4480   32.6720 C.3   300  SFG300      0.1160
      9  NE        -8.7730   -3.8660   33.4320 N.3   300  SFG300     -0.1281
     10  C5'       -6.9930   -2.1390   33.2590 C.3   300  SFG300      0.0559
     11  C4'       -5.4000   -2.1310   33.2520 C.3   300  SFG300      0.1541
     12  O4'       -4.8860   -0.8390   33.5820 O.3   300  SFG300     -0.3161
     13  C3'       -4.7100   -3.0720   34.1790 C.3   300  SFG300      0.2160
     14  O3'       -3.8820   -3.9590   33.4450 O.3   300  SFG300     -0.2175
     15  C2'       -3.9480   -2.1180   35.1780 C.3   300  SFG300      0.2569
     16  O2'       -2.8020   -2.7340   35.7410 O.3   300  SFG300     -0.2130
     17  C1'       -3.6380   -0.8520   34.3640 C.3   300  SFG300      0.3185
     18  N9        -3.5100    0.2800   35.0640 N.pl3 300  SFG300     -0.1439
     19  C8        -4.0310    0.7680   36.2480 C.3   300  SFG300      0.3377
     20  N7        -3.6440    1.9680   36.5810 N.2   300  SFG300     -0.2095
     21  C5        -2.7670    2.3650   35.5280 C.2   300  SFG300      0.2526
     22  C6        -2.0130    3.5860   35.2830 C.2   300  SFG300      0.4393
     23  N6        -2.0160    4.6550   36.0960 N.pl3 300  SFG300      0.2180
     24  N1        -1.2680    3.6000   34.1270 N.2   300  SFG300      0.0021
     25  C2        -1.2140    2.5540   33.2560 C.3   300  SFG300      0.5254
     26  N3        -1.9150    1.3860   33.4610 N.2   300  SFG300     -0.0055
     27  C4        -2.6710    1.3490   34.6010 C.2   300  SFG300      0.3518
@<TRIPOS>BOND
     1     4     3   ar
     2     3     5   ar
     3     3     2    1
     4     1     2    1
     5     2     6    1
     6     6     7    2
     7     7     8    1
     8     8    10    1
     9     8     9    1
    10    11    10    1
    11    11    12    1
    12    11    13    1
    13    25    26    1
    14    25    24    1
    15    14    13    1
    16    26    27    2
    17    12    17    1
    18    24    22    2
    19    13    15    1
    20    17    18    1
    21    17    15    1
    22    27    18    1
    23    27    21    1
    24    18    19    1
    25    15    16    1
    26    22    21    1
    27    22    23    1
    28    21    20    2
    29    19    20    1
