@<TRIPOS>MOLECULE
3sws_HEC_A_1.pdb
 43 50 0 0 0
SMALL
GASTEIGER

@<TRIPOS>ATOM
      1 FE         19.0880   49.4430  -76.4840 Fe    500  HEC500      0.0000
      2  CHA       18.5750   49.4680  -73.1030 C.2   500  HEC500      0.0000
      3  CHB       15.9420   50.6900  -76.9860 C.2   500  HEC500      0.0000
      4  CHC       19.9260   50.2160  -79.7070 C.2   500  HEC500      0.0000
      5  CHD       22.0600   47.7610  -76.1040 C.2   500  HEC500      0.0000
      6  NA        17.4820   49.9230  -75.2690 N.ar  500  HEC500      0.0000
      7  C1A       17.4730   49.9390  -73.9370 C.ar  500  HEC500      0.0000
      8  C2A       16.1610   50.3310  -73.3590 C.ar  500  HEC500      0.0000
      9  C3A       15.4130   50.7010  -74.4410 C.ar  500  HEC500      0.0000
     10  C4A       16.3270   50.4890  -75.5910 C.ar  500  HEC500      0.0000
     11  CMA       13.9870   51.2290  -74.4620 C.3   500  HEC500      0.0000
     12  CAA       15.8630   50.3800  -71.8620 C.3   500  HEC500      0.0000
     13  CBA       14.9570   49.2160  -71.5040 C.3   500  HEC500      0.0000
     14  CGA       14.9390   48.9810  -69.9720 C.2   500  HEC500      0.0000
     15  O1A       14.2280   48.0710  -69.5170 O.co2 500  HEC500      0.0000
     16  O2A       15.5610   49.7180  -69.1920 O.co2 500  HEC500      0.0000
     17  NB        18.0990   50.3000  -78.0790 N.2   500  HEC500      0.0000
     18  C1B       16.8730   50.8080  -78.0930 C.2   500  HEC500      0.0000
     19  C2B       16.5280   51.4790  -79.3710 C.2   500  HEC500      0.0000
     20  C3B       17.6670   51.3370  -80.1570 C.2   500  HEC500      0.0000
     21  C4B       18.5910   50.5990  -79.2910 C.2   500  HEC500      0.0000
     22  CMB       15.1990   52.1060  -79.6210 C.3   500  HEC500      0.0000
     23  CAB       18.0190   51.8350  -81.5730 C.3   500  HEC500      0.0000
     24  CBB       17.8520   53.3770  -81.5620 C.3   500  HEC500      0.0000
     25  NC        20.7170   49.0110  -77.7000 N.ar  500  HEC500      0.0000
     26  C1C       20.8730   49.3580  -78.9890 C.ar  500  HEC500      0.0000
     27  C2C       22.0380   48.7470  -79.6470 C.ar  500  HEC500      0.0000
     28  C3C       22.6300   48.0110  -78.6150 C.ar  500  HEC500      0.0000
     29  C4C       21.7800   48.2800  -77.4210 C.ar  500  HEC500      0.0000
     30  CMC       22.4170   48.8680  -81.1290 C.3   500  HEC500      0.0000
     31  CAC       23.8560   47.1430  -78.5810 C.3   500  HEC500      0.0000
     32  CBC       25.1870   47.7170  -79.0380 C.3   500  HEC500      0.0000
     33  ND        20.0960   48.6360  -74.8880 N.2   500  HEC500      0.0000
     34  C1D       21.3610   48.1830  -74.8820 C.2   500  HEC500      0.0000
     35  C2D       21.9050   48.0170  -73.5320 C.2   500  HEC500      0.0000
     36  C3D       20.9380   48.5220  -72.6710 C.2   500  HEC500      0.0000
     37  C4D       19.8580   48.9320  -73.5530 C.2   500  HEC500      0.0000
     38  CMD       23.2830   47.4910  -73.1830 C.3   500  HEC500      0.0000
     39  CAD       21.1010   48.5950  -71.1520 C.3   500  HEC500      0.0000
     40  CBD       21.8830   49.9340  -71.0100 C.3   500  HEC500      0.0000
     41  CGD       21.8780   50.5520  -69.6240 C.2   500  HEC500      0.0000
     42  O1D       22.7040   51.4820  -69.4520 O.co2 500  HEC500      0.0000
     43  O2D       21.0770   50.1580  -68.7390 O.co2 500  HEC500      0.0000
@<TRIPOS>BOND
     1    23    24    1
     2    23    20    1
     3    30    27    1
     4    20    19    2
     5    20    21    1
     6     4    21    2
     7     4    26    1
     8    27    26   ar
     9    27    28   ar
    10    22    19    1
    11    19    18    1
    12    21    17    1
    13    32    31    1
    14    26    25   ar
    15    28    31    1
    16    28    29   ar
    17    18    17    2
    18    18     3    1
    19    17     1    1
    20    25    29   ar
    21    25     1    1
    22    29     5    1
    23     3    10    2
    24     1     6    1
    25     1    33    1
    26     5    34    2
    27    10     6   ar
    28    10     9   ar
    29     6     7   ar
    30    33    34    1
    31    33    37    2
    32    34    35    1
    33    11     9    1
    34     9     8   ar
    35     7     8   ar
    36     7     2    2
    37    37     2    1
    38    37    36    1
    39    35    38    1
    40    35    36    2
    41     8    12    1
    42    36    39    1
    43    12    13    1
    44    13    14    1
    45    39    40    1
    46    40    41    1
    47    14    15   ar
    48    14    16   ar
    49    41    42   ar
    50    41    43   ar
