@<TRIPOS>MOLECULE
3sww_KXB_A_1.pdb
 25 27 0 0 0
SMALL
GASTEIGER

@<TRIPOS>ATOM
      1  C01       47.4920   49.1780   37.1850 C.ar    1  KXB1        0.0014
      2  C02       47.3570   48.7020   38.4730 C.ar    1  KXB1        0.0114
      3  C03       48.4700   50.6910   39.3500 C.ar    1  KXB1        0.0228
      4  C04       48.1080   50.3960   36.9650 C.ar    1  KXB1        0.0069
      5  C05       48.2770   50.9190   35.5920 C.2     1  KXB1       -0.0137
      6  C06       49.4990   50.7830   34.9660 C.2     1  KXB1        0.0283
      7  C07       47.2530   51.5740   34.8820 C.3     1  KXB1        0.0892
      8  C08       47.8410   49.4750   39.5290 C.ar    1  KXB1        0.0585
      9  C09       48.5910   51.1260   38.0500 C.ar    1  KXB1        0.0582
     10  C10       49.6700   51.3040   33.6750 C.2     1  KXB1        0.1811
     11  C11       47.5140   52.0690   33.5880 C.2     1  KXB1        0.0924
     12  C12       51.0550   51.0200   33.2140 C.2     1  KXB1        0.2788
     13  C13       50.7740   50.1510   35.4430 C.3     1  KXB1        0.1230
     14  C14       46.4840   52.7710   32.7570 C.3     1  KXB1        0.0619
     15  C15       55.2990   51.9390   35.8610 C.3     1  KXB1        0.1742
     16  C16       45.8890   51.7420   35.5030 C.3     1  KXB1        0.1203
     17  C17       53.0290   49.8000   34.1790 C.3     1  KXB1        0.1261
     18  C18       53.8620   50.0310   35.5200 C.3     1  KXB1        0.1637
     19  N19       48.7200   51.9360   32.9470 N.2     1  KXB1       -0.4058
     20  N20       51.6560   50.3210   34.2530 N.am    1  KXB1       -0.2672
     21  N21       45.9580   52.7170   36.5580 N.3     1  KXB1       -0.1306
     22  O22       51.5850   51.2810   32.1410 O.2     1  KXB1       -0.2671
     23  O23       53.9400   51.4400   35.7520 O.3     1  KXB1       -0.3493
     24 CL1        47.6770   48.8860   41.1160 Cl      1  KXB1       -0.0822
     25 CL2        49.3490   52.6190   37.7680 Cl      1  KXB1       -0.0822
@<TRIPOS>BOND
     1    22    12    2
     2    14    11    1
     3    19    11    2
     4    19    10    2
     5    12    10    1
     6    12    20   am
     7    11     7    1
     8    10     6    1
     9    17    20    1
    10    17    18    1
    11    20    13    1
    12     7    16    1
    13     7     5    1
    14     6    13    1
    15     6     5    2
    16    16    21    1
    17    18    23    1
    18     5     4    1
    19    23    15    1
    20     4     1   ar
    21     4     9   ar
    22     1     2   ar
    23    25     9    1
    24     9     3   ar
    25     2     8   ar
    26     3     8   ar
    27     8    24    1
