@<TRIPOS>MOLECULE
3swz_TOK_A_1.pdb
 29 34 0 0 0
SMALL
GASTEIGER

@<TRIPOS>ATOM
      1  C1        16.3930   -0.7610   35.4900 C.3   601  TOK601      0.0026
      2  C2        16.0930   -2.2270   35.2660 C.3   601  TOK601      0.0329
      3  C3        14.8400   -2.4630   34.4220 C.3   601  TOK601      0.1520
      4  O3        14.6920   -3.8790   34.2180 O.3   601  TOK601     -0.2232
      5  C4        14.9130   -1.7050   33.0960 C.3   601  TOK601      0.0329
      6  C5        15.1340   -0.2480   33.4320 C.3   601  TOK601      0.0025
      7  C6        14.2600    0.6920   33.0190 C.3   601  TOK601      0.0001
      8  C7        14.6510    2.1490   32.8730 C.3   601  TOK601      0.0000
      9  C8        15.9190    2.5500   33.6510 C.3   601  TOK601      0.0001
     10  C9        16.2030    1.5700   34.7790 C.3   601  TOK601      0.0000
     11  C10       16.3470    0.1360   34.2500 C.3   601  TOK601      0.0002
     12  C11       17.3640    1.9800   35.7260 C.3   601  TOK601      0.0001
     13  C12       17.5330    3.4760   36.0700 C.3   601  TOK601      0.0016
     14  C13       17.1600    4.4080   34.9250 C.3   601  TOK601      0.0167
     15  C14       15.8310    3.9170   34.3450 C.3   601  TOK601      0.0016
     16  C15       15.1950    5.1020   33.6250 C.3   601  TOK601      0.0018
     17  C16       15.8010    6.2160   34.4540 C.3   601  TOK601      0.0198
     18  C17       16.7530    5.8060   35.3060 C.3   601  TOK601      0.0745
     19  C18       18.2790    4.5720   33.8850 C.3   601  TOK601      0.0016
     20  C19       17.6060    0.0230   33.3580 C.3   601  TOK601      0.0000
     21  N48       17.2190    6.5860   36.3680 N.pl3 601  TOK601     -0.2880
     22  C49       18.4700    6.6170   36.8970 C.2   601  TOK601      0.0627
     23  C50       18.3780    7.5430   37.9440 C.2   601  TOK601      0.0907
     24  N51       17.1130    8.0070   37.9740 N.2   601  TOK601     -0.2469
     25  C52       16.3940    7.4110   37.0010 C.3   601  TOK601      0.2199
     26  C53       19.7020    5.9980   36.6400 C.2   601  TOK601     -0.0054
     27  C54       20.8120    6.3070   37.4410 C.3   601  TOK601      0.0534
     28  C55       20.7190    7.2420   38.4720 C.2   601  TOK601     -0.0198
     29  C56       19.4940    7.8530   38.7220 C.2   601  TOK601      0.0157
@<TRIPOS>BOND
     1     8     7    1
     2     8     9    1
     3     7     6    1
     4     5     6    1
     5     5     3    1
     6    20    11    1
     7     6    11    1
     8    16    15    1
     9    16    17    1
    10     9    15    1
    11     9    10    1
    12    19    14    1
    13     4     3    1
    14    11    10    1
    15    11     1    1
    16    15    14    1
    17     3     2    1
    18    17    18    1
    19    10    12    1
    20    14    18    1
    21    14    13    1
    22     2     1    1
    23    18    21    1
    24    12    13    1
    25    21    22    1
    26    21    25    1
    27    26    22    2
    28    26    27    1
    29    22    23    1
    30    25    24    1
    31    27    28    1
    32    23    24    2
    33    23    29    1
    34    28    29    2
