@<TRIPOS>MOLECULE
3swz_HEM_A_1.pdb
 43 50 0 0 0
SMALL
GASTEIGER

@<TRIPOS>ATOM
      1  CHA       17.1330   11.1270   35.9400 C.2   600  HEM600      0.0000
      2  CHB       19.2220   11.0030   40.2620 C.2   600  HEM600      0.0000
      3  CHC       15.6910    8.2710   41.8420 C.2   600  HEM600      0.0000
      4  CHD       13.2120    8.9350   37.7610 C.2   600  HEM600      0.0000
      5  C1A       18.0410   11.2790   36.9550 C.2   600  HEM600      0.0000
      6  C2A       19.3420   11.8690   36.8190 C.2   600  HEM600      0.0000
      7  C3A       19.9140   11.8410   38.0390 C.2   600  HEM600      0.0000
      8  C4A       18.9930   11.2340   38.9320 C.2   600  HEM600      0.0000
      9  CMA       21.2750   12.3390   38.5190 C.3   600  HEM600      0.0000
     10  CAA       19.8810   12.3540   35.4300 C.3   600  HEM600      0.0000
     11  CBA       20.2730   13.8050   35.3050 C.3   600  HEM600      0.0000
     12  CGA       20.8240   14.0830   33.9310 C.2   600  HEM600      0.0000
     13  O1A       21.3260   15.2210   33.7960 O.co2 600  HEM600      0.0000
     14  O2A       20.8180   13.2390   32.9880 O.co2 600  HEM600      0.0000
     15  C1B       18.4910   10.1690   41.0450 C.ar  600  HEM600      0.0000
     16  C2B       18.8480    9.7260   42.3720 C.ar  600  HEM600      0.0000
     17  C3B       17.8400    8.9420   42.8210 C.ar  600  HEM600      0.0000
     18  C4B       16.8690    8.8950   41.7640 C.ar  600  HEM600      0.0000
     19  CMB       20.1660   10.1570   43.0370 C.3   600  HEM600      0.0000
     20  CAB       17.5610    8.1740   44.1480 C.2   600  HEM600      0.0000
     21  CBB       18.4110    7.9180   45.1090 C.2   600  HEM600      0.0000
     22  C1C       14.6840    8.3220   40.9260 C.2   600  HEM600      0.0000
     23  C2C       13.3560    7.7930   41.1330 C.2   600  HEM600      0.0000
     24  C3C       12.6410    7.9280   40.0030 C.2   600  HEM600      0.0000
     25  C4C       13.5360    8.5700   39.0420 C.2   600  HEM600      0.0000
     26  CMC       12.8660    7.1550   42.4340 C.3   600  HEM600      0.0000
     27  CAC       11.1640    7.4520   39.8150 C.2   600  HEM600      0.0000
     28  CBC       10.1110    8.2710   39.6790 C.2   600  HEM600      0.0000
     29  C1D       14.0350    9.5420   36.8510 C.ar  600  HEM600      0.0000
     30  C2D       13.7640    9.7570   35.4520 C.ar  600  HEM600      0.0000
     31  C3D       15.0010   10.4470   34.8710 C.ar  600  HEM600      0.0000
     32  C4D       15.8790   10.5730   36.0030 C.ar  600  HEM600      0.0000
     33  CMD       12.5050    9.3730   34.6560 C.3   600  HEM600      0.0000
     34  CAD       15.2280   10.9020   33.4000 C.3   600  HEM600      0.0000
     35  CBD       14.9250   12.3930   33.2080 C.3   600  HEM600      0.0000
     36  CGD       14.9720   12.8540   31.7660 C.2   600  HEM600      0.0000
     37  O1D       14.2020   13.7720   31.3610 O.co2 600  HEM600      0.0000
     38  O2D       15.7850   12.3000   30.9930 O.co2 600  HEM600      0.0000
     39  NA        17.8600   10.8970   38.2310 N.2   600  HEM600      0.0000
     40  NB        17.2830    9.6350   40.7090 N.ar  600  HEM600      0.0000
     41  NC        14.7660    8.7920   39.6420 N.2   600  HEM600      0.0000
     42  ND        15.2770   10.0380   37.1310 N.ar  600  HEM600      0.0000
     43 FE         16.2810    9.8130   38.9770 Fe    600  HEM600      0.0000
@<TRIPOS>BOND
     1    38    36   ar
     2    37    36   ar
     3    36    35    1
     4    14    12   ar
     5    35    34    1
     6    34    31    1
     7    13    12   ar
     8    12    11    1
     9    33    30    1
    10    31    30   ar
    11    31    32   ar
    12    11    10    1
    13    10     6    1
    14    30    29   ar
    15     1    32    2
    16     1     5    1
    17    32    42   ar
    18     6     5    1
    19     6     7    2
    20    29    42   ar
    21    29     4    2
    22     5    39    2
    23    42    43    1
    24     4    25    1
    25     7     9    1
    26     7     8    1
    27    39     8    1
    28    39    43    1
    29     8     2    2
    30    43    41    1
    31    43    40    1
    32    25    41    2
    33    25    24    1
    34    41    22    1
    35    28    27    2
    36    27    24    1
    37    24    23    2
    38     2    15    1
    39    40    15   ar
    40    40    18   ar
    41    22    23    1
    42    22     3    2
    43    15    16   ar
    44    23    26    1
    45    18     3    1
    46    18    17   ar
    47    16    17   ar
    48    16    19    1
    49    17    20    1
    50    20    21    2
