@<TRIPOS>MOLECULE
3sx0_SX0_A_1.pdb
 27 29 0 0 0
SMALL
GASTEIGER

@<TRIPOS>ATOM
      1  C         25.3500   63.2440   -2.7190 C.2   421  SX0421      0.3819
      2  N         23.3590   61.9100   -3.2290 N.3   421  SX0421     -0.1208
      3  O         24.5680   63.9170   -2.0330 O.co2 421  SX0421     -0.2441
      4 BR         15.3910   64.4800  -10.8750 Br    421  SX0421     -0.0488
      5  N1        16.0280   59.6590  -10.2380 N.2   421  SX0421     -0.0027
      6  C2        17.2710   59.3290   -9.8880 C.3   421  SX0421      0.5248
      7  N3        18.2470   60.2190   -9.7440 N.2   421  SX0421     -0.0106
      8  C4        17.9940   61.5140   -9.9400 C.2   421  SX0421      0.3221
      9  C5        16.7190   61.9050  -10.3040 C.3   421  SX0421      0.2508
     10  C6        15.7120   60.9380  -10.4630 C.2   421  SX0421      0.4070
     11  N6        14.4610   61.2350  -10.8160 N.pl3 421  SX0421      0.2117
     12  C7        16.8150   63.2770  -10.4250 C.2   421  SX0421      0.0760
     13  C8        18.0660   63.6780  -10.1520 C.2   421  SX0421      0.1810
     14  N9        18.7780   62.5900   -9.8640 N.pl3 421  SX0421     -0.1463
     15  CA        24.7190   62.2730   -3.7250 C.3   421  SX0421      0.1952
     16  CB        24.6380   62.9410   -5.1170 C.3   421  SX0421      0.0422
     17  SD        23.6470   65.0270   -6.7590 S.3   421  SX0421     -0.1375
     18  CG        23.7880   64.2110   -5.1050 C.3   421  SX0421      0.0597
     19  C1'       20.2210   62.5460   -9.4720 C.3   421  SX0421      0.3212
     20  C2'       21.1210   63.3770  -10.3880 C.3   421  SX0421      0.2572
     21  O2'       21.4010   62.5260  -11.4500 O.3   421  SX0421     -0.2130
     22  C3'       22.3850   63.5560   -9.5050 C.3   421  SX0421      0.2168
     23  O3'       23.2910   62.4590   -9.7550 O.3   421  SX0421     -0.2175
     24  C4'       21.8150   63.4200   -8.0770 C.3   421  SX0421      0.1630
     25  O4'       20.3690   63.2320   -8.2230 O.3   421  SX0421     -0.3150
     26  C5'       21.9180   64.6680   -7.2330 C.3   421  SX0421      0.0899
     27  OXT       26.5930   63.3110   -2.6710 O.co2 421  SX0421     -0.2441
@<TRIPOS>BOND
     1    21    20    1
     2     4    12    1
     3    11    10    1
     4    10     9    1
     5    10     5    2
     6    12     9    1
     7    12    13    2
     8    20    22    1
     9    20    19    1
    10     9     8    1
    11     5     6    1
    12    13    14    1
    13     8    14    1
    14     8     7    2
    15     6     7    1
    16    14    19    1
    17    23    22    1
    18    22    24    1
    19    19    25    1
    20    25    24    1
    21    24    26    1
    22    26    17    1
    23    17    18    1
    24    16    18    1
    25    16    15    1
    26    15     2    1
    27    15     1    1
    28     1    27   ar
    29     1     3   ar
