@<TRIPOS>MOLECULE
3sx2_NAD_A_1.pdb
 44 48 0 0 0
SMALL
GASTEIGER

@<TRIPOS>ATOM
      1  PA       -30.5630   87.5720  -23.9760 P.3   300  NAD300      0.2189
      2  O1A      -31.7900   86.8070  -23.9970 O.2   300  NAD300     -0.5170
      3  O2A      -30.6860   89.1100  -23.8140 O.3   300  NAD300     -0.4371
      4  O5B      -29.6390   87.3250  -25.2750 O.3   300  NAD300     -0.3112
      5  C5B      -29.5650   86.0440  -25.8930 C.3   300  NAD300      0.1813
      6  C4B      -29.7360   86.2800  -27.4070 C.3   300  NAD300      0.1821
      7  O4B      -29.6430   85.0470  -28.1120 O.3   300  NAD300     -0.3135
      8  C3B      -30.9400   87.0450  -27.9030 C.3   300  NAD300      0.2184
      9  O3B      -30.7270   88.1930  -28.6730 O.3   300  NAD300     -0.2174
     10  C2B      -31.7730   86.0040  -28.5610 C.3   300  NAD300      0.2570
     11  O2B      -32.7270   86.3270  -29.5350 O.3   300  NAD300     -0.2130
     12  C1B      -30.7070   85.0620  -29.1290 C.3   300  NAD300      0.3186
     13  N9A      -31.0050   83.6960  -29.4210 N.pl3 300  NAD300     -0.1439
     14  C8A      -31.7320   82.8080  -28.6110 C.3   300  NAD300      0.3377
     15  N7A      -31.9050   81.6040  -29.2360 N.2   300  NAD300     -0.2095
     16  C5A      -31.2940   81.7370  -30.4790 C.2   300  NAD300      0.2526
     17  C6A      -31.0980   80.8390  -31.5270 C.2   300  NAD300      0.4393
     18  N6A      -31.7000   79.5720  -31.5520 N.pl3 300  NAD300      0.2180
     19  N1A      -30.3310   81.2030  -32.5740 N.2   300  NAD300      0.0021
     20  C2A      -29.7940   82.5080  -32.6170 C.3   300  NAD300      0.5254
     21  N3A      -29.9220   83.4270  -31.6270 N.2   300  NAD300     -0.0055
     22  C4A      -30.6550   82.9890  -30.5400 C.2   300  NAD300      0.3518
     23  O3       -29.6930   86.9550  -22.7490 O.3   300  NAD300     -0.2703
     24  PN       -28.1040   87.0590  -22.4550 P.3   300  NAD300      0.2189
     25  O1N      -27.9960   87.1890  -20.9870 O.3   300  NAD300     -0.4371
     26  O2N      -27.4300   88.1860  -23.2660 O.2   300  NAD300     -0.5170
     27  O5D      -27.6300   85.5790  -22.9730 O.3   300  NAD300     -0.3112
     28  C5D      -26.3290   85.4430  -23.5260 C.3   300  NAD300      0.1813
     29  C4D      -25.7670   84.1240  -23.0370 C.3   300  NAD300      0.1799
     30  O4D      -25.4280   84.2950  -21.6200 O.3   300  NAD300     -0.3327
     31  C3D      -26.6280   82.8600  -23.0830 C.3   300  NAD300      0.2158
     32  O3D      -25.9110   81.7340  -23.5010 O.3   300  NAD300     -0.2175
     33  C2D      -27.1090   82.6900  -21.7110 C.3   300  NAD300      0.2309
     34  O2D      -27.5150   81.3750  -21.3770 O.3   300  NAD300     -0.2158
     35  C1D      -25.8930   83.1240  -20.9080 C.3   300  NAD300      0.2263
     36  N1N      -25.9290   83.4600  -19.4820 N.pl3 300  NAD300     -0.2787
     37  C2N      -26.8670   84.4740  -19.0870 C.3   300  NAD300      0.1244
     38  C3N      -26.8720   84.8490  -17.7250 C.2   300  NAD300      0.0544
     39  C7N      -27.7950   85.9320  -17.2480 C.2   300  NAD300      0.2818
     40  O7N      -27.9450   86.1220  -16.0700 O.2   300  NAD300     -0.2670
     41  N7N      -28.3880   86.7400  -18.2310 N.am  300  NAD300     -0.0839
     42  C4N      -26.0370   84.2490  -16.7220 C.2   300  NAD300      0.0033
     43  C5N      -25.0890   83.2980  -17.1930 C.2   300  NAD300      0.0157
     44  C6N      -25.0830   82.9010  -18.5610 C.2   300  NAD300      0.0633
@<TRIPOS>BOND
     1    20    19    1
     2    20    21    1
     3    19    17    2
     4    21    22    2
     5    18    17    1
     6    17    16    1
     7    22    16    1
     8    22    13    1
     9    16    15    2
    10    11    10    1
    11    13    12    1
    12    13    14    1
    13    15    14    1
    14    12    10    1
    15    12     7    1
    16     9     8    1
    17    10     8    1
    18     7     6    1
    19     8     6    1
    20     6     5    1
    21     5     4    1
    22     4     1    1
    23     2     1    2
    24     1     3    1
    25     1    23    1
    26    28    29    1
    27    28    27    1
    28    32    31    1
    29    26    24    2
    30    31    29    1
    31    31    33    1
    32    29    30    1
    33    27    24    1
    34    23    24    1
    35    24    25    1
    36    33    34    1
    37    33    35    1
    38    30    35    1
    39    35    36    1
    40    36    37    1
    41    36    44    1
    42    37    38    1
    43    44    43    2
    44    41    39   am
    45    38    39    1
    46    38    42    2
    47    39    40    2
    48    43    42    1
