@<TRIPOS>MOLECULE
3sx3_UDP_A_1.pdb
 25 26 0 0 0
SMALL
GASTEIGER

@<TRIPOS>ATOM
      1  N1        -9.8240  -23.2410   -7.6350 N.am    1  UDP1       -0.1766
      2  C2        -8.6580  -23.9300   -7.8970 C.1     1  UDP1        0.2845
      3  N3        -8.1350  -23.9020   -9.2140 N.2     1  UDP1       -0.2452
      4  C4        -8.8000  -23.2140  -10.2130 C.1     1  UDP1        0.2182
      5  C5        -9.9590  -22.4760   -9.9530 C.2     1  UDP1        0.1242
      6  C6       -10.5140  -22.4990   -8.6420 C.2     1  UDP1        0.0929
      7  O2        -8.0650  -24.5500   -7.0530 O.2     1  UDP1       -0.1918
      8  O4        -8.2230  -23.2480  -11.3220 O.2     1  UDP1       -0.2085
      9  C1'      -10.3730  -23.3550   -6.2600 C.3     1  UDP1        0.2401
     10  C2'       -9.4600  -22.6300   -5.2920 C.3     1  UDP1        0.2319
     11  O2'       -9.6790  -23.1900   -4.0020 O.3     1  UDP1       -0.2157
     12  C3'      -10.1630  -21.3030   -5.3190 C.3     1  UDP1        0.2158
     13  C4'      -11.6270  -21.6550   -5.2600 C.3     1  UDP1        0.1799
     14  O4'      -11.6970  -22.8030   -6.2090 O.3     1  UDP1       -0.3320
     15  O3'       -9.8840  -20.5180   -4.1210 O.3     1  UDP1       -0.2175
     16  C5'      -12.6330  -20.6440   -5.8490 C.3     1  UDP1        0.1813
     17  O5'      -12.2300  -20.0220   -7.0500 O.3     1  UDP1       -0.3111
     18  PA       -11.6440  -18.5630   -7.0650 P.3     1  UDP1        0.2231
     19  O1A      -10.8340  -18.2120   -5.7930 O.3     1  UDP1       -0.4370
     20  O2A      -10.9790  -18.4430   -8.3760 O.2     1  UDP1       -0.5169
     21  O3A      -12.9840  -17.6730   -7.0790 O.3     1  UDP1       -0.2261
     22  PB       -13.0450  -16.0860   -6.6950 P.3     1  UDP1        0.5373
     23  O1B      -11.9570  -15.3820   -7.5700 O.2     1  UDP1       -0.2221
     24  O2B      -14.4560  -15.6680   -7.0530 O.3     1  UDP1       -0.1143
     25  O3B      -12.7130  -15.9530   -5.2370 O.3     1  UDP1       -0.1143
@<TRIPOS>BOND
     1     8     4    2
     2     4     5    1
     3     4     3    2
     4     5     6    2
     5     3     2    2
     6     6     1    1
     7    20    18    2
     8     2     1   am
     9     2     7    2
    10     1     9    1
    11    23    22    2
    12    21    18    1
    13    21    22    1
    14    18    17    1
    15    18    19    1
    16    24    22    1
    17    17    16    1
    18    22    25    1
    19     9    14    1
    20     9    10    1
    21    14    13    1
    22    16    13    1
    23    12    10    1
    24    12    13    1
    25    12    15    1
    26    10    11    1
