@<TRIPOS>MOLECULE
3sx3_GAL_A_1.pdb
 12 12 0 0 0
SMALL
GASTEIGER

@<TRIPOS>ATOM
      1  C1       -17.4630  -11.1400   -6.4990 C.3     2  GAL2        0.3024
      2  C2       -16.6640  -12.3840   -6.1370 C.3     2  GAL2        0.2434
      3  C3       -17.3260  -13.6170   -6.7220 C.3     2  GAL2        0.2199
      4  C4       -18.8320  -13.6460   -6.3410 C.3     2  GAL2        0.2144
      5  C5       -19.5000  -12.3310   -6.7270 C.3     2  GAL2        0.1836
      6  C6       -20.9860  -12.2550   -6.2810 C.3     2  GAL2        0.2142
      7  O1       -16.9450  -10.0670   -5.7510 O.3     2  GAL2       -0.1869
      8  O2       -15.3450  -12.3740   -6.7080 O.3     2  GAL2       -0.2148
      9  O3       -16.6510  -14.7990   -6.2510 O.3     2  GAL2       -0.2174
     10  O4       -18.9280  -13.7660   -4.9390 O.3     2  GAL2       -0.2176
     11  O5       -18.8570  -11.2150   -6.1180 O.3     2  GAL2       -0.3236
     12  O6       -21.6660  -11.1430   -6.8160 O.3     2  GAL2       -0.2176
@<TRIPOS>BOND
     1    12     6    1
     2     5     4    1
     3     5     6    1
     4     5    11    1
     5     3     4    1
     6     3     9    1
     7     3     2    1
     8     8     2    1
     9     1     2    1
    10     1    11    1
    11     1     7    1
    12     4    10    1
