@<TRIPOS>MOLECULE
3sx4_KXA_A_1.pdb
 29 32 0 0 0
SMALL
GASTEIGER

@<TRIPOS>ATOM
      1  C01       54.7610   49.1450   35.2790 C.ar    1  KXA1        0.0015
      2  C02       55.0240   47.9750   34.5730 C.ar    1  KXA1        0.0032
      3  C03       47.1290   48.7440   36.9820 C.ar    1  KXA1        0.0014
      4  C04       53.5090   49.7260   35.2480 C.ar    1  KXA1        0.0180
      5  C05       54.0350   47.3790   33.8310 C.ar    1  KXA1        0.0382
      6  C06       46.9500   48.2300   38.2580 C.ar    1  KXA1        0.0114
      7  C07       47.9920   50.2010   39.2270 C.ar    1  KXA1        0.0228
      8  C08       47.7200   49.9830   36.8440 C.ar    1  KXA1        0.0069
      9  C09       47.9430   50.5060   35.5240 C.2     1  KXA1       -0.0136
     10  C10       49.1610   50.2820   34.9590 C.2     1  KXA1        0.0286
     11  C11       47.0420   51.2610   34.7870 C.3     1  KXA1        0.0892
     12  C12       52.5140   49.1270   34.4910 C.ar    1  KXA1        0.0886
     13  C13       52.7750   47.9610   33.7910 C.ar    1  KXA1        0.1523
     14  C14       47.3900   48.9790   39.3410 C.ar    1  KXA1        0.0585
     15  C15       48.1630   50.6900   37.9540 C.ar    1  KXA1        0.0582
     16  C16       49.4460   50.7790   33.7050 C.2     1  KXA1        0.1815
     17  C17       47.4170   51.7190   33.5240 C.2     1  KXA1        0.0924
     18  C18       50.8260   50.3900   33.3310 C.2     1  KXA1        0.2825
     19  C19       50.3060   49.5460   35.5020 C.3     1  KXA1        0.1276
     20  C20       46.4940   52.5140   32.6870 C.3     1  KXA1        0.0619
     21  C21       52.1090   46.2940   32.3360 C.3     1  KXA1        0.2525
     22  C22       45.6750   51.5540   35.3160 C.3     1  KXA1        0.1203
     23  N23       48.6370   51.4920   32.9360 N.2     1  KXA1       -0.4058
     24  N24       51.2670   49.6730   34.4430 N.am    1  KXA1       -0.2460
     25  N25       45.7920   52.1690   36.5920 N.3     1  KXA1       -0.1306
     26  O26       51.4420   50.6270   32.3210 O.2     1  KXA1       -0.2668
     27  O27       51.7480   47.4310   33.0780 O.3     1  KXA1       -0.4702
     28 CL1        47.1790   48.3600   40.8800 Cl      1  KXA1       -0.0822
     29 CL2        48.9070   52.2080   37.7520 Cl      1  KXA1       -0.0822
@<TRIPOS>BOND
     1    26    18    2
     2    21    27    1
     3    20    17    1
     4    23    17    2
     5    23    16    2
     6    27    13    1
     7    18    16    1
     8    18    24   am
     9    17    11    1
    10    16    10    1
    11    13     5   ar
    12    13    12   ar
    13     5     2   ar
    14    24    12    1
    15    24    19    1
    16    12     4   ar
    17     2     1   ar
    18    11    22    1
    19    11     9    1
    20    10    19    1
    21    10     9    2
    22     4     1   ar
    23    22    25    1
    24     9     8    1
    25     8     3   ar
    26     8    15   ar
    27     3     6   ar
    28    29    15    1
    29    15     7   ar
    30     6    14   ar
    31     7    14   ar
    32    14    28    1
