@<TRIPOS>MOLECULE
3sx5_GAL_A_1.pdb
 12 12 0 0 0
SMALL
GASTEIGER

@<TRIPOS>ATOM
      1  C1       -17.7790  -11.2670   -6.6680 C.3     2  GAL2        0.3024
      2  C2       -16.9650  -12.5130   -6.3230 C.3     2  GAL2        0.2434
      3  C3       -17.5970  -13.7100   -6.9570 C.3     2  GAL2        0.2199
      4  C4       -19.0760  -13.7570   -6.4980 C.3     2  GAL2        0.2144
      5  C5       -19.7780  -12.4690   -6.8260 C.3     2  GAL2        0.1836
      6  C6       -21.2490  -12.4900   -6.3170 C.3     2  GAL2        0.2142
      7  O1       -17.2660  -10.1330   -6.0220 O.3     2  GAL2       -0.1869
      8  O2       -15.7060  -12.4150   -6.9310 O.3     2  GAL2       -0.2148
      9  O3       -16.9160  -14.8690   -6.5930 O.3     2  GAL2       -0.2174
     10  O4       -19.1720  -13.9540   -5.0970 O.3     2  GAL2       -0.2176
     11  O5       -19.1480  -11.3650   -6.2410 O.3     2  GAL2       -0.3236
     12  O6       -21.9630  -11.4130   -6.8520 O.3     2  GAL2       -0.2176
@<TRIPOS>BOND
     1     3     9    1
     2     3     4    1
     3     3     2    1
     4     8     2    1
     5    12     6    1
     6     5     4    1
     7     5     6    1
     8     5    11    1
     9     1     2    1
    10     1    11    1
    11     1     7    1
    12     4    10    1
