@<TRIPOS>MOLECULE
3sx5_UDP_A_1.pdb
 25 26 0 0 0
SMALL
GASTEIGER

@<TRIPOS>ATOM
      1  N1        -9.9080  -23.3930   -7.7180 N.am    1  UDP1       -0.1766
      2  C2        -8.7370  -24.0920   -8.0240 C.1     1  UDP1        0.2845
      3  N3        -8.2020  -24.0500   -9.3030 N.2     1  UDP1       -0.2452
      4  C4        -8.8350  -23.3550  -10.3180 C.1     1  UDP1        0.2182
      5  C5       -10.0170  -22.6700  -10.0500 C.2     1  UDP1        0.1242
      6  C6       -10.5320  -22.6460   -8.7550 C.2     1  UDP1        0.0929
      7  O2        -8.2130  -24.6900   -7.1210 O.2     1  UDP1       -0.1918
      8  O4        -8.3330  -23.3130  -11.4470 O.2     1  UDP1       -0.2085
      9  C1'      -10.3490  -23.5150   -6.3450 C.3     1  UDP1        0.2401
     10  C2'       -9.5490  -22.6830   -5.3640 C.3     1  UDP1        0.2319
     11  O2'       -9.6670  -23.2620   -4.0680 O.3     1  UDP1       -0.2157
     12  C3'      -10.3050  -21.3240   -5.3780 C.3     1  UDP1        0.2158
     13  C4'      -11.7310  -21.8320   -5.4130 C.3     1  UDP1        0.1799
     14  O4'      -11.7500  -22.9270   -6.3560 O.3     1  UDP1       -0.3320
     15  O3'       -9.9670  -20.5850   -4.2020 O.3     1  UDP1       -0.2175
     16  C5'      -12.7570  -20.7270   -5.8990 C.3     1  UDP1        0.1813
     17  O5'      -12.2770  -20.1970   -7.2000 O.3     1  UDP1       -0.3111
     18  PA       -11.7370  -18.7410   -7.1850 P.3     1  UDP1        0.2231
     19  O1A      -10.9000  -18.4030   -5.9650 O.3     1  UDP1       -0.4370
     20  O2A      -11.1190  -18.6000   -8.5620 O.2     1  UDP1       -0.5169
     21  O3A      -13.1070  -17.8860   -7.1940 O.3     1  UDP1       -0.2261
     22  PB       -13.1730  -16.3350   -6.7890 P.3     1  UDP1        0.5373
     23  O1B      -12.0750  -15.5310   -7.6570 O.2     1  UDP1       -0.2221
     24  O2B      -14.6200  -15.8880   -7.2750 O.3     1  UDP1       -0.1143
     25  O3B      -12.8080  -16.1100   -5.3550 O.3     1  UDP1       -0.1143
@<TRIPOS>BOND
     1     8     4    2
     2     4     5    1
     3     4     3    2
     4     5     6    2
     5     3     2    2
     6     6     1    1
     7    20    18    2
     8     2     1   am
     9     2     7    2
    10     1     9    1
    11    23    22    2
    12    24    22    1
    13    17    18    1
    14    17    16    1
    15    21    18    1
    16    21    22    1
    17    18    19    1
    18    22    25    1
    19    14     9    1
    20    14    13    1
    21     9    10    1
    22    16    13    1
    23    13    12    1
    24    12    10    1
    25    12    15    1
    26    10    11    1
