@<TRIPOS>MOLECULE
3sx6_DCQ_A_1.pdb
 23 23 0 0 0
SMALL
GASTEIGER

@<TRIPOS>ATOM
      1  O2        39.7620  -11.5370    5.8600 O.3   502  DCQ502     -0.2836
      2  C2        40.9960  -11.3130    6.4300 C.ar  502  DCQ502      0.2282
      3  C3        41.5310  -12.2630    7.2840 C.ar  502  DCQ502      0.2140
      4  O3        40.8210  -13.4190    7.5400 O.3   502  DCQ502     -0.4652
      5  C3M       39.9530  -13.4720    8.6110 C.3   502  DCQ502      0.2528
      6  C4        42.7770  -12.0460    7.8620 C.ar  502  DCQ502      0.2140
      7  O4        43.2950  -12.9860    8.7210 O.3   502  DCQ502     -0.4652
      8  C4M       43.4950  -14.2680    8.2640 C.3   502  DCQ502      0.2528
      9  C5        43.4880  -10.8780    7.5860 C.ar  502  DCQ502      0.2285
     10  O5        44.7250  -10.6790    8.1570 O.3   502  DCQ502     -0.2835
     11  C1        41.7000  -10.1460    6.1510 C.ar  502  DCQ502      0.0198
     12  C1M       41.1030   -9.1380    5.2320 C.3   502  DCQ502      0.0343
     13  C6        42.9460   -9.9240    6.7290 C.ar  502  DCQ502      0.0235
     14  C7        43.6910   -8.6540    6.4270 C.3   502  DCQ502      0.0551
     15  C8        43.2450   -7.3920    7.1100 C.2   502  DCQ502     -0.0259
     16  C9        42.7990   -6.2480    6.2440 C.2   502  DCQ502     -0.0300
     17  C10       42.3760   -4.9700    6.9100 C.3   502  DCQ502      0.0304
     18  C11       43.3660   -3.8400    6.9850 C.3   502  DCQ502      0.0303
     19  C12       44.4210   -3.7580    5.9170 C.2   502  DCQ502     -0.0304
     20  C13       45.5260   -2.7540    6.0670 C.2   502  DCQ502     -0.0307
     21  C14       46.7670   -2.9750    5.2590 C.3   502  DCQ502      0.0257
     22  C15       47.0070   -2.0850    4.0840 C.3   502  DCQ502      0.0047
     23  C16       45.8240   -1.4400    3.4380 C.3   502  DCQ502      0.0004
@<TRIPOS>BOND
     1    23    22    1
     2    22    21    1
     3    12    11    1
     4    21    20    1
     5     1     2    1
     6    19    20    2
     7    19    18    1
     8    11     2   ar
     9    11    13   ar
    10    16    17    1
    11    16    15    2
    12    14    13    1
    13    14    15    1
    14     2     3   ar
    15    13     9   ar
    16    17    18    1
    17     3     4    1
    18     3     6   ar
    19     4     5    1
    20     9     6   ar
    21     9    10    1
    22     6     7    1
    23     8     7    1
