@<TRIPOS>MOLECULE
3sx7_GAL_A_1.pdb
 12 12 0 0 0
SMALL
GASTEIGER

@<TRIPOS>ATOM
      1  C1        17.6160  -11.1220    6.3530 C.3     2  GAL2        0.3024
      2  C2        16.8210  -12.3120    6.0120 C.3     2  GAL2        0.2434
      3  C3        17.3480  -13.5310    6.8030 C.3     2  GAL2        0.2199
      4  C4        18.9000  -13.6740    6.4810 C.3     2  GAL2        0.2144
      5  C5        19.5610  -12.3310    6.7300 C.3     2  GAL2        0.1836
      6  C6        21.1080  -12.3110    6.2870 C.3     2  GAL2        0.2142
      7  O1        17.3230   -9.7870    5.7770 O.3     2  GAL2       -0.1869
      8  O2        15.5590  -11.8680    6.5890 O.3     2  GAL2       -0.2148
      9  O3        16.6440  -14.7010    6.4220 O.3     2  GAL2       -0.2174
     10  O4        19.0260  -13.8140    5.0470 O.3     2  GAL2       -0.2176
     11  O5        19.0640  -11.2210    6.0150 O.3     2  GAL2       -0.3236
     12  O6        21.8090  -11.2250    6.8190 O.3     2  GAL2       -0.2176
@<TRIPOS>BOND
     1    10     4    1
     2     7     1    1
     3     2     1    1
     4     2     8    1
     5     2     3    1
     6    11     1    1
     7    11     5    1
     8     6     5    1
     9     6    12    1
    10     9     3    1
    11     4     5    1
    12     4     3    1
