@<TRIPOS>MOLECULE
3sx7_UDP_A_1.pdb
 25 26 0 0 0
SMALL
GASTEIGER

@<TRIPOS>ATOM
      1  N1         9.9040  -23.1990    7.5830 N.am    1  UDP1       -0.1766
      2  C2         8.7280  -23.8490    7.8420 C.1     1  UDP1        0.2845
      3  N3         8.2590  -23.8490    9.1290 N.2     1  UDP1       -0.2452
      4  C4         8.9230  -23.2100   10.1750 C.1     1  UDP1        0.2182
      5  C5        10.1280  -22.5420    9.9270 C.2     1  UDP1        0.1242
      6  C6        10.6390  -22.5740    8.6030 C.2     1  UDP1        0.0929
      7  O2         8.1050  -24.4350    6.9850 O.2     1  UDP1       -0.1918
      8  O4         8.3900  -23.2550   11.3150 O.2     1  UDP1       -0.2085
      9  C1'       10.3980  -23.3850    6.2110 C.3     1  UDP1        0.2401
     10  C2'        9.4660  -22.6040    5.2910 C.3     1  UDP1        0.2319
     11  O2'        9.6940  -23.0590    3.8900 O.3     1  UDP1       -0.2157
     12  C3'       10.1840  -21.3080    5.4550 C.3     1  UDP1        0.2158
     13  C4'       11.6650  -21.6450    5.3010 C.3     1  UDP1        0.1799
     14  O4'       11.7700  -22.8210    6.1180 O.3     1  UDP1       -0.3320
     15  O3'        9.9610  -20.5210    4.1720 O.3     1  UDP1       -0.2175
     16  C5'       12.7730  -20.6570    5.8330 C.3     1  UDP1        0.1813
     17  O5'       12.3410  -20.0700    6.9140 O.3     1  UDP1       -0.3111
     18  PA        11.7220  -18.5710    6.9950 P.3     1  UDP1        0.2231
     19  O1A       10.9540  -18.2730    5.6410 O.2     1  UDP1       -0.5169
     20  O2A       11.0160  -18.4570    8.3260 O.3     1  UDP1       -0.4370
     21  O3A       13.1010  -17.7100    7.0310 O.3     1  UDP1       -0.2261
     22  PB        13.1400  -16.1080    6.7560 P.3     1  UDP1        0.5373
     23  O1B       11.9470  -15.3700    7.5820 O.3     1  UDP1       -0.1143
     24  O2B       14.5060  -15.6200    7.2330 O.3     1  UDP1       -0.1143
     25  O3B       12.7100  -15.9500    5.2490 O.2     1  UDP1       -0.2221
@<TRIPOS>BOND
     1    11    10    1
     2    15    12    1
     3    25    22    2
     4    10    12    1
     5    10     9    1
     6    13    12    1
     7    13    16    1
     8    13    14    1
     9    19    18    2
    10    16    17    1
    11    14     9    1
    12     9     1    1
    13    22    21    1
    14    22    24    1
    15    22    23    1
    16    17    18    1
    17     7     2    2
    18    18    21    1
    19    18    20    1
    20     1     2   am
    21     1     6    1
    22     2     3    2
    23     6     5    2
    24     3     4    2
    25     5     4    1
    26     4     8    2
