@<TRIPOS>MOLECULE
3sx8_GAL_A_1.pdb
 12 12 0 0 0
SMALL
GASTEIGER

@<TRIPOS>ATOM
      1  C1       -17.7760  -11.3020   -6.4360 C.3     2  GAL2        0.3024
      2  C2       -16.9540  -12.5220   -6.1170 C.3     2  GAL2        0.2434
      3  C3       -17.5590  -13.6760   -6.8670 C.3     2  GAL2        0.2199
      4  C4       -19.0610  -13.8110   -6.4720 C.3     2  GAL2        0.2144
      5  C5       -19.7710  -12.5030   -6.7180 C.3     2  GAL2        0.1836
      6  C6       -21.2740  -12.5160   -6.3220 C.3     2  GAL2        0.2142
      7  O1       -17.3590  -10.1260   -5.7850 O.3     2  GAL2       -0.1869
      8  O2       -15.7160  -12.2230   -6.7570 O.3     2  GAL2       -0.2148
      9  O3       -16.9300  -14.8890   -6.5840 O.3     2  GAL2       -0.2174
     10  O4       -19.1310  -14.0570   -5.0510 O.3     2  GAL2       -0.2176
     11  O5       -19.2190  -11.3640   -6.1230 O.3     2  GAL2       -0.3236
     12  O6       -21.9720  -11.3790   -6.7590 O.3     2  GAL2       -0.2176
@<TRIPOS>BOND
     1     3     9    1
     2     3     4    1
     3     3     2    1
     4    12     6    1
     5     8     2    1
     6     5     4    1
     7     5     6    1
     8     5    11    1
     9     4    10    1
    10     1    11    1
    11     1     2    1
    12     1     7    1
