@<TRIPOS>MOLECULE
3sx8_UDP_A_1.pdb
 25 26 0 0 0
SMALL
GASTEIGER

@<TRIPOS>ATOM
      1  N1        -9.9910  -23.2810   -7.6210 N.am    1  UDP1       -0.1766
      2  C2        -8.8300  -23.9410   -7.9480 C.1     1  UDP1        0.2845
      3  N3        -8.3090  -23.9910   -9.2850 N.2     1  UDP1       -0.2452
      4  C4        -9.0070  -23.3530  -10.3650 C.1     1  UDP1        0.2182
      5  C5       -10.1980  -22.6680  -10.0280 C.2     1  UDP1        0.1242
      6  C6       -10.6950  -22.6560   -8.6880 C.2     1  UDP1        0.0929
      7  O2        -8.2570  -24.5070   -7.0550 O.2     1  UDP1       -0.1918
      8  O4        -8.5430  -23.4010  -11.5290 O.2     1  UDP1       -0.2085
      9  C1'      -10.3990  -23.3840   -6.2010 C.3     1  UDP1        0.2401
     10  C2'       -9.5400  -22.4740   -5.3070 C.3     1  UDP1        0.2319
     11  O2'       -9.7750  -22.4910   -3.9240 O.3     1  UDP1       -0.2157
     12  C3'      -10.3670  -21.2610   -5.5370 C.3     1  UDP1        0.2158
     13  C4'      -11.8020  -21.6820   -5.3320 C.3     1  UDP1        0.1799
     14  O4'      -11.8100  -22.8840   -6.1620 O.3     1  UDP1       -0.3320
     15  O3'      -10.0990  -20.4940   -4.2950 O.3     1  UDP1       -0.2175
     16  C5'      -12.9240  -20.7350   -5.8210 C.3     1  UDP1        0.1813
     17  O5'      -12.5230  -20.2220   -7.0190 O.3     1  UDP1       -0.3111
     18  PA       -11.9760  -18.7010   -7.1110 P.3     1  UDP1        0.2231
     19  O1A      -11.2310  -18.4060   -5.7810 O.3     1  UDP1       -0.4370
     20  O2A      -11.2550  -18.5580   -8.3890 O.2     1  UDP1       -0.5169
     21  O3A      -13.2800  -17.8710   -7.1610 O.3     1  UDP1       -0.2261
     22  PB       -13.1670  -16.3420   -6.8790 P.3     1  UDP1        0.5373
     23  O1B      -11.9870  -15.6540   -7.7310 O.2     1  UDP1       -0.2221
     24  O2B      -14.5490  -15.7710   -7.5320 O.3     1  UDP1       -0.1143
     25  O3B      -13.0150  -16.1580   -5.3940 O.3     1  UDP1       -0.1143
@<TRIPOS>BOND
     1     8     4    2
     2     4     5    1
     3     4     3    2
     4     5     6    2
     5     3     2    2
     6     6     1    1
     7    20    18    2
     8     2     1   am
     9     2     7    2
    10    23    22    2
    11     1     9    1
    12    24    22    1
    13    21    18    1
    14    21    22    1
    15    18    17    1
    16    18    19    1
    17    17    16    1
    18    22    25    1
    19     9    14    1
    20     9    10    1
    21    14    13    1
    22    16    13    1
    23    12    13    1
    24    12    10    1
    25    12    15    1
    26    10    11    1
