@<TRIPOS>MOLECULE
3sx9_BK7_A_1.pdb
 30 34 0 0 0
SMALL
GASTEIGER

@<TRIPOS>ATOM
      1  N1        16.5260   11.8170   63.0580 N.2   701  BK7701     -0.0027
      2  C2        17.7270   12.3800   62.8390 C.3   701  BK7701      0.5248
      3  N3        17.8120   13.7090   62.8750 N.2   701  BK7701     -0.0088
      4  C4        16.7330   14.4880   63.1410 C.2   701  BK7701      0.3406
      5  C5        15.4840   13.9280   63.3830 C.3   701  BK7701      0.2639
      6  C6        15.4010   12.5320   63.3340 C.2   701  BK7701      0.4081
      7  CAA        5.0910   14.2090   65.1440 C.3   701  BK7701      0.0512
      8  NAB       14.2670   11.8820   63.5530 N.pl3 701  BK7701      0.2118
      9  CAC        9.5210   13.6840   66.6250 C.ar  701  BK7701      0.0369
     10  CAD       12.4140   15.7080   63.0720 C.ar  701  BK7701      0.0013
     11  CAE       10.8910   13.6700   66.3660 C.ar  701  BK7701      0.0031
     12  CAF       11.0440   15.7380   63.3180 C.ar  701  BK7701      0.0001
     13  CAH        9.1620   15.0650   64.6840 C.ar  701  BK7701      0.0369
     14  CAI       12.7590   14.3360   65.0170 C.ar  701  BK7701      0.0013
     15  CAJ        6.5150   14.6940   64.8940 C.3   701  BK7701      0.2055
     16  CAK       19.8750   18.0230   60.1110 C.3   701  BK7701      0.0888
     17  CAL       17.6210   17.8220   59.2860 C.3   701  BK7701      0.0888
     18  CAM       19.4530   17.7330   61.5470 C.3   701  BK7701      0.0231
     19  CAN       17.1260   17.2620   60.6370 C.3   701  BK7701      0.0231
     20  CAO       17.6880   16.7680   63.0420 C.3   701  BK7701      0.2317
     21  NAR       15.4160   16.1210   63.5050 N.2   701  BK7701     -0.0912
     22  NAS       18.7640   18.7370   59.4670 N.3   701  BK7701     -0.2180
     23  OAT        7.3180   14.3870   66.0480 O.3   701  BK7701     -0.4755
     24  CAU        8.6540   14.3810   65.7830 C.ar  701  BK7701      0.1386
     25  CAV       13.2850   15.0070   63.9110 C.ar  701  BK7701      0.0182
     26  CAX       14.6550   15.0270   63.6230 C.2   701  BK7701      0.1226
     27  CAY       10.5280   15.0580   64.4200 C.ar  701  BK7701      0.0030
     28  CAZ       11.3910   14.3560   65.2670 C.ar  701  BK7701      0.0002
     29  CBC       18.2420   16.7940   61.5880 C.3   701  BK7701      0.0522
     30  NBD       16.5790   15.8020   63.2350 N.pl3 701  BK7701     -0.0797
@<TRIPOS>BOND
     1    17    22    1
     2    17    19    1
     3    22    16    1
     4    16    18    1
     5    19    29    1
     6    18    29    1
     7    29    20    1
     8     2     3    1
     9     2     1    1
    10     3     4    2
    11    20    30    1
    12     1     6    2
    13    10    12   ar
    14    10    25   ar
    15     4    30    1
    16     4     5    1
    17    30    21    1
    18    12    27   ar
    19     6     5    1
    20     6     8    1
    21     5    26    1
    22    21    26    2
    23    26    25    1
    24    25    14   ar
    25    27    13   ar
    26    27    28   ar
    27    13    24   ar
    28    15     7    1
    29    15    23    1
    30    14    28   ar
    31    28    11   ar
    32    24    23    1
    33    24     9   ar
    34    11     9   ar
