@<TRIPOS>MOLECULE
3sxa_UDP_A_1.pdb
 25 26 0 0 0
SMALL
GASTEIGER

@<TRIPOS>ATOM
      1  N1        -9.9160   23.4150    7.5820 N.am    1  UDP1       -0.1766
      2  C2        -8.7360   24.0820    7.8960 C.1     1  UDP1        0.2845
      3  N3        -8.2190   24.0370    9.1950 N.2     1  UDP1       -0.2452
      4  C4        -8.8150   23.3370   10.2040 C.1     1  UDP1        0.2182
      5  C5       -10.0090   22.6640    9.9280 C.2     1  UDP1        0.1242
      6  C6       -10.5410   22.6800    8.6110 C.2     1  UDP1        0.0929
      7  O2        -8.1190   24.6430    7.0310 O.2     1  UDP1       -0.1918
      8  O4        -8.2860   23.3750   11.3210 O.2     1  UDP1       -0.2085
      9  C1'      -10.3990   23.5120    6.2150 C.3     1  UDP1        0.2401
     10  C2'       -9.5420   22.6910    5.2670 C.3     1  UDP1        0.2319
     11  O2'       -9.6800   23.2950    3.9410 O.3     1  UDP1       -0.2157
     12  C3'      -10.2950   21.4080    5.3410 C.3     1  UDP1        0.2158
     13  C4'      -11.7530   21.8800    5.2600 C.3     1  UDP1        0.1799
     14  O4'      -11.7550   22.8950    6.2320 O.3     1  UDP1       -0.3320
     15  O3'       -9.9570   20.6070    4.1410 O.3     1  UDP1       -0.2175
     16  C5'      -12.7320   20.8030    5.8070 C.3     1  UDP1        0.1813
     17  O5'      -12.2850   20.2250    7.0010 O.3     1  UDP1       -0.3111
     18  PA       -11.6850   18.7040    7.0840 P.3     1  UDP1        0.2231
     19  O1A      -10.8550   18.4150    5.8220 O.2     1  UDP1       -0.5169
     20  O2A      -11.0290   18.5910    8.4200 O.3     1  UDP1       -0.4370
     21  O3A      -13.0650   17.8290    7.0360 O.3     1  UDP1       -0.2261
     22  PB       -13.1040   16.2470    6.7450 P.3     1  UDP1        0.5373
     23  O1B      -11.9460   15.5200    7.6150 O.3     1  UDP1       -0.1143
     24  O2B      -14.5110   15.8370    7.0940 O.3     1  UDP1       -0.1143
     25  O3B      -12.7200   16.0470    5.2830 O.2     1  UDP1       -0.2221
@<TRIPOS>BOND
     1    11    10    1
     2    15    12    1
     3    13    12    1
     4    13    16    1
     5    13    14    1
     6    10    12    1
     7    10     9    1
     8    25    22    2
     9    16    17    1
    10    19    18    2
    11     9    14    1
    12     9     1    1
    13    22    21    1
    14    22    24    1
    15    22    23    1
    16    17    18    1
    17     7     2    2
    18    21    18    1
    19    18    20    1
    20     1     2   am
    21     1     6    1
    22     2     3    2
    23     6     5    2
    24     3     4    2
    25     5     4    1
    26     4     8    2
