@<TRIPOS>MOLECULE
3sxa_GAL_A_1.pdb
 12 12 0 0 0
SMALL
GASTEIGER

@<TRIPOS>ATOM
      1  C1       -17.6640   11.0910    6.3760 C.3     2  GAL2        0.3024
      2  C2       -16.8750   12.3270    6.0540 C.3     2  GAL2        0.2434
      3  C3       -17.4300   13.4930    6.8380 C.3     2  GAL2        0.2199
      4  C4       -18.9510   13.5890    6.4090 C.3     2  GAL2        0.2144
      5  C5       -19.6220   12.2910    6.7460 C.3     2  GAL2        0.1836
      6  C6       -21.1770   12.3560    6.3900 C.3     2  GAL2        0.2142
      7  O1       -17.3010    9.8420    5.7480 O.3     2  GAL2       -0.1869
      8  O2       -15.5660   12.1120    6.5990 O.3     2  GAL2       -0.2148
      9  O3       -16.7560   14.6510    6.4950 O.3     2  GAL2       -0.2174
     10  O4       -19.0200   13.7630    4.9940 O.3     2  GAL2       -0.2176
     11  O5       -19.1150   11.1320    6.0160 O.3     2  GAL2       -0.3236
     12  O6       -21.9130   11.1720    6.8340 O.3     2  GAL2       -0.2176
@<TRIPOS>BOND
     1    10     4    1
     2     7     1    1
     3    11     1    1
     4    11     5    1
     5     2     1    1
     6     2     8    1
     7     2     3    1
     8     6     5    1
     9     6    12    1
    10     4     5    1
    11     4     3    1
    12     9     3    1
