@<TRIPOS>MOLECULE
3sxb_UDP_A_1.pdb
 25 26 0 0 0
SMALL
GASTEIGER

@<TRIPOS>ATOM
      1  N1         9.8780   23.2450   -7.6610 N.am    1  UDP1       -0.1766
      2  C2         8.7480   23.9570   -7.9230 C.1     1  UDP1        0.2845
      3  N3         8.2190   23.9890   -9.2040 N.2     1  UDP1       -0.2452
      4  C4         8.8290   23.2930  -10.2300 C.1     1  UDP1        0.2182
      5  C5         9.9850   22.5790   -9.9560 C.2     1  UDP1        0.1242
      6  C6        10.5570   22.5370   -8.6930 C.2     1  UDP1        0.0929
      7  O2         8.1940   24.6170   -7.0640 O.2     1  UDP1       -0.1918
      8  O4         8.3340   23.3270  -11.4080 O.2     1  UDP1       -0.2085
      9  C1'       10.3790   23.3700   -6.2790 C.3     1  UDP1        0.2401
     10  C2'        9.4820   22.5270   -5.3730 C.3     1  UDP1        0.2319
     11  O2'        9.5940   23.0520   -3.9980 O.3     1  UDP1       -0.2157
     12  C3'       10.2700   21.2560   -5.4540 C.3     1  UDP1        0.2158
     13  C4'       11.6930   21.7010   -5.3730 C.3     1  UDP1        0.1799
     14  O4'       11.7580   22.8260   -6.2790 O.3     1  UDP1       -0.3320
     15  O3'        9.9510   20.5220   -4.2400 O.3     1  UDP1       -0.2175
     16  C5'       12.8110   20.7350   -5.8320 C.3     1  UDP1        0.1813
     17  O5'       12.2880   20.1630   -7.0870 O.3     1  UDP1       -0.3111
     18  PA        11.7870   18.6560   -7.1700 P.3     1  UDP1        0.2231
     19  O1A       10.9340   18.3000   -5.9200 O.3     1  UDP1       -0.4370
     20  O2A       11.1560   18.4990   -8.5100 O.2     1  UDP1       -0.5169
     21  O3A       13.1410   17.8570   -7.1360 O.3     1  UDP1       -0.2261
     22  PB        13.1990   16.3200   -6.8560 P.3     1  UDP1        0.5373
     23  O1B       12.1060   15.5530   -7.7590 O.2     1  UDP1       -0.2221
     24  O2B       14.5970   15.7950   -7.2780 O.3     1  UDP1       -0.1143
     25  O3B       12.9960   16.0200   -5.4100 O.3     1  UDP1       -0.1143
@<TRIPOS>BOND
     1     8     4    2
     2     4     5    1
     3     4     3    2
     4     5     6    2
     5     3     2    2
     6     6     1    1
     7    20    18    2
     8     2     1   am
     9     2     7    2
    10    23    22    2
    11     1     9    1
    12    24    22    1
    13    18    21    1
    14    18    17    1
    15    18    19    1
    16    21    22    1
    17    17    16    1
    18    22    25    1
    19     9    14    1
    20     9    10    1
    21    14    13    1
    22    16    13    1
    23    12    13    1
    24    12    10    1
    25    12    15    1
    26    10    11    1
