@<TRIPOS>MOLECULE
3sxb_GAL_A_1.pdb
 12 12 0 0 0
SMALL
GASTEIGER

@<TRIPOS>ATOM
      1  C1        17.8590   11.3110   -6.5710 C.3     2  GAL2        0.3024
      2  C2        16.9890   12.5090   -6.2520 C.3     2  GAL2        0.2434
      3  C3        17.5340   13.7700   -6.8900 C.3     2  GAL2        0.2199
      4  C4        19.0130   13.8920   -6.4540 C.3     2  GAL2        0.2144
      5  C5        19.7660   12.6260   -6.7930 C.3     2  GAL2        0.1836
      6  C6        21.3110   12.5840   -6.4290 C.3     2  GAL2        0.2142
      7  O1        17.4820   10.1160   -5.9390 O.3     2  GAL2       -0.1869
      8  O2        15.7400   12.2370   -6.8580 O.3     2  GAL2       -0.2148
      9  O3        16.8540   14.9670   -6.5710 O.3     2  GAL2       -0.2174
     10  O4        19.0400   14.0900   -5.0300 O.3     2  GAL2       -0.2176
     11  O5        19.2550   11.4450   -6.1840 O.3     2  GAL2       -0.3236
     12  O6        22.0090   11.4370   -6.8800 O.3     2  GAL2       -0.2176
@<TRIPOS>BOND
     1     3     9    1
     2     3     4    1
     3     3     2    1
     4    12     6    1
     5     8     2    1
     6     5     4    1
     7     5     6    1
     8     5    11    1
     9     1     2    1
    10     1    11    1
    11     1     7    1
    12     4    10    1
