@<TRIPOS>MOLECULE
3sxc_GAL_A_1.pdb
 12 12 0 0 0
SMALL
GASTEIGER

@<TRIPOS>ATOM
      1  C1        17.8060   11.1680   -6.8240 C.3     2  GAL2        0.3024
      2  C2        16.9530   12.3510   -6.4060 C.3     2  GAL2        0.2434
      3  C3        17.5480   13.5730   -7.0720 C.3     2  GAL2        0.2199
      4  C4        19.0150   13.7430   -6.6300 C.3     2  GAL2        0.2144
      5  C5        19.7880   12.4640   -6.9600 C.3     2  GAL2        0.1836
      6  C6        21.2550   12.4810   -6.4870 C.3     2  GAL2        0.2142
      7  O1        17.2450   10.0410   -6.2030 O.3     2  GAL2       -0.1869
      8  O2        15.6460   12.1680   -6.8640 O.3     2  GAL2       -0.2148
      9  O3        16.7370   14.6730   -6.7930 O.3     2  GAL2       -0.2174
     10  O4        19.0760   14.0040   -5.2540 O.3     2  GAL2       -0.2176
     11  O5        19.1630   11.3410   -6.4220 O.3     2  GAL2       -0.3236
     12  O6        21.8830   11.2960   -6.9370 O.3     2  GAL2       -0.2176
@<TRIPOS>BOND
     1     3     9    1
     2     3     4    1
     3     3     2    1
     4     5     4    1
     5     5     6    1
     6     5    11    1
     7    12     6    1
     8     8     2    1
     9     1    11    1
    10     1     2    1
    11     1     7    1
    12     4    10    1
