@<TRIPOS>MOLECULE
3sxc_UDP_A_1.pdb
 25 26 0 0 0
SMALL
GASTEIGER

@<TRIPOS>ATOM
      1  N1         9.9300   23.3730   -7.8850 N.am    1  UDP1       -0.1766
      2  C2         8.7390   24.0760   -8.1130 C.1     1  UDP1        0.2845
      3  N3         8.2090   24.0550   -9.4680 N.2     1  UDP1       -0.2452
      4  C4         8.8920   23.3470  -10.5440 C.1     1  UDP1        0.2182
      5  C5        10.0860   22.6570  -10.2750 C.2     1  UDP1        0.1242
      6  C6        10.5860   22.6760   -8.9550 C.2     1  UDP1        0.0929
      7  O2         8.1970   24.6780   -7.1550 O.2     1  UDP1       -0.1918
      8  O4         8.4140   23.3280  -11.6850 O.2     1  UDP1       -0.2085
      9  C1'       10.4490   23.4040   -6.5050 C.3     1  UDP1        0.2401
     10  C2'        9.5010   22.5830   -5.5930 C.3     1  UDP1        0.2319
     11  O2'        9.5810   22.9890   -4.2390 O.3     1  UDP1       -0.2157
     12  C3'       10.1770   21.2380   -5.6460 C.3     1  UDP1        0.2158
     13  C4'       11.6710   21.6310   -5.6230 C.3     1  UDP1        0.1799
     14  O4'       11.7350   22.7220   -6.5360 O.3     1  UDP1       -0.3320
     15  O3'        9.8210   20.6130   -4.4280 O.3     1  UDP1       -0.2175
     16  C5'       12.7470   20.6240   -6.1130 C.3     1  UDP1        0.1813
     17  O5'       12.4610   20.1180   -7.3780 O.3     1  UDP1       -0.3111
     18  PA        11.7310   18.7150   -7.5090 P.3     1  UDP1        0.2231
     19  O1A       11.0170   18.3810   -6.2260 O.3     1  UDP1       -0.4370
     20  O2A       11.0100   18.7480   -8.7660 O.2     1  UDP1       -0.5169
     21  O3A       13.0150   17.7710   -7.6900 O.3     1  UDP1       -0.2261
     22  PB        13.1230   16.2710   -7.0820 P.3     1  UDP1        0.5373
     23  O1B       12.0980   15.3200   -7.8980 O.2     1  UDP1       -0.2221
     24  O2B       14.5750   15.7430   -7.4960 O.3     1  UDP1       -0.1143
     25  O3B       12.9010   16.1780   -5.6440 O.3     1  UDP1       -0.1143
@<TRIPOS>BOND
     1     8     4    2
     2     4     5    1
     3     4     3    2
     4     5     6    2
     5     3     2    2
     6     6     1    1
     7    20    18    2
     8     2     1   am
     9     2     7    2
    10    23    22    2
    11     1     9    1
    12    21    18    1
    13    21    22    1
    14    18    17    1
    15    18    19    1
    16    24    22    1
    17    17    16    1
    18    22    25    1
    19    14     9    1
    20    14    13    1
    21     9    10    1
    22    16    13    1
    23    12    13    1
    24    12    10    1
    25    12    15    1
    26    10    11    1
