@<TRIPOS>MOLECULE
3sxd_UDP_A_1.pdb
 25 26 0 0 0
SMALL
GASTEIGER

@<TRIPOS>ATOM
      1  N1        -9.7950  -23.1770   -7.8450 N.am    1  UDP1       -0.1766
      2  C2        -8.6830  -23.9180   -8.1460 C.1     1  UDP1        0.2845
      3  N3        -8.1880  -23.9390   -9.4590 N.2     1  UDP1       -0.2452
      4  C4        -8.8330  -23.1830  -10.4670 C.1     1  UDP1        0.2182
      5  C5        -9.9390  -22.4040  -10.1440 C.2     1  UDP1        0.1242
      6  C6       -10.4250  -22.4040   -8.8360 C.2     1  UDP1        0.0929
      7  O2        -8.1550  -24.5840   -7.2410 O.2     1  UDP1       -0.1918
      8  O4        -8.3670  -23.2000  -11.6070 O.2     1  UDP1       -0.2085
      9  C1'      -10.2500  -23.2880   -6.4550 C.3     1  UDP1        0.2401
     10  C2'       -9.4160  -22.4510   -5.5270 C.3     1  UDP1        0.2319
     11  O2'       -9.5940  -22.8350   -4.1750 O.3     1  UDP1       -0.2157
     12  C3'      -10.1560  -21.1830   -5.6490 C.3     1  UDP1        0.2158
     13  C4'      -11.5920  -21.5980   -5.5870 C.3     1  UDP1        0.1799
     14  O4'      -11.6170  -22.7990   -6.3850 O.3     1  UDP1       -0.3320
     15  O3'       -9.9040  -20.5560   -4.4340 O.3     1  UDP1       -0.2175
     16  C5'      -12.7110  -20.5870   -6.2070 C.3     1  UDP1        0.1813
     17  O5'      -12.1660  -19.9280   -7.3650 O.3     1  UDP1       -0.3111
     18  PA       -11.7660  -18.4160   -7.3380 P.3     1  UDP1        0.2231
     19  O1A      -11.0060  -18.1710   -6.0450 O.3     1  UDP1       -0.4370
     20  O2A      -11.0880  -18.0850   -8.5990 O.2     1  UDP1       -0.5169
     21  O3A      -13.1660  -17.7790   -7.3950 O.3     1  UDP1       -0.2261
     22  PB       -13.2670  -16.3220   -6.8420 P.3     1  UDP1        0.5373
     23  O1B      -12.2800  -15.4030   -7.7350 O.2     1  UDP1       -0.2221
     24  O2B      -14.6800  -15.8580   -7.2560 O.3     1  UDP1       -0.1143
     25  O3B      -13.0290  -16.1350   -5.3990 O.3     1  UDP1       -0.1143
@<TRIPOS>BOND
     1     8     4    2
     2     4     5    1
     3     4     3    2
     4     5     6    2
     5     3     2    2
     6     6     1    1
     7    20    18    2
     8     2     1   am
     9     2     7    2
    10     1     9    1
    11    23    22    2
    12    21    18    1
    13    21    22    1
    14    17    18    1
    15    17    16    1
    16    18    19    1
    17    24    22    1
    18    22    25    1
    19     9    14    1
    20     9    10    1
    21    14    13    1
    22    16    13    1
    23    12    13    1
    24    12    10    1
    25    12    15    1
    26    10    11    1
