@<TRIPOS>MOLECULE
3sxd_GAL_A_1.pdb
 12 12 0 0 0
SMALL
GASTEIGER

@<TRIPOS>ATOM
      1  C1       -17.9440  -11.4150   -6.8370 C.3     2  GAL2        0.3024
      2  C2       -17.0890  -12.6340   -6.5260 C.3     2  GAL2        0.2434
      3  C3       -17.7310  -13.8840   -7.0800 C.3     2  GAL2        0.2199
      4  C4       -19.1950  -13.9570   -6.6120 C.3     2  GAL2        0.2144
      5  C5       -19.9160  -12.6580   -6.9160 C.3     2  GAL2        0.1836
      6  C6       -21.4120  -12.5750   -6.4840 C.3     2  GAL2        0.2142
      7  O1       -17.4590  -10.3170   -6.1230 O.3     2  GAL2       -0.1869
      8  O2       -15.7600  -12.4860   -7.0040 O.3     2  GAL2       -0.2148
      9  O3       -16.9920  -14.9850   -6.6230 O.3     2  GAL2       -0.2174
     10  O4       -19.2190  -14.0910   -5.1920 O.3     2  GAL2       -0.2176
     11  O5       -19.2340  -11.6100   -6.2790 O.3     2  GAL2       -0.3236
     12  O6       -22.0940  -11.4130   -6.9650 O.3     2  GAL2       -0.2176
@<TRIPOS>BOND
     1     3     9    1
     2     3     4    1
     3     3     2    1
     4     8     2    1
     5    12     6    1
     6     5     4    1
     7     5     6    1
     8     5    11    1
     9     1     2    1
    10     1    11    1
    11     1     7    1
    12     4    10    1
