@<TRIPOS>MOLECULE
3sxe_GAL_A_1.pdb
 12 12 0 0 0
SMALL
GASTEIGER

@<TRIPOS>ATOM
      1  C1        18.1340   10.4970   -6.6810 C.3     2  GAL2        0.3024
      2  C2        17.2060   11.6500   -6.3810 C.3     2  GAL2        0.2434
      3  C3        17.8200   12.8940   -7.0180 C.3     2  GAL2        0.2199
      4  C4        19.2200   13.2280   -6.5180 C.3     2  GAL2        0.2144
      5  C5        19.9800   11.9270   -6.8110 C.3     2  GAL2        0.1836
      6  C6        21.4360   12.0210   -6.3500 C.3     2  GAL2        0.2142
      7  O1        17.6420    9.3860   -5.9890 O.3     2  GAL2       -0.1869
      8  O2        16.0120   11.4170   -7.1090 O.3     2  GAL2       -0.2148
      9  O3        17.0300   14.0150   -6.7990 O.3     2  GAL2       -0.2174
     10  O4        19.2400   13.5120   -5.1110 O.3     2  GAL2       -0.2176
     11  O5        19.4200   10.7960   -6.1730 O.3     2  GAL2       -0.3236
     12  O6        22.1440   10.8670   -6.8420 O.3     2  GAL2       -0.2176
@<TRIPOS>BOND
     1     8     2    1
     2     3     9    1
     3     3     4    1
     4     3     2    1
     5    12     6    1
     6     5     4    1
     7     5     6    1
     8     5    11    1
     9     1     2    1
    10     1    11    1
    11     1     7    1
    12     4    10    1
