@<TRIPOS>MOLECULE
3sxe_UDP_A_1.pdb
 25 26 0 0 0
SMALL
GASTEIGER

@<TRIPOS>ATOM
      1  N1         9.9960   23.3730   -7.5640 N.am    1  UDP1       -0.1766
      2  C2         8.8360   24.1020   -7.8560 C.1     1  UDP1        0.2845
      3  N3         8.2770   24.0500   -9.1420 N.2     1  UDP1       -0.2452
      4  C4         8.8750   23.3210  -10.1770 C.1     1  UDP1        0.2182
      5  C5        10.0600   22.6480   -9.9300 C.2     1  UDP1        0.1242
      6  C6        10.6270   22.6660   -8.6240 C.2     1  UDP1        0.0929
      7  O2         8.2400   24.6680   -6.9840 O.2     1  UDP1       -0.1918
      8  O4         8.3240   23.3460  -11.3270 O.2     1  UDP1       -0.2085
      9  C1'       10.4800   23.5060   -6.1600 C.3     1  UDP1        0.2401
     10  C2'        9.6430   22.6520   -5.1970 C.3     1  UDP1        0.2319
     11  O2'        9.7920   23.3270   -3.9330 O.3     1  UDP1       -0.2157
     12  C3'       10.3760   21.3630   -5.2480 C.3     1  UDP1        0.2158
     13  C4'       11.8450   21.8550   -5.1960 C.3     1  UDP1        0.1799
     14  O4'       11.8210   22.9370   -6.1400 O.3     1  UDP1       -0.3320
     15  O3'       10.0900   20.6770   -4.0390 O.3     1  UDP1       -0.2175
     16  C5'       12.8570   20.7650   -5.7460 C.3     1  UDP1        0.1813
     17  O5'       12.3620   20.1650   -6.9870 O.3     1  UDP1       -0.3111
     18  PA        11.8190   18.7080   -7.0300 P.3     1  UDP1        0.2231
     19  O1A       10.9760   18.4540   -5.7910 O.3     1  UDP1       -0.4370
     20  O2A       11.1310   18.5450   -8.3800 O.2     1  UDP1       -0.5169
     21  O3A       13.1860   17.8090   -6.9790 O.3     1  UDP1       -0.2261
     22  PB        13.1490   16.2340   -6.6450 P.3     1  UDP1        0.5373
     23  O1B       11.9670   15.5780   -7.4540 O.2     1  UDP1       -0.2221
     24  O2B       14.4850   15.6900   -7.0980 O.3     1  UDP1       -0.1143
     25  O3B       12.8270   16.0940   -5.1080 O.3     1  UDP1       -0.1143
@<TRIPOS>BOND
     1     8     4    2
     2     4     5    1
     3     4     3    2
     4     5     6    2
     5     3     2    2
     6     6     1    1
     7    20    18    2
     8     2     1   am
     9     2     7    2
    10     1     9    1
    11    23    22    2
    12    24    22    1
    13    18    17    1
    14    18    21    1
    15    18    19    1
    16    17    16    1
    17    21    22    1
    18    22    25    1
    19     9    14    1
    20     9    10    1
    21    14    13    1
    22    16    13    1
    23    12    10    1
    24    12    13    1
    25    12    15    1
    26    10    11    1
