@<TRIPOS>MOLECULE
3sxf_BK5_A_1.pdb
 26 29 0 0 0
SMALL
GASTEIGER

@<TRIPOS>ATOM
      1  N1        21.3720   12.2890   63.4150 N.2   701  BK5701     -0.0027
      2  C2        22.5370   12.8910   63.1740 C.3   701  BK5701      0.5248
      3  N3        22.6300   14.2140   63.1340 N.2   701  BK5701     -0.0088
      4  C4        21.5400   14.9820   63.3220 C.2   701  BK5701      0.3405
      5  C5        20.3080   14.4000   63.5810 C.3   701  BK5701      0.2639
      6  C6        20.2480   12.9960   63.6290 C.2   701  BK5701      0.4081
      7  CAA        9.7400   14.7350   65.3460 C.3   701  BK5701      0.0512
      8  CAB       22.2130   18.5680   63.8350 C.3   701  BK5701      0.0532
      9  CAC       22.5730   17.4960   61.5790 C.3   701  BK5701      0.0532
     10  NAD       19.1200   12.3230   63.8630 N.pl3 701  BK5701      0.2118
     11  CAE       14.2700   13.9950   66.6360 C.ar  701  BK5701      0.0369
     12  CAF       17.2070   16.2240   63.2320 C.ar  701  BK5701      0.0013
     13  CAG       15.6440   13.9980   66.3900 C.ar  701  BK5701      0.0031
     14  CAH       15.8350   16.2290   63.4800 C.ar  701  BK5701      0.0001
     15  CAJ       13.9380   15.4910   64.7760 C.ar  701  BK5701      0.0369
     16  CAK       17.5490   14.7280   65.0800 C.ar  701  BK5701      0.0013
     17  CAL       11.2110   14.9390   64.9500 C.3   701  BK5701      0.2055
     18  NAO       20.1780   16.6110   63.5670 N.2   701  BK5701     -0.0914
     19  OAP       12.0790   14.7300   66.0940 O.3   701  BK5701     -0.4755
     20  CAQ       13.4130   14.7400   65.8230 C.ar  701  BK5701      0.1386
     21  CAR       18.0770   15.4600   64.0140 C.ar  701  BK5701      0.0182
     22  CAT       19.4460   15.4990   63.7380 C.2   701  BK5701      0.1226
     23  CAU       15.3130   15.4840   64.5300 C.ar  701  BK5701      0.0030
     24  CAV       16.1720   14.7390   65.3400 C.ar  701  BK5701      0.0002
     25  CAY       22.4540   17.2540   63.0880 C.3   701  BK5701      0.1876
     26  NAZ       21.3550   16.2990   63.3300 N.pl3 701  BK5701     -0.0839
@<TRIPOS>BOND
     1     9    25    1
     2    25    26    1
     3    25     8    1
     4     3     2    1
     5     3     4    2
     6     2     1    1
     7    12    14   ar
     8    12    21   ar
     9     4    26    1
    10     4     5    1
    11    26    18    1
    12     1     6    2
    13    14    23   ar
    14    18    22    2
    15     5     6    1
    16     5    22    1
    17     6    10    1
    18    22    21    1
    19    21    16   ar
    20    23    15   ar
    21    23    24   ar
    22    15    20   ar
    23    17     7    1
    24    17    19    1
    25    16    24   ar
    26    24    13   ar
    27    20    19    1
    28    20    11   ar
    29    13    11   ar
