@<TRIPOS>MOLECULE
3sxg_GAL_A_1.pdb
 12 12 0 0 0
SMALL
GASTEIGER

@<TRIPOS>ATOM
      1  C1        17.9190   11.0020   -6.4480 C.3     2  GAL2        0.3024
      2  C2        17.0910   12.2670   -6.1690 C.3     2  GAL2        0.2434
      3  C3        17.7500   13.4610   -6.8420 C.3     2  GAL2        0.2199
      4  C4        19.1930   13.6120   -6.3260 C.3     2  GAL2        0.2144
      5  C5        19.9310   12.3170   -6.6560 C.3     2  GAL2        0.1836
      6  C6        21.3940   12.3760   -6.2100 C.3     2  GAL2        0.2142
      7  O1        17.4840    9.8980   -5.6940 O.3     2  GAL2       -0.1869
      8  O2        15.7230   12.1750   -6.4980 O.3     2  GAL2       -0.2148
      9  O3        16.9950   14.6270   -6.6060 O.3     2  GAL2       -0.2174
     10  O4        19.2750   13.7910   -4.9190 O.3     2  GAL2       -0.2176
     11  O5        19.2840   11.1930   -6.0880 O.3     2  GAL2       -0.3236
     12  O6        22.0100   11.1970   -6.6740 O.3     2  GAL2       -0.2176
@<TRIPOS>BOND
     1     3     9    1
     2     3     4    1
     3     3     2    1
     4    12     6    1
     5     5     4    1
     6     5     6    1
     7     5    11    1
     8     8     2    1
     9     1     2    1
    10     1    11    1
    11     1     7    1
    12     4    10    1
