@<TRIPOS>MOLECULE
3sxg_UDP_A_1.pdb
 25 26 0 0 0
SMALL
GASTEIGER

@<TRIPOS>ATOM
      1  N1        10.0250   23.2880   -7.5070 N.am    1  UDP1       -0.1766
      2  C2         8.8700   23.9760   -7.7950 C.1     1  UDP1        0.2845
      3  N3         8.3550   23.9410   -9.1070 N.2     1  UDP1       -0.2452
      4  C4         8.9720   23.2200  -10.1460 C.1     1  UDP1        0.2182
      5  C5        10.1480   22.5040   -9.8420 C.2     1  UDP1        0.1242
      6  C6        10.6980   22.5770   -8.5400 C.2     1  UDP1        0.0929
      7  O2         8.2960   24.6200   -6.9140 O.2     1  UDP1       -0.1918
      8  O4         8.4340   23.2650  -11.2810 O.2     1  UDP1       -0.2085
      9  C1'       10.5170   23.4300   -6.0980 C.3     1  UDP1        0.2401
     10  C2'        9.6010   22.5940   -5.1490 C.3     1  UDP1        0.2319
     11  O2'        9.7750   23.0650   -3.8430 O.3     1  UDP1       -0.2157
     12  C3'       10.2920   21.2660   -5.2140 C.3     1  UDP1        0.2158
     13  C4'       11.7490   21.7080   -5.2680 C.3     1  UDP1        0.1799
     14  O4'       11.7890   22.8780   -6.1530 O.3     1  UDP1       -0.3320
     15  O3'       10.1040   20.5150   -3.9650 O.3     1  UDP1       -0.2175
     16  C5'       12.8290   20.6640   -5.7270 C.3     1  UDP1        0.1813
     17  O5'       12.4440   20.1010   -6.9540 O.3     1  UDP1       -0.3111
     18  PA        11.9010   18.5620   -6.9620 P.3     1  UDP1        0.2231
     19  O1A       11.0600   18.3220   -5.7100 O.3     1  UDP1       -0.4370
     20  O2A       11.2370   18.4570   -8.2950 O.2     1  UDP1       -0.5169
     21  O3A       13.2930   17.7200   -7.0010 O.3     1  UDP1       -0.2261
     22  PB        13.3380   16.1860   -6.4570 P.3     1  UDP1        0.5373
     23  O1B       12.2570   15.2210   -7.3560 O.2     1  UDP1       -0.2221
     24  O2B       14.7650   15.7620   -6.7090 O.3     1  UDP1       -0.1143
     25  O3B       13.0120   15.9550   -5.0130 O.3     1  UDP1       -0.1143
@<TRIPOS>BOND
     1     8     4    2
     2     4     5    1
     3     4     3    2
     4     5     6    2
     5     3     2    2
     6     6     1    1
     7    20    18    2
     8     2     1   am
     9     2     7    2
    10     1     9    1
    11    23    22    2
    12    21    18    1
    13    21    22    1
    14    18    17    1
    15    18    19    1
    16    17    16    1
    17    24    22    1
    18    22    25    1
    19    14     9    1
    20    14    13    1
    21     9    10    1
    22    16    13    1
    23    13    12    1
    24    12    10    1
    25    12    15    1
    26    10    11    1
