@<TRIPOS>MOLECULE
3sxh_THP_A_1.pdb
 25 26 0 0 0
SMALL
GASTEIGER

@<TRIPOS>ATOM
      1  P2        17.9160   46.7650    4.8400 P.3   150  THP150      0.5327
      2  O4P       16.6710   47.4680    5.3400 O.3   150  THP150     -0.1145
      3  O5P       17.8800   45.2210    5.0730 O.2   150  THP150     -0.2224
      4  O6P       19.1970   47.4890    5.4080 O.3   150  THP150     -0.1145
      5  P1        21.1780   50.2580    1.0320 P.3   150  THP150      0.5326
      6  O1P       21.8290   49.1150    1.7600 O.3   150  THP150     -0.1145
      7  O2P       22.1830   50.9120    0.0590 O.2   150  THP150     -0.2224
      8  O3P       20.4960   51.2460    1.9720 O.3   150  THP150     -0.1145
      9  O5'       17.9270   46.8300    3.2840 O.3   150  THP150     -0.2675
     10  C5'       17.9270   48.1320    2.6260 C.3   150  THP150      0.1857
     11  C4'       18.8330   47.9810    1.3930 C.3   150  THP150      0.1748
     12  O4'       18.4290   46.8940    0.5460 O.3   150  THP150     -0.3340
     13  C3'       18.7650   49.2730    0.5370 C.3   150  THP150      0.1600
     14  O3'       20.0850   49.6050    0.0260 O.3   150  THP150     -0.2700
     15  C2'       17.8790   48.8690   -0.6510 C.3   150  THP150      0.0847
     16  C1'       18.1060   47.3430   -0.7820 C.3   150  THP150      0.2089
     17  N1        16.8120   46.6500   -1.1570 N.am  150  THP150     -0.1794
     18  C2        16.5750   46.4840   -2.4670 C.1   150  THP150      0.2844
     19  O2        17.4300   46.8050   -3.3180 O.2   150  THP150     -0.1918
     20  N3        15.4070   45.9590   -2.9180 N.2   150  THP150     -0.2455
     21  C4        14.4330   45.6640   -2.0160 C.1   150  THP150      0.2134
     22  O4        13.3320   45.2740   -2.4360 O.2   150  THP150     -0.2088
     23  C5        14.6500   45.8760   -0.6280 C.2   150  THP150      0.0891
     24  C5M       13.6400   45.4590    0.4370 C.3   150  THP150      0.0462
     25  C6        15.8570   46.3480   -0.2170 C.2   150  THP150      0.0877
@<TRIPOS>BOND
     1    19    18    2
     2    20    18    2
     3    20    21    2
     4    18    17   am
     5    22    21    2
     6    21    23    1
     7    17    16    1
     8    17    25    1
     9    16    15    1
    10    16    12    1
    11    15    13    1
    12    23    25    2
    13    23    24    1
    14    14    13    1
    15    14     5    1
    16     7     5    2
    17    13    11    1
    18    12    11    1
    19     5     6    1
    20     5     8    1
    21    11    10    1
    22    10     9    1
    23     9     1    1
    24     1     3    2
    25     1     2    1
    26     1     4    1
