@<TRIPOS>MOLECULE
3sxi_DCQ_A_1.pdb
 23 23 0 0 0
SMALL
GASTEIGER

@<TRIPOS>ATOM
      1  O2        40.6600  -12.6780    7.0390 O.3   502  DCQ502     -0.2836
      2  C2        41.8360  -11.9780    7.2400 C.ar  502  DCQ502      0.2282
      3  C3        42.7740  -12.4380    8.1660 C.ar  502  DCQ502      0.2140
      4  O3        42.5140  -13.5850    8.9030 O.3   502  DCQ502     -0.4652
      5  C3M       42.6090  -14.8540    8.3590 C.3   502  DCQ502      0.2528
      6  C4        43.9520  -11.7100    8.3700 C.ar  502  DCQ502      0.2140
      7  O4        44.9050  -12.1250    9.2760 O.3   502  DCQ502     -0.4652
      8  C4M       45.2760  -11.3060   10.3240 C.3   502  DCQ502      0.2528
      9  C5        44.1910  -10.5440    7.6450 C.ar  502  DCQ502      0.2282
     10  O5        45.3580   -9.8410    7.8390 O.3   502  DCQ502     -0.2836
     11  C1        42.0860  -10.8060    6.5210 C.ar  502  DCQ502      0.0195
     12  C1M       41.1130  -10.2990    5.5170 C.3   502  DCQ502      0.0343
     13  C6        43.2580  -10.0950    6.7240 C.ar  502  DCQ502      0.0191
     14  C7        43.4950   -8.8210    5.9710 C.3   502  DCQ502      0.0295
     15  C8        43.3260   -7.5340    6.7260 C.3   502  DCQ502      0.0048
     16  C9        41.9540   -6.9330    6.7850 C.3   502  DCQ502      0.0003
     17  C10       41.8260   -5.4410    6.8540 C.3   502  DCQ502      0.0000
     18  C11       41.8840   -4.6490    5.5800 C.3   502  DCQ502      0.0003
     19  C12       42.4790   -5.2990    4.3630 C.3   502  DCQ502      0.0047
     20  C13       41.6310   -6.2300    3.5500 C.3   502  DCQ502      0.0257
     21  C14       41.9990   -6.4190    2.1100 C.2   502  DCQ502     -0.0307
     22  C15       41.0380   -5.9540    1.0600 C.2   502  DCQ502     -0.0304
     23  C16       41.4170   -6.1020   -0.3800 C.3   502  DCQ502      0.0303
@<TRIPOS>BOND
     1    23    22    1
     2    22    21    2
     3    21    20    1
     4    20    19    1
     5    19    18    1
     6    12    11    1
     7    18    17    1
     8    14    13    1
     9    14    15    1
    10    11    13   ar
    11    11     2   ar
    12    13     9   ar
    13    15    16    1
    14    16    17    1
    15     1     2    1
    16     2     3   ar
    17     9    10    1
    18     9     6   ar
    19     3     6   ar
    20     3     4    1
    21     5     4    1
    22     6     7    1
    23     7     8    1
