@<TRIPOS>MOLECULE
3sxj_SAM_A_1.pdb
 27 29 0 0 0
SMALL
GASTEIGER

@<TRIPOS>ATOM
      1  N         19.2750    0.3600   25.6760 N.3   258  SAM258     -0.1208
      2  CA        20.5680   -0.1810   26.1170 C.3   258  SAM258      0.1952
      3  C         20.4610   -1.7040   26.2260 C.2   258  SAM258      0.3819
      4  O         19.3080   -2.1850   26.2280 O.co2 258  SAM258     -0.2441
      5  OXT       21.5300   -2.3480   26.2990 O.co2 258  SAM258     -0.2441
      6  CB        20.9430    0.4130   27.4770 C.3   258  SAM258      0.0414
      7  CG        19.9220    0.0450   28.5550 C.3   258  SAM258      0.0503
      8  SD        20.3200    0.7470   30.1990 S.3   258  SAM258     -0.1761
      9  CE        19.1820   -0.1640   31.2210 C.3   258  SAM258      0.0590
     10  C5'       19.6310    2.4340   30.3520 C.3   258  SAM258      0.0806
     11  C4'       20.2950    3.4090   29.3790 C.3   258  SAM258      0.1622
     12  O4'       19.6150    4.6720   29.4630 O.3   258  SAM258     -0.3153
     13  C3'       21.7500    3.6680   29.7770 C.3   258  SAM258      0.2168
     14  O3'       22.5700    3.7390   28.6080 O.3   258  SAM258     -0.2175
     15  C2'       21.6590    5.0370   30.4520 C.3   258  SAM258      0.2569
     16  O2'       22.9010    5.7360   30.3230 O.3   258  SAM258     -0.2130
     17  C1'       20.6360    5.6780   29.5170 C.3   258  SAM258      0.3185
     18  N9        20.0740    6.9300   30.0730 N.pl3 258  SAM258     -0.1439
     19  C8        19.8040    7.1710   31.3550 C.3   258  SAM258      0.3377
     20  N7        19.2860    8.3890   31.4820 N.2   258  SAM258     -0.2095
     21  C5        19.2280    8.9380   30.2700 C.2   258  SAM258      0.2526
     22  C6        18.7890   10.1590   29.7810 C.2   258  SAM258      0.4393
     23  N6        18.3120   11.0900   30.6040 N.pl3 258  SAM258      0.2180
     24  N1        18.8630   10.3940   28.4630 N.2   258  SAM258      0.0021
     25  C2        19.3470    9.4820   27.6370 C.3   258  SAM258      0.5254
     26  N3        19.7770    8.3100   28.0670 N.2   258  SAM258     -0.0055
     27  C4        19.7310    8.0060   29.3720 C.2   258  SAM258      0.3518
@<TRIPOS>BOND
     1     1     2    1
     2     2     3    1
     3     2     6    1
     4     3     4   ar
     5     3     5   ar
     6     6     7    1
     7    25    26    1
     8    25    24    1
     9    26    27    2
    10    24    22    2
    11     7     8    1
    12    14    13    1
    13    27    18    1
    14    27    21    1
    15    11    12    1
    16    11    13    1
    17    11    10    1
    18    12    17    1
    19    17    18    1
    20    17    15    1
    21    13    15    1
    22    22    21    1
    23    22    23    1
    24    18    19    1
    25     8    10    1
    26     8     9    1
    27    21    20    2
    28    16    15    1
    29    19    20    1
