@<TRIPOS>MOLECULE
3sxn_COA_A_1.pdb
 48 50 0 0 0
SMALL
GASTEIGER

@<TRIPOS>ATOM
      1  N1A        4.6610  -16.6810   21.2440 N.2   500  COA500      0.0021
      2  C2A        3.3830  -16.3610   21.2600 C.3   500  COA500      0.5254
      3  N3A        2.4410  -17.0580   20.6640 N.2   500  COA500     -0.0055
      4  C4A        2.7430  -18.1480   19.9920 C.2   500  COA500      0.3518
      5  C5A        4.1120  -18.5840   19.9360 C.2   500  COA500      0.2526
      6  C6A        5.0970  -17.7550   20.6300 C.2   500  COA500      0.4393
      7  N6A        6.3880  -18.0460   20.6500 N.pl3 500  COA500      0.2180
      8  N7A        4.1170  -19.6790   19.2340 N.2   500  COA500     -0.2095
      9  C8A        2.8650  -19.9070   18.8960 C.3   500  COA500      0.3377
     10  N9A        2.0530  -19.0000   19.3470 N.pl3 500  COA500     -0.1439
     11  C1B        0.6150  -18.8980   19.1900 C.3   500  COA500      0.3185
     12  C2B        0.1960  -18.5910   17.7630 C.3   500  COA500      0.2543
     13  O2B        0.1870  -17.2180   17.4660 O.3   500  COA500     -0.2131
     14  C3B       -1.1620  -19.2400   17.6940 C.3   500  COA500      0.1928
     15  O3B       -2.2000  -18.3850   18.1260 O.3   500  COA500     -0.2673
     16  P3B       -3.6340  -18.4310   17.4970 P.3   500  COA500      0.5327
     17  O7A       -4.3790  -17.3240   18.0270 O.3   500  COA500     -0.1145
     18  O8A       -3.4020  -18.2430   16.0990 O.2   500  COA500     -0.2224
     19  O9A       -4.1490  -19.7300   17.8750 O.3   500  COA500     -0.1145
     20  C4B       -0.9780  -20.4300   18.6230 C.3   500  COA500      0.1795
     21  O4B        0.0140  -20.0940   19.5570 O.3   500  COA500     -0.3136
     22  C5B       -0.5820  -21.7200   17.9030 C.3   500  COA500      0.1812
     23  O5B        0.4880  -21.5460   17.0350 O.3   500  COA500     -0.3112
     24  P1A        1.1240  -22.5910   16.1040 P.3   500  COA500      0.2189
     25  O1A        0.5070  -23.8600   16.2690 O.3   500  COA500     -0.4371
     26  O2A        1.2140  -22.0820   14.7880 O.2   500  COA500     -0.5170
     27  O3A        2.5820  -22.6530   16.6830 O.3   500  COA500     -0.2703
     28  P2A        3.8670  -23.0020   15.8930 P.3   500  COA500      0.2188
     29  O4A        4.2550  -21.7910   15.2670 O.3   500  COA500     -0.4371
     30  O5A        3.5800  -24.1510   15.1270 O.2   500  COA500     -0.5170
     31  O6A        4.9790  -23.4560   16.8810 O.3   500  COA500     -0.3138
     32  CBP        6.5620  -23.0930   18.7530 C.3   500  COA500      0.0645
     33  CCP        5.3810  -22.6210   17.9100 C.3   500  COA500      0.1519
     34  CDP        6.9980  -24.5180   18.5140 C.3   500  COA500      0.0056
     35  CEP        7.0630  -22.2860   19.9050 C.3   500  COA500      0.0056
     36  CAP        7.6200  -22.4340   17.7850 C.3   500  COA500      0.2312
     37  OAP        7.5180  -21.0260   17.5650 O.3   500  COA500     -0.2131
     38  C9P        9.1130  -22.6940   17.9700 C.2   500  COA500      0.2719
     39  O9P        9.5450  -23.7530   17.7020 O.2   500  COA500     -0.2706
     40  N8P        9.8650  -21.7210   18.4260 N.am  500  COA500     -0.2028
     41  C7P       10.9920  -21.9810   19.2350 C.3   500  COA500      0.1248
     42  C6P       10.6570  -22.0290   20.7300 C.3   500  COA500      0.1102
     43  C5P       10.6960  -23.4150   21.1470 C.2   500  COA500      0.2432
     44  O5P       11.6710  -23.9950   20.8900 O.2   500  COA500     -0.2733
     45  N4P        9.6880  -24.0060   21.7030 N.am  500  COA500     -0.2044
     46  C3P        9.2490  -23.8050   23.0080 C.3   500  COA500      0.1276
     47  C2P       10.2820  -24.0690   24.0440 C.3   500  COA500      0.0920
     48  S1P        9.2550  -24.3890   25.4340 S.3   500  COA500     -0.0802
@<TRIPOS>BOND
     1    26    24    2
     2    30    28    2
     3    29    28    1
     4    28    27    1
     5    28    31    1
     6    18    16    2
     7    24    25    1
     8    24    27    1
     9    24    23    1
    10    31    33    1
    11    23    22    1
    12    13    12    1
    13    16    19    1
    14    16    17    1
    15    16    15    1
    16    37    36    1
    17    14    12    1
    18    14    15    1
    19    14    20    1
    20    39    38    2
    21    12    11    1
    22    36    38    1
    23    36    32    1
    24    22    20    1
    25    33    32    1
    26    38    40   am
    27    40    41    1
    28    34    32    1
    29    20    21    1
    30    32    35    1
    31     9     8    1
    32     9    10    1
    33    11    10    1
    34    11    21    1
    35     8     5    2
    36    41    42    1
    37    10     4    1
    38     5     4    1
    39     5     6    1
    40     4     3    2
    41     6     7    1
    42     6     1    2
    43     3     2    1
    44    42    43    1
    45    44    43    2
    46    43    45   am
    47     1     2    1
    48    45    46    1
    49    46    47    1
    50    47    48    1
