@<TRIPOS>MOLECULE
3sxp_NAD_A_1.pdb
 44 48 0 0 0
SMALL
GASTEIGER

@<TRIPOS>ATOM
      1  PA        35.9810   18.1470   -3.9520 P.3   2402  NAD2402     0.2189
      2  O1A       35.6190   17.7230   -5.3230 O.2   2402  NAD2402    -0.5170
      3  O2A       37.2260   17.6350   -3.3410 O.3   2402  NAD2402    -0.4371
      4  O5B       34.7640   17.8170   -2.9570 O.3   2402  NAD2402    -0.3112
      5  C5B       33.4480   17.6380   -3.4770 C.3   2402  NAD2402     0.1813
      6  C4B       32.9380   16.2590   -3.0610 C.3   2402  NAD2402     0.1821
      7  O4B       31.5960   16.1070   -3.5520 O.3   2402  NAD2402    -0.3135
      8  C3B       33.7850   15.1590   -3.7090 C.3   2402  NAD2402     0.2184
      9  O3B       34.1370   14.1800   -2.7280 O.3   2402  NAD2402    -0.2174
     10  C2B       32.8160   14.5620   -4.7300 C.3   2402  NAD2402     0.2570
     11  O2B       33.0840   13.1650   -4.8780 O.3   2402  NAD2402    -0.2130
     12  C1B       31.5070   14.7360   -3.9610 C.3   2402  NAD2402     0.3186
     13  N9A       30.3450   14.5760   -4.8640 N.pl3 2402  NAD2402    -0.1439
     14  C8A       30.2460   15.0800   -6.0920 C.3   2402  NAD2402     0.3377
     15  N7A       29.0790   14.7290   -6.6260 N.2   2402  NAD2402    -0.2095
     16  C5A       28.4240   13.9950   -5.7280 C.2   2402  NAD2402     0.2526
     17  C6A       27.1950   13.3560   -5.7200 C.2   2402  NAD2402     0.4393
     18  N6A       26.3890   13.4250   -6.7770 N.pl3 2402  NAD2402     0.2180
     19  N1A       26.8280   12.6760   -4.6230 N.2   2402  NAD2402     0.0021
     20  C2A       27.6160   12.6140   -3.5640 C.3   2402  NAD2402     0.5254
     21  N3A       28.7950   13.2100   -3.5390 N.2   2402  NAD2402    -0.0055
     22  C4A       29.2290   13.9030   -4.6000 C.2   2402  NAD2402     0.3518
     23  O3        36.0130   19.7540   -3.9450 O.3   2402  NAD2402    -0.2703
     24  PN        36.2560   20.5630   -2.5740 P.3   2402  NAD2402     0.2189
     25  O1N       37.4120   21.4670   -2.7700 O.2   2402  NAD2402    -0.5170
     26  O2N       36.2720   19.6230   -1.4300 O.3   2402  NAD2402    -0.4371
     27  O5D       34.9520   21.5070   -2.4680 O.3   2402  NAD2402    -0.3112
     28  C5D       33.9150   21.2350   -1.5180 C.3   2402  NAD2402     0.1813
     29  C4D       32.8430   22.3330   -1.4520 C.3   2402  NAD2402     0.1799
     30  O4D       33.4880   23.6150   -1.3170 O.3   2402  NAD2402    -0.3327
     31  C3D       31.9610   22.4540   -2.6980 C.3   2402  NAD2402     0.2158
     32  O3D       30.5120   22.8090   -2.4020 O.3   2402  NAD2402    -0.2175
     33  C2D       32.8650   23.3390   -3.5480 C.3   2402  NAD2402     0.2309
     34  O2D       32.1550   23.9090   -4.6510 O.3   2402  NAD2402    -0.2158
     35  C1D       33.1390   24.3930   -2.4750 C.3   2402  NAD2402     0.2263
     36  N1N       34.2210   25.3370   -2.8280 N.pl3 2402  NAD2402    -0.2787
     37  C2N       35.5480   24.8940   -2.7980 C.3   2402  NAD2402     0.1244
     38  C3N       36.5690   25.7810   -3.1230 C.2   2402  NAD2402     0.0544
     39  C7N       38.0190   25.2910   -3.1430 C.2   2402  NAD2402     0.2818
     40  O7N       38.9140   26.0140   -3.5760 O.2   2402  NAD2402    -0.2670
     41  N7N       38.2050   24.0520   -2.6910 N.am  2402  NAD2402    -0.0839
     42  C4N       36.2730   27.0950   -3.4680 C.2   2402  NAD2402     0.0033
     43  C5N       34.9540   27.5370   -3.4970 C.2   2402  NAD2402     0.0157
     44  C6N       33.9230   26.6620   -3.1780 C.2   2402  NAD2402     0.0633
@<TRIPOS>BOND
     1    18    17    1
     2    15    14    1
     3    15    16    2
     4    14    13    1
     5    16    17    1
     6    16    22    1
     7    17    19    2
     8     2     1    2
     9    11    10    1
    10    13    22    1
    11    13    12    1
    12    10    12    1
    13    10     8    1
    14    34    33    1
    15    19    20    1
    16    22    21    2
    17    12     7    1
    18     1    23    1
    19     1     3    1
    20     1     4    1
    21    23    24    1
    22     8     6    1
    23     8     9    1
    24    40    39    2
    25    20    21    1
    26     7     6    1
    27    33    31    1
    28    33    35    1
    29    43    42    1
    30    43    44    2
    31     5     6    1
    32     5     4    1
    33    42    38    2
    34    44    36    1
    35    39    38    1
    36    39    41   am
    37    38    37    1
    38    36    37    1
    39    36    35    1
    40    25    24    2
    41    31    32    1
    42    31    29    1
    43    24    27    1
    44    24    26    1
    45    35    30    1
    46    27    28    1
    47    28    29    1
    48    29    30    1
