@<TRIPOS>MOLECULE
3sxq_HEC_A_1.pdb
 43 50 0 0 0
SMALL
GASTEIGER

@<TRIPOS>ATOM
      1 FE        -29.0460  -10.0980  -46.3870 Fe    1004  HEC1004     0.0000
      2  CHA      -27.7830  -10.9840  -43.3100 C.2   1004  HEC1004     0.0000
      3  CHB      -27.0610  -12.4490  -47.9130 C.2   1004  HEC1004     0.0000
      4  CHC      -30.4460   -9.3530  -49.3780 C.2   1004  HEC1004     0.0000
      5  CHD      -30.7480   -7.4550  -44.9200 C.2   1004  HEC1004     0.0000
      6  NA       -27.6770  -11.4220  -45.7260 N.ar  1004  HEC1004     0.0000
      7  C1A      -27.2820  -11.6370  -44.4100 C.ar  1004  HEC1004     0.0000
      8  C2A      -26.2330  -12.6340  -44.3930 C.ar  1004  HEC1004     0.0000
      9  C3A      -26.0470  -13.0240  -45.6680 C.ar  1004  HEC1004     0.0000
     10  C4A      -26.9450  -12.2830  -46.5290 C.ar  1004  HEC1004     0.0000
     11  CMA      -25.0380  -14.0840  -46.1760 C.3   1004  HEC1004     0.0000
     12  CAA      -25.4880  -13.1880  -43.1350 C.3   1004  HEC1004     0.0000
     13  CBA      -26.3910  -14.2390  -42.4270 C.3   1004  HEC1004     0.0000
     14  CGA      -26.7600  -15.4160  -43.3430 C.2   1004  HEC1004     0.0000
     15  O1A      -25.8840  -16.2660  -43.6740 O.co2 1004  HEC1004     0.0000
     16  O2A      -27.9390  -15.5240  -43.7840 O.co2 1004  HEC1004     0.0000
     17  NB       -28.7650  -10.7750  -48.3360 N.2   1004  HEC1004     0.0000
     18  C1B      -28.0130  -11.8570  -48.7260 C.2   1004  HEC1004     0.0000
     19  C2B      -28.4150  -12.2400  -50.0880 C.2   1004  HEC1004     0.0000
     20  C3B      -29.3490  -11.3550  -50.5070 C.2   1004  HEC1004     0.0000
     21  C4B      -29.5940  -10.4400  -49.3770 C.2   1004  HEC1004     0.0000
     22  CMB      -27.7290  -13.3980  -50.8550 C.3   1004  HEC1004     0.0000
     23  CAB      -30.1190  -11.2280  -51.8760 C.3   1004  HEC1004     0.0000
     24  CBB      -30.7440  -12.6070  -52.2240 C.3   1004  HEC1004     0.0000
     25  NC       -30.3570   -8.6850  -47.0050 N.ar  1004  HEC1004     0.0000
     26  C1C      -30.7650   -8.5260  -48.3180 C.ar  1004  HEC1004     0.0000
     27  C2C      -31.7510   -7.4620  -48.3730 C.ar  1004  HEC1004     0.0000
     28  C3C      -31.7340   -6.8290  -47.1720 C.ar  1004  HEC1004     0.0000
     29  C4C      -30.9250   -7.6610  -46.2740 C.ar  1004  HEC1004     0.0000
     30  CMC      -32.2260   -6.8570  -49.7340 C.3   1004  HEC1004     0.0000
     31  CAC      -32.4400   -5.4980  -46.7860 C.3   1004  HEC1004     0.0000
     32  CBC      -33.9930   -5.4940  -46.9320 C.3   1004  HEC1004     0.0000
     33  ND       -29.2270   -9.3410  -44.4880 N.2   1004  HEC1004     0.0000
     34  C1D      -30.0320   -8.2740  -44.0950 C.2   1004  HEC1004     0.0000
     35  C2D      -29.9930   -8.1270  -42.6620 C.2   1004  HEC1004     0.0000
     36  C3D      -29.0810   -9.2240  -42.1730 C.2   1004  HEC1004     0.0000
     37  C4D      -28.6530   -9.9270  -43.3470 C.2   1004  HEC1004     0.0000
     38  CMD      -30.7320   -7.0430  -41.8390 C.3   1004  HEC1004     0.0000
     39  CAD      -28.7240   -9.5060  -40.7030 C.3   1004  HEC1004     0.0000
     40  CBD      -29.9340  -10.1820  -40.0490 C.3   1004  HEC1004     0.0000
     41  CGD      -30.0830  -11.6650  -40.3920 C.2   1004  HEC1004     0.0000
     42  O1D      -29.1540  -12.3200  -40.9110 O.co2 1004  HEC1004     0.0000
     43  O2D      -31.1810  -12.2200  -40.1200 O.co2 1004  HEC1004     0.0000
@<TRIPOS>BOND
     1    24    23    1
     2    23    20    1
     3    22    19    1
     4    20    19    2
     5    20    21    1
     6    19    18    1
     7    30    27    1
     8     4    21    2
     9     4    26    1
    10    21    17    1
    11    18    17    2
    12    18     3    1
    13    27    26   ar
    14    27    28   ar
    15    17     1    1
    16    26    25   ar
    17     3    10    2
    18    28    31    1
    19    28    29   ar
    20    25     1    1
    21    25    29   ar
    22    32    31    1
    23    10     6   ar
    24    10     9   ar
    25     1     6    1
    26     1    33    1
    27    29     5    1
    28    11     9    1
    29     6     7   ar
    30     9     8   ar
    31     5    34    2
    32    33    34    1
    33    33    37    2
    34     7     8   ar
    35     7     2    2
    36     8    12    1
    37    34    35    1
    38    16    14   ar
    39    15    14   ar
    40    37     2    1
    41    37    36    1
    42    14    13    1
    43    12    13    1
    44    35    36    2
    45    35    38    1
    46    36    39    1
    47    42    41   ar
    48    39    40    1
    49    41    43   ar
    50    41    40    1
