@<TRIPOS>MOLECULE
3sxr_1N1_A_1.pdb
 33 36 0 0 0
SMALL
GASTEIGER

@<TRIPOS>ATOM
      1  C1         9.6270   -3.3700   21.2490 C.ar    1  1N11        0.1120
      2  C2         9.0480   -2.5850   22.2060 C.ar    1  1N11        0.1065
      3  C3         8.7330   -1.1460   22.3080 C.2     1  1N11        0.2766
      4  N6         8.7250  -12.1230   27.8600 N.3     1  1N11       -0.2675
      5  C7         8.7700    3.7790   21.1190 C.ar    1  1N11        0.0006
      6  C8         9.9040    3.1180   21.5880 C.ar    1  1N11       -0.0029
      7  C9         9.9660    1.7200   21.6530 C.ar    1  1N11       -0.0057
      8  C10       11.1920    1.0330   22.2020 C.3     1  1N11        0.0324
      9  C11        8.7740   -6.6020   24.5960 C.2     1  1N11        0.2025
     10  C12        8.7200   -7.9490   24.9360 C.3     1  1N11        0.1532
     11  C13        8.2810   -8.2400   26.2380 C.2     1  1N11        0.1809
     12  C14        8.0280   -6.0070   26.6660 C.1     1  1N11        0.1168
     13  C15        7.6210   -4.9270   27.6180 C.3     1  1N11        0.1429
     14  C16        8.4390  -10.7170   25.8770 C.3     1  1N11        0.1102
     15  C19        7.7330   -9.8840   28.0620 C.3     1  1N11        0.1102
     16  C20        9.5150  -13.1870   28.5060 C.3     1  1N11        0.1082
     17  C21        9.2210  -14.5960   27.9870 C.3     1  1N11        0.1993
     18  N          9.1080   -6.1900   23.2950 N.pl3   1  1N11       -0.1613
     19  C          9.1700   -4.9460   22.7540 C.ar    1  1N11        0.1855
     20  N1         9.6670   -4.7000   21.5740 N.ar    1  1N11       -0.2208
     21  S          8.5690   -3.5340   23.5660 S.2     1  1N11       -0.0450
     22  N2         8.9270   -0.4270   21.1810 N.am    1  1N11       -0.1744
     23  C4         8.8540    0.9930   21.2050 C.ar    1  1N11        0.0802
     24  C5         7.7210    1.6690   20.7390 C.ar    1  1N11        0.0726
     25  C6         7.6690    3.0550   20.6960 C.ar    1  1N11        0.0127
     26 CL          6.3680    0.7580   20.1270 Cl      1  1N11       -0.0809
     27  O          8.2660   -0.6860   23.3430 O.2     1  1N11       -0.2674
     28  N3         7.9150   -7.2720   27.0860 N.2     1  1N11       -0.3326
     29  N4         8.4630   -5.6290   25.4600 N.2     1  1N11       -0.3308
     30  N5         8.2440   -9.5400   26.7290 N.pl3   1  1N11       -0.2831
     31  C17        9.3210  -11.7210   26.5800 C.3     1  1N11        0.0939
     32  C18        8.6000  -10.9440   28.7230 C.3     1  1N11        0.0939
     33  O1        10.4130  -15.4220   27.9020 O.3     1  1N11       -0.2189
@<TRIPOS>BOND
     1    26    24    1
     2    25    24   ar
     3    25     5   ar
     4    24    23   ar
     5     5     6   ar
     6    22    23    1
     7    22     3   am
     8    23     7   ar
     9     1    20   ar
    10     1     2   ar
    11    20    19   ar
    12     6     7   ar
    13     7     8    1
    14     2     3    1
    15     2    21   ar
    16     3    27    2
    17    19    18    1
    18    19    21   ar
    19    18     9    1
    20     9    10    1
    21     9    29    2
    22    10    11    1
    23    29    12    2
    24    14    31    1
    25    14    30    1
    26    11    30    1
    27    11    28    2
    28    31     4    1
    29    12    28    2
    30    12    13    1
    31    30    15    1
    32     4    16    1
    33     4    32    1
    34    33    17    1
    35    17    16    1
    36    15    32    1
