@<TRIPOS>MOLECULE
3sxs_PP2_A_1.pdb
 21 23 0 0 0
SMALL
GASTEIGER

@<TRIPOS>ATOM
      1  C1        20.7650   20.5070   17.6960 C.2     1  PP21        0.3404
      2  N2        21.2770   21.7980   17.7410 N.2     1  PP21       -0.0088
      3  C3        21.9630   22.0750   16.6210 C.3     1  PP21        0.5248
      4  N4        22.2310   21.2700   15.5570 N.2     1  PP21       -0.0027
      5  C5        21.7030   20.0160   15.5110 C.2     1  PP21        0.4081
      6  C6        20.9670   19.5370   16.6740 C.3     1  PP21        0.2639
      7  C8        20.2430   18.3900   17.0380 C.2     1  PP21        0.1226
      8  N9        19.7170   18.6050   18.2290 N.2     1  PP21       -0.0915
      9  N10       19.9880   19.8740   18.6930 N.pl3   1  PP21       -0.0877
     10  C11       20.2280   17.0190   16.3950 C.ar    1  PP21        0.0182
     11  C12       18.9600   16.4390   16.1420 C.ar    1  PP21        0.0022
     12  C13       18.8710   15.1390   15.6260 C.ar    1  PP21        0.0114
     13  C14       20.0450   14.3990   15.4550 C.ar    1  PP21        0.0577
     14  C15       21.3080   14.9150   15.7310 C.ar    1  PP21        0.0114
     15  C16       21.3690   16.2200   16.2230 C.ar    1  PP21        0.0022
     16  C22       19.5180   20.4900   19.9740 C.3     1  PP21        0.1509
     17  C23       18.6900   21.7690   19.7300 C.3     1  PP21        0.0491
     18  C24       20.7920   20.7680   20.7850 C.3     1  PP21        0.0491
     19  C25       18.6150   19.4780   20.7110 C.3     1  PP21        0.0491
     20  N25       21.8540   19.2320   14.4220 N.pl3   1  PP21        0.2118
     21 CL         19.9590   12.7680   14.8570 Cl      1  PP21       -0.0822
@<TRIPOS>BOND
     1    20     5    1
     2    21    13    1
     3    13    12   ar
     4    13    14   ar
     5     5     4    2
     6     5     6    1
     7     4     3    1
     8    12    11   ar
     9    14    15   ar
    10    11    10   ar
    11    15    10   ar
    12    10     7    1
    13     3     2    1
    14     6     7    1
    15     6     1    1
    16     7     8    2
    17     1     2    2
    18     1     9    1
    19     8     9    1
    20     9    16    1
    21    17    16    1
    22    16    19    1
    23    16    18    1
