@<TRIPOS>MOLECULE
3sxt_HEC_A_1.pdb
 43 50 0 0 0
SMALL
GASTEIGER

@<TRIPOS>ATOM
      1 FE         19.2260  -11.6000  -14.5010 Fe    404  HEC404      0.0000
      2  CHA       19.7580  -10.0030  -11.5150 C.2   404  HEC404      0.0000
      3  CHB       17.6400   -8.7850  -15.7790 C.2   404  HEC404      0.0000
      4  CHC       19.6180  -12.8380  -17.6410 C.2   404  HEC404      0.0000
      5  CHD       20.3720  -14.5270  -13.1650 C.2   404  HEC404      0.0000
      6  NA        18.6880   -9.7570  -13.7370 N.ar  404  HEC404      0.0000
      7  C1A       18.9960   -9.2520  -12.5330 C.ar  404  HEC404      0.0000
      8  C2A       18.4480   -7.8950  -12.3300 C.ar  404  HEC404      0.0000
      9  C3A       17.8690   -7.5590  -13.5430 C.ar  404  HEC404      0.0000
     10  C4A       18.0780   -8.7480  -14.3750 C.ar  404  HEC404      0.0000
     11  CMA       17.1450   -6.3400  -14.0220 C.3   404  HEC404      0.0000
     12  CAA       18.5070   -7.0570  -11.0820 C.3   404  HEC404      0.0000
     13  CBA       17.1590   -7.1970  -10.3460 C.3   404  HEC404      0.0000
     14  CGA       17.3180   -6.7310   -8.9050 C.2   404  HEC404      0.0000
     15  O1A       16.3280   -6.7900   -8.1580 O.co2 404  HEC404      0.0000
     16  O2A       18.3850   -6.3050   -8.4750 O.co2 404  HEC404      0.0000
     17  NB        18.6320  -10.9580  -16.3790 N.2   404  HEC404      0.0000
     18  C1B       18.1680   -9.7890  -16.7490 C.2   404  HEC404      0.0000
     19  C2B       18.0230   -9.6640  -18.2180 C.2   404  HEC404      0.0000
     20  C3B       18.6020  -10.8400  -18.7500 C.2   404  HEC404      0.0000
     21  C4B       19.0220  -11.5370  -17.5410 C.2   404  HEC404      0.0000
     22  CMB       17.4050   -8.4770  -18.9100 C.3   404  HEC404      0.0000
     23  CAB       18.8160  -11.3480  -20.1850 C.3   404  HEC404      0.0000
     24  CBB       19.6810  -10.2920  -20.8310 C.3   404  HEC404      0.0000
     25  NC        19.8730  -13.3800  -15.2930 N.ar  404  HEC404      0.0000
     26  C1C       19.9630  -13.7520  -16.5750 C.ar  404  HEC404      0.0000
     27  C2C       20.3710  -15.1590  -16.7910 C.ar  404  HEC404      0.0000
     28  C3C       20.5740  -15.6050  -15.4880 C.ar  404  HEC404      0.0000
     29  C4C       20.2810  -14.4790  -14.6280 C.ar  404  HEC404      0.0000
     30  CMC       20.5410  -15.9200  -18.1310 C.3   404  HEC404      0.0000
     31  CAC       20.9420  -16.9750  -14.9120 C.3   404  HEC404      0.0000
     32  CBC       22.1280  -17.6230  -15.4990 C.3   404  HEC404      0.0000
     33  ND        19.9290  -12.1850  -12.6570 N.2   404  HEC404      0.0000
     34  C1D       20.4840  -13.3390  -12.2930 C.2   404  HEC404      0.0000
     35  C2D       21.0410  -13.3200  -10.9290 C.2   404  HEC404      0.0000
     36  C3D       20.8780  -12.0090  -10.5030 C.2   404  HEC404      0.0000
     37  C4D       20.2150  -11.3590  -11.6250 C.2   404  HEC404      0.0000
     38  CMD       21.6970  -14.4490  -10.1550 C.3   404  HEC404      0.0000
     39  CAD       21.3060  -11.4080   -9.2120 C.3   404  HEC404      0.0000
     40  CBD       22.7880  -11.1070   -9.5290 C.3   404  HEC404      0.0000
     41  CGD       23.4690  -10.1660   -8.5520 C.2   404  HEC404      0.0000
     42  O1D       24.7050  -10.0430   -8.6060 O.co2 404  HEC404      0.0000
     43  O2D       22.8030   -9.4770   -7.7400 O.co2 404  HEC404      0.0000
@<TRIPOS>BOND
     1    24    23    1
     2    23    20    1
     3    22    19    1
     4    20    19    2
     5    20    21    1
     6    19    18    1
     7    30    27    1
     8     4    21    2
     9     4    26    1
    10    21    17    1
    11    27    26   ar
    12    27    28   ar
    13    18    17    2
    14    18     3    1
    15    26    25   ar
    16    17     1    1
    17     3    10    2
    18    32    31    1
    19    28    31    1
    20    28    29   ar
    21    25    29   ar
    22    25     1    1
    23    29     5    1
    24     1     6    1
    25     1    33    1
    26    10     6   ar
    27    10     9   ar
    28    11     9    1
    29     6     7   ar
    30     9     8   ar
    31     5    34    2
    32    33    34    1
    33    33    37    2
    34     7     8   ar
    35     7     2    2
    36     8    12    1
    37    34    35    1
    38    37     2    1
    39    37    36    1
    40    12    13    1
    41    35    36    2
    42    35    38    1
    43    36    39    1
    44    13    14    1
    45    40    39    1
    46    40    41    1
    47    14    16   ar
    48    14    15   ar
    49    42    41   ar
    50    41    43   ar
