@<TRIPOS>MOLECULE
3sxu_III_C_1.pdb
 35 36 0 0 0
SMALL
GASTEIGER

@<TRIPOS>ATOM
      1  N        -69.9860  -10.5510   27.8900 N.3   174  ASP174     -0.1225
      2  CA       -71.1330   -9.9480   27.1460 C.3   174  ASP174      0.1805
      3  C        -70.7570   -9.6830   25.6920 C.2   174  ASP174      0.2598
      4  O        -69.7560   -9.0160   25.4100 O.2   174  ASP174     -0.2718
      5  CB       -71.5970   -8.6500   27.8210 C.3   174  ASP174      0.1424
      6  CG       -71.9740   -8.8480   29.2810 C.2   174  ASP174      0.3668
      7  OD1      -71.4370   -9.7770   29.9250 O.co2 174  ASP174     -0.2456
      8  OD2      -72.8080   -8.0680   29.7890 O.co2 174  ASP174     -0.2456
      9  N        -71.5670  -10.2150   24.7780 N.am  175  ILE175     -0.1966
     10  CA       -71.3210  -10.1010   23.3390 C.3   175  ILE175      0.1712
     11  C        -71.8220   -8.7490   22.8190 C.2   175  ILE175      0.2458
     12  O        -73.0160   -8.4510   22.9230 O.2   175  ILE175     -0.2730
     13  CB       -71.9790  -11.2710   22.5600 C.3   175  ILE175      0.0289
     14  CG1      -71.4390  -12.6170   23.0630 C.3   175  ILE175      0.0022
     15  CG2      -71.7430  -11.1210   21.0600 C.3   175  ILE175      0.0023
     16  CD1      -72.3350  -13.8070   22.7650 C.3   175  ILE175      0.0001
     17  N        -70.9070   -7.9270   22.2580 N.am  176  PRO176     -0.2716
     18  CA       -71.2280   -6.5640   21.8190 C.3   176  PRO176      0.1536
     19  C        -71.8160   -6.4640   20.4020 C.2   176  PRO176      0.2599
     20  O        -71.7090   -5.4130   19.7620 O.2   176  PRO176     -0.2715
     21  CB       -69.8710   -5.8380   21.8970 C.3   176  PRO176      0.0310
     22  CG       -68.8410   -6.8930   22.2680 C.3   176  PRO176      0.0237
     23  CD       -69.4790   -8.2250   22.0650 C.3   176  PRO176      0.0939
     24  N        -72.4350   -7.5430   19.9260 N.am  177  PHE177     -0.1938
     25  CA       -73.1260   -7.5410   18.6320 C.3   177  PHE177      0.2021
     26  C        -74.3070   -8.5110   18.6090 C.2   177  PHE177      0.3845
     27  O        -74.4510   -9.3670   19.4830 O.co2 177  PHE177     -0.2437
     28  CB       -72.1570   -7.8200   17.4660 C.3   177  PHE177      0.0596
     29  CG       -71.2870   -9.0340   17.6630 C.ar  177  PHE177     -0.0199
     30  CD1      -71.7450  -10.3040   17.3150 C.ar  177  PHE177     -0.0042
     31  CD2      -70.0000   -8.9050   18.1810 C.ar  177  PHE177     -0.0042
     32  CE1      -70.9390  -11.4300   17.4930 C.ar  177  PHE177     -0.0003
     33  CE2      -69.1850  -10.0230   18.3620 C.ar  177  PHE177     -0.0003
     34  CZ       -69.6570  -11.2890   18.0170 C.ar  177  PHE177     -0.0000
     35  OXT      -75.1510   -8.4600   17.7130 O.co2 177  PHE177     -0.2437
@<TRIPOS>BOND
     1    30    32   ar
     2    30    29   ar
     3    28    29    1
     4    28    25    1
     5    32    34   ar
     6    29    31   ar
     7    35    26   ar
     8    34    33   ar
     9    31    33   ar
    10    26    25    1
    11    26    27   ar
    12    25    24    1
    13    20    19    2
    14    24    19   am
    15    19    18    1
    16    15    13    1
    17    18    21    1
    18    18    17    1
    19    21    22    1
    20    23    17    1
    21    23    22    1
    22    17    11   am
    23    13    14    1
    24    13    10    1
    25    16    14    1
    26    11    12    2
    27    11    10    1
    28    10     9    1
    29     9     3   am
    30     4     3    2
    31     3     2    1
    32     2     5    1
    33     2     1    1
    34     5     6    1
    35     6     8   ar
    36     6     7   ar
