@<TRIPOS>MOLECULE
3sxv_HEM_A_1.pdb
 43 50 0 0 0
SMALL
GASTEIGER

@<TRIPOS>ATOM
      1  CHA        8.7340   -0.0300   29.2030 C.2   618  HEM618      0.0000
      2  CHB        9.1410    4.7660   28.9420 C.2   618  HEM618      0.0000
      3  CHC       11.0280    4.4210   24.5360 C.2   618  HEM618      0.0000
      4  CHD       10.7710   -0.4000   24.8070 C.2   618  HEM618      0.0000
      5  C1A        8.6820    1.2940   29.5340 C.2   618  HEM618      0.0000
      6  C2A        8.1720    1.8100   30.7780 C.2   618  HEM618      0.0000
      7  C3A        8.2760    3.1340   30.7250 C.2   618  HEM618      0.0000
      8  C4A        8.8530    3.5000   29.4280 C.2   618  HEM618      0.0000
      9  CMA        7.8360    4.0840   31.8650 C.3   618  HEM618      0.0000
     10  CAA        7.6060    0.9630   31.9500 C.3   618  HEM618      0.0000
     11  CBA        8.7380    0.5930   32.9030 C.3   618  HEM618      0.0000
     12  CGA        8.2910   -0.4090   33.9410 C.2   618  HEM618      0.0000
     13  O1A        7.3880   -0.0950   34.7560 O.co2 618  HEM618      0.0000
     14  O2A        8.8660   -1.5280   33.9750 O.co2 618  HEM618      0.0000
     15  C1B        9.6370    5.1180   27.6940 C.ar  618  HEM618      0.0000
     16  C2B        9.7510    6.4460   27.1240 C.ar  618  HEM618      0.0000
     17  C3B       10.2600    6.3560   25.8910 C.ar  618  HEM618      0.0000
     18  C4B       10.4930    4.9560   25.6620 C.ar  618  HEM618      0.0000
     19  CMB        9.3480    7.7490   27.8380 C.3   618  HEM618      0.0000
     20  CAB       10.5770    7.4810   24.8730 C.2   618  HEM618      0.0000
     21  CBB       10.7000    8.7680   25.2500 C.2   618  HEM618      0.0000
     22  C1C       11.1280    3.0810   24.2530 C.2   618  HEM618      0.0000
     23  C2C       11.7060    2.5630   23.0470 C.2   618  HEM618      0.0000
     24  C3C       11.6480    1.2320   23.1030 C.2   618  HEM618      0.0000
     25  C4C       11.0200    0.8820   24.3620 C.2   618  HEM618      0.0000
     26  CMC       12.3000    3.4510   21.9300 C.3   618  HEM618      0.0000
     27  CAC       12.1260    0.1990   22.0530 C.2   618  HEM618      0.0000
     28  CBC       12.7620    0.4860   20.9060 C.2   618  HEM618      0.0000
     29  C1D       10.1320   -0.7540   25.9730 C.ar  618  HEM618      0.0000
     30  C2D        9.6690   -2.0830   26.3190 C.ar  618  HEM618      0.0000
     31  C3D        9.0390   -1.9630   27.6800 C.ar  618  HEM618      0.0000
     32  C4D        9.1640   -0.5660   28.0240 C.ar  618  HEM618      0.0000
     33  CMD        9.7640   -3.4090   25.5480 C.3   618  HEM618      0.0000
     34  CAD        8.3780   -3.1200   28.4600 C.3   618  HEM618      0.0000
     35  CBD        6.9060   -3.1400   28.0130 C.3   618  HEM618      0.0000
     36  CGD        6.1860   -4.3100   28.6250 C.2   618  HEM618      0.0000
     37  O1D        6.2720   -5.4360   28.0630 O.co2 618  HEM618      0.0000
     38  O2D        5.5270   -4.1170   29.6730 O.co2 618  HEM618      0.0000
     39  NA         9.0860    2.3340   28.7290 N.2   618  HEM618      0.0000
     40  NB        10.1010    4.2470   26.7590 N.ar  618  HEM618      0.0000
     41  NC        10.7190    2.0360   25.0440 N.2   618  HEM618      0.0000
     42  ND         9.8070    0.1010   27.0110 N.ar  618  HEM618      0.0000
     43 FE         10.0090    2.1800   26.9320 Fe    618  HEM618      0.0000
@<TRIPOS>BOND
     1    28    27    2
     2    26    23    1
     3    27    24    1
     4    23    24    2
     5    23    22    1
     6    24    25    1
     7    22     3    2
     8    22    41    1
     9    25     4    1
    10    25    41    2
    11     3    18    1
    12     4    29    2
    13    20    21    2
    14    20    17    1
    15    41    43    1
    16    33    30    1
    17    18    17   ar
    18    18    40   ar
    19    17    16   ar
    20    29    30   ar
    21    29    42   ar
    22    30    31   ar
    23    40    43    1
    24    40    15   ar
    25    43    42    1
    26    43    39    1
    27    42    32   ar
    28    16    15   ar
    29    16    19    1
    30    31    32   ar
    31    31    34    1
    32    15     2    1
    33    35    34    1
    34    35    36    1
    35    32     1    2
    36    37    36   ar
    37    36    38   ar
    38    39     8    1
    39    39     5    2
    40     2     8    2
    41     1     5    1
    42     8     7    1
    43     5     6    1
    44     7     6    2
    45     7     9    1
    46     6    10    1
    47    10    11    1
    48    11    12    1
    49    12    14   ar
    50    12    13   ar
