@<TRIPOS>MOLECULE
3sy5_UP6_A_1.pdb
 21 22 0 0 0
SMALL
GASTEIGER

@<TRIPOS>ATOM
      1  N1        18.9610    0.0820    8.6750 N.am  229  UP6229     -0.0968
      2  C2        19.1580   -0.5870    7.5230 C.1   229  UP6229      0.3005
      3  N3        18.2890   -0.4860    6.4950 N.2   229  UP6229     -0.2426
      4  C4        17.2260    0.3350    6.6010 C.1   229  UP6229      0.2380
      5  C5        17.0210    1.0850    7.8340 C.2   229  UP6229      0.2253
      6  N6        17.8760    0.9530    8.8000 N.2   229  UP6229     -0.1496
      7  O2        20.1090   -1.3380    7.4090 O.2   229  UP6229     -0.1905
      8  O4        16.4190    0.4710    5.7020 O.2   229  UP6229     -0.2069
      9  C1'       19.9160    0.0150    9.7860 C.3   229  UP6229      0.2577
     10  C2'       20.1590   -1.3880   10.3370 C.3   229  UP6229      0.2334
     11  C3'       21.5800   -1.2600   10.8740 C.3   229  UP6229      0.2159
     12  C4'       22.2340   -0.3120    9.8750 C.3   229  UP6229      0.1801
     13  O2'       19.2050   -1.7370   11.3190 O.3   229  UP6229     -0.2157
     14  O3'       21.5390   -0.6390   12.1580 O.3   229  UP6229     -0.2175
     15  O4'       21.1660    0.4790    9.3070 O.3   229  UP6229     -0.3309
     16  C5'       23.0010   -0.9790    8.7630 C.3   229  UP6229      0.1859
     17  O5'       24.0650   -1.7550    9.2880 O.3   229  UP6229     -0.2675
     18  P         25.0980   -2.5200    8.3390 P.3   229  UP6229      0.5327
     19  O1P       24.3740   -3.2180    7.2570 O.2   229  UP6229     -0.2224
     20  O2P       26.1050   -3.3620    9.2380 O.3   229  UP6229     -0.1145
     21  O3P       25.9880   -1.3670    7.6720 O.3   229  UP6229     -0.1145
@<TRIPOS>BOND
     1     8     4    2
     2     3     4    2
     3     3     2    2
     4     4     5    1
     5    19    18    2
     6     7     2    2
     7     2     1   am
     8    21    18    1
     9     5     6    2
    10    18    20    1
    11    18    17    1
    12     1     6    1
    13     1     9    1
    14    16    17    1
    15    16    12    1
    16    15     9    1
    17    15    12    1
    18     9    10    1
    19    12    11    1
    20    10    11    1
    21    10    13    1
    22    11    14    1
