@<TRIPOS>MOLECULE
3sy9_C8E_A_1.pdb
 14 13 0 0 0
SMALL
GASTEIGER

@<TRIPOS>ATOM
      1  C8        -2.9020   -0.7930   -6.7250 C.3   501  C8E501      0.1742
      2  O9        -1.5370   -0.4750   -6.5100 O.3   501  C8E501     -0.3484
      3  C10       -1.1250    0.7880   -7.0360 C.3   501  C8E501      0.1742
      4  C11        0.3810    0.8060   -7.3460 C.3   501  C8E501      0.1742
      5  O12        0.9680    2.0990   -7.2810 O.3   501  C8E501     -0.3484
      6  C13        2.0570    2.2110   -6.3670 C.3   501  C8E501      0.1742
      7  C14        1.8780    3.3740   -5.3760 C.3   501  C8E501      0.1742
      8  O15        1.7830    2.9640   -4.0140 O.3   501  C8E501     -0.3484
      9  C16        0.5880    3.3760   -3.3530 C.3   501  C8E501      0.1742
     10  C17       -0.5710    2.3760   -3.5200 C.3   501  C8E501      0.1742
     11  O18       -1.8200    2.9010   -3.0820 O.3   501  C8E501     -0.3483
     12  C19       -2.8480    2.8740   -4.0620 C.3   501  C8E501      0.1777
     13  C20       -4.2230    2.9970   -3.4010 C.3   501  C8E501      0.2140
     14  O21       -5.2770    2.8050   -4.3260 O.3   501  C8E501     -0.2176
@<TRIPOS>BOND
     1     4     5    1
     2     4     3    1
     3     5     6    1
     4     3     2    1
     5     1     2    1
     6     6     7    1
     7     7     8    1
     8    14    13    1
     9    12    13    1
    10    12    11    1
    11     8     9    1
    12    10     9    1
    13    10    11    1
