@<TRIPOS>MOLECULE
3sya_PIO_A_1.pdb
 31 31 0 0 0
SMALL
GASTEIGER

@<TRIPOS>ATOM
      1  C1        15.3420  -26.3530  -48.6630 C.3   400  PIO400      0.1873
      2  C2        15.7350  -25.3200  -47.5940 C.3   400  PIO400      0.2146
      3  C3        14.8310  -25.4010  -46.3550 C.3   400  PIO400      0.2146
      4  C4        14.8880  -26.8070  -45.7530 C.3   400  PIO400      0.1892
      5  C5        14.3730  -27.8120  -46.7820 C.3   400  PIO400      0.1891
      6  C6        15.2080  -27.7650  -48.0680 C.3   400  PIO400      0.2119
      7  O1        16.3430  -26.3990  -49.6890 O.3   400  PIO400     -0.3111
      8  O2        17.1090  -25.5020  -47.2080 O.3   400  PIO400     -0.2176
      9  O3        15.2300  -24.4340  -45.3770 O.3   400  PIO400     -0.2176
     10  O4        14.1580  -26.9010  -44.5230 O.3   400  PIO400     -0.2674
     11  O5        14.4260  -29.1280  -46.2310 O.3   400  PIO400     -0.2674
     12  O6        14.6340  -28.6510  -49.0370 O.3   400  PIO400     -0.2177
     13  P1        16.2090  -25.8500  -51.2100 P.3   400  PIO400      0.2141
     14  O11       17.0540  -26.7670  -52.0640 O.2   400  PIO400     -0.5172
     15  O12       16.5320  -24.3760  -51.1820 O.3   400  PIO400     -0.4373
     16  O13       14.6590  -26.0210  -51.6540 O.3   400  PIO400     -0.3114
     17  P4        14.9060  -27.0780  -43.0950 P.3   400  PIO400      0.5327
     18  O41       13.8310  -27.5940  -42.1700 O.3   400  PIO400     -0.1145
     19  O42       16.0160  -28.0780  -43.3210 O.2   400  PIO400     -0.2224
     20  O43       15.3850  -25.6820  -42.7730 O.3   400  PIO400     -0.1145
     21  P5        13.0980  -29.8900  -45.7300 P.3   400  PIO400      0.5327
     22  O53       11.9630  -29.2260  -46.4820 O.2   400  PIO400     -0.2224
     23  O52       13.0860  -29.6550  -44.2390 O.3   400  PIO400     -0.1145
     24  O51       13.3470  -31.3290  -46.1160 O.3   400  PIO400     -0.1145
     25  C1C       13.9790  -25.0250  -52.4340 C.3   400  PIO400      0.1811
     26  C2C       13.5760  -25.5010  -53.8390 C.3   400  PIO400      0.1747
     27  C3C       14.7660  -26.0900  -54.6100 C.3   400  PIO400      0.1742
     28  O2C       12.5060  -26.4500  -53.7480 O.3   400  PIO400     -0.3484
     29  O3C       15.5570  -25.0680  -55.2260 O.3   400  PIO400     -0.3484
     30  C1A       11.4530  -26.2380  -54.7310 C.3   400  PIO400      0.1742
     31  C1B       16.7590  -25.4070  -55.9750 C.3   400  PIO400      0.1742
@<TRIPOS>BOND
     1    31    29    1
     2    29    27    1
     3    30    28    1
     4    27    26    1
     5    26    28    1
     6    26    25    1
     7    25    16    1
     8    14    13    2
     9    16    13    1
    10    13    15    1
    11    13     7    1
    12     7     1    1
    13    12     6    1
    14     1     6    1
    15     1     2    1
    16     6     5    1
    17     2     8    1
    18     2     3    1
    19     5    11    1
    20     5     4    1
    21    22    21    2
    22     3     4    1
    23     3     9    1
    24    11    21    1
    25    24    21    1
    26     4    10    1
    27    21    23    1
    28    10    17    1
    29    19    17    2
    30    17    20    1
    31    17    18    1
