@<TRIPOS>MOLECULE
3sym_GP0_A_1.pdb
 22 23 0 0 0
SMALL
GASTEIGER

@<TRIPOS>ATOM
      1  C1        35.4460   23.6790   28.5790 C.2   843  GP0843      0.1222
      2  F1        37.5560   24.4340   29.2400 F     843  GP0843     -0.1891
      3  N1        34.0590   23.5780   28.8140 N.am  843  GP0843     -0.1744
      4  C2        36.2410   24.3630   29.4830 C.2   843  GP0843      0.2499
      5  C3        35.6780   24.9610   30.6270 C.1   843  GP0843      0.2454
      6  O3        36.3660   25.5960   31.4320 O.2   843  GP0843     -0.2062
      7  N4        34.3020   24.8610   30.8630 N.2   843  GP0843     -0.2430
      8  C5        33.4920   24.1670   29.9630 C.1   843  GP0843      0.2846
      9  O5        32.2870   24.0740   30.1940 O.2   843  GP0843     -0.1918
     10  C1'       33.1880   22.8650   27.8630 C.3   843  GP0843      0.2401
     11  C2'       33.5520   23.1870   26.3850 C.3   843  GP0843      0.2320
     12  O2'       33.7100   24.5930   26.1930 O.3   843  GP0843     -0.2157
     13  C3'       32.4960   22.5890   25.4140 C.3   843  GP0843      0.2190
     14  O3'       32.9720   22.5240   24.0760 O.3   843  GP0843     -0.2174
     15  C4'       32.2110   21.1210   25.8210 C.3   843  GP0843      0.2144
     16  O4'       31.0840   20.6420   25.0890 O.3   843  GP0843     -0.2176
     17  C5'       32.0420   20.8900   27.3480 C.3   843  GP0843      0.1828
     18  O5'       33.1610   21.4250   28.0870 O.3   843  GP0843     -0.3318
     19  C6'       32.0070   19.4220   27.7640 C.3   843  GP0843      0.2142
     20  O6'       33.1240   18.7230   27.2370 O.3   843  GP0843     -0.2176
     21  C7'       31.2510   23.5010   25.4080 C.3   843  GP0843      0.2176
     22  O7'       30.5590   23.7770   26.6240 O.3   843  GP0843     -0.2175
@<TRIPOS>BOND
     1    14    13    1
     2    16    15    1
     3    21    13    1
     4    21    22    1
     5    13    15    1
     6    13    11    1
     7    15    17    1
     8    12    11    1
     9    11    10    1
    10    20    19    1
    11    17    19    1
    12    17    18    1
    13    10    18    1
    14    10     3    1
    15     1     3    1
    16     1     4    2
    17     3     8   am
    18     2     4    1
    19     4     5    1
    20     8     9    2
    21     8     7    2
    22     5     7    2
    23     5     6    2
