@<TRIPOS>MOLECULE
3syn_GDP_A_1.pdb
 28 30 0 0 0
SMALL
GASTEIGER

@<TRIPOS>ATOM
      1  PB        -8.3700   -3.7320   -4.1540 P.3     1  GDP1        0.5373
      2  O1B       -7.9650   -2.3330   -4.4950 O.3     1  GDP1       -0.1143
      3  O2B       -7.6890   -4.6460   -5.1220 O.2     1  GDP1       -0.2221
      4  O3B       -7.8820   -3.9850   -2.7480 O.3     1  GDP1       -0.1143
      5  O3A       -9.9740   -4.0080   -4.2780 O.3     1  GDP1       -0.2261
      6  PA       -11.0240   -4.0500   -3.0230 P.3     1  GDP1        0.2231
      7  O1A      -10.6710   -5.1620   -2.0580 O.3     1  GDP1       -0.4370
      8  O2A      -11.1350   -2.7210   -2.3250 O.2     1  GDP1       -0.5169
      9  O5'      -12.4450   -4.3300   -3.6950 O.3     1  GDP1       -0.3111
     10  C5'      -13.1850   -3.3080   -4.3460 C.3     1  GDP1        0.1813
     11  C4'      -14.6150   -3.8090   -4.5340 C.3     1  GDP1        0.1799
     12  O4'      -14.6590   -5.1000   -5.1700 O.3     1  GDP1       -0.3326
     13  C3'      -15.2710   -3.9880   -3.1770 C.3     1  GDP1        0.2158
     14  O3'      -16.6450   -3.6140   -3.2880 O.3     1  GDP1       -0.2175
     15  C2'      -15.2130   -5.4740   -2.9460 C.3     1  GDP1        0.2310
     16  O2'      -16.2060   -5.8650   -1.9940 O.3     1  GDP1       -0.2158
     17  C1'      -15.4650   -5.9700   -4.3630 C.3     1  GDP1        0.2293
     18  N9       -15.1310   -7.4070   -4.5370 N.pl3   1  GDP1       -0.2354
     19  C8       -14.0340   -8.0160   -4.0850 C.3     1  GDP1        0.2246
     20  N7       -14.0340   -9.3330   -4.4000 N.2     1  GDP1       -0.2322
     21  C5       -15.1490   -9.5820   -5.0800 C.2     1  GDP1        0.2182
     22  C6       -15.7470  -10.7600   -5.7130 C.1     1  GDP1        0.2372
     23  O6       -15.1870  -11.8730   -5.6750 O.2     1  GDP1       -0.2069
     24  N1       -16.9220  -10.6110   -6.3220 N.2     1  GDP1       -0.2485
     25  C2       -17.5670   -9.4440   -6.3770 C.1     1  GDP1        0.2531
     26  N2       -18.7520   -9.4090   -7.0240 N.pl3   1  GDP1       -0.0226
     27  N3       -17.0620   -8.3180   -5.8210 N.2     1  GDP1       -0.3074
     28  C4       -15.8730   -8.3190   -5.1720 C.2     1  GDP1        0.2300
@<TRIPOS>BOND
     1    26    25    1
     2    25    24    2
     3    25    27    2
     4    24    22    2
     5    27    28    2
     6    22    23    2
     7    22    21    1
     8    28    21    1
     9    28    18    1
    10    12    11    1
    11    12    17    1
    12     3     1    2
    13    21    20    2
    14    18    17    1
    15    18    19    1
    16    11    10    1
    17    11    13    1
    18     2     1    1
    19    20    19    1
    20    17    15    1
    21    10     9    1
    22     5     1    1
    23     5     6    1
    24     1     4    1
    25     9     6    1
    26    14    13    1
    27    13    15    1
    28     6     8    2
    29     6     7    1
    30    15    16    1
