@<TRIPOS>MOLECULE
3syq_PIO_A_1.pdb
 31 31 0 0 0
SMALL
GASTEIGER

@<TRIPOS>ATOM
      1  C1       -16.7620   48.9420  -12.7340 C.3   400  PIO400      0.1873
      2  C2       -18.2650   48.6190  -12.7540 C.3   400  PIO400      0.2146
      3  C3       -18.5700   47.4690  -13.7190 C.3   400  PIO400      0.2146
      4  C4       -17.7160   46.2420  -13.3840 C.3   400  PIO400      0.1892
      5  C5       -16.2240   46.5810  -13.4180 C.3   400  PIO400      0.1891
      6  C6       -15.9070   47.7030  -12.4310 C.3   400  PIO400      0.2119
      7  O1       -16.4840   50.0320  -11.8430 O.3   400  PIO400     -0.3111
      8  O2       -18.7320   48.3210  -11.4300 O.3   400  PIO400     -0.2176
      9  O3       -19.9640   47.1410  -13.6620 O.3   400  PIO400     -0.2176
     10  O4       -18.0040   45.1830  -14.2920 O.3   400  PIO400     -0.2674
     11  O5       -15.4420   45.4230  -13.1140 O.3   400  PIO400     -0.2674
     12  O6       -14.5200   48.0180  -12.5570 O.3   400  PIO400     -0.2177
     13  P1       -17.1470   51.4920  -12.0660 P.3   400  PIO400      0.2141
     14  O11      -16.1110   52.5500  -11.7760 O.2   400  PIO400     -0.5172
     15  O12      -18.4290   51.5040  -11.2670 O.3   400  PIO400     -0.4373
     16  O13      -17.5020   51.5380  -13.6500 O.3   400  PIO400     -0.3114
     17  P4       -18.7810   43.8590  -13.8020 P.3   400  PIO400      0.5327
     18  O41      -17.8220   42.7480  -14.1510 O.3   400  PIO400     -0.1145
     19  O42      -19.0060   44.0170  -12.3170 O.3   400  PIO400     -0.1145
     20  O43      -20.0470   43.8990  -14.6230 O.2   400  PIO400     -0.2224
     21  P5       -14.4820   44.6920  -14.1900 P.3   400  PIO400      0.5327
     22  O53      -14.8720   45.2370  -15.5470 O.2   400  PIO400     -0.2224
     23  O52      -14.8120   43.2300  -14.0090 O.3   400  PIO400     -0.1145
     24  O51      -13.0920   45.0710  -13.7350 O.3   400  PIO400     -0.1145
     25  C1C      -17.9160   52.7200  -14.3430 C.3   400  PIO400      0.1811
     26  C2C      -18.7590   52.3700  -15.5750 C.3   400  PIO400      0.1747
     27  C3C      -17.8590   52.0080  -16.7570 C.3   400  PIO400      0.1742
     28  O2C      -19.6380   51.2780  -15.2910 O.3   400  PIO400     -0.3484
     29  O3C      -17.9270   53.0160  -17.7650 O.3   400  PIO400     -0.3484
     30  C1A      -21.0370   51.6300  -15.4840 C.3   400  PIO400      0.1742
     31  C1B      -16.9670   54.1090  -17.7720 C.3   400  PIO400      0.1742
@<TRIPOS>BOND
     1    31    29    1
     2    29    27    1
     3    27    26    1
     4    26    28    1
     5    26    25    1
     6    22    21    2
     7    30    28    1
     8    20    17    2
     9    25    16    1
    10    10    17    1
    11    10     4    1
    12    21    23    1
    13    21    24    1
    14    21    11    1
    15    18    17    1
    16    17    19    1
    17     3     9    1
    18     3     4    1
    19     3     2    1
    20    16    13    1
    21     5     4    1
    22     5    11    1
    23     5     6    1
    24     2     1    1
    25     2     8    1
    26     1     6    1
    27     1     7    1
    28    12     6    1
    29    13     7    1
    30    13    14    2
    31    13    15    1
