@<TRIPOS>MOLECULE
3syr_GPK_A_1.pdb
 20 21 0 0 0
SMALL
GASTEIGER

@<TRIPOS>ATOM
      1  C1        35.5030   23.4910   28.5950 C.2   843  GPK843      0.1222
      2  F1        37.6100   24.1550   29.4110 F     843  GPK843     -0.1891
      3  C2        36.2750   24.1810   29.5180 C.2   843  GPK843      0.2499
      4  C3        35.6490   24.9040   30.5350 C.1   843  GPK843      0.2454
      5  O3        36.3470   25.5430   31.3440 O.2   843  GPK843     -0.2062
      6  N4        34.2980   24.9350   30.6350 N.2   843  GPK843     -0.2430
      7  C5        33.5120   24.2650   29.7580 C.1   843  GPK843      0.2846
      8  O5        32.2620   24.2540   29.8740 O.2   843  GPK843     -0.1918
      9  C1'       33.2270   22.7960   27.7450 C.3   843  GPK843      0.2401
     10  N1'       34.0990   23.4540   28.7710 N.am  843  GPK843     -0.1744
     11  C2'       33.6570   23.0400   26.2930 C.3   843  GPK843      0.2320
     12  O2'       33.7600   24.4490   26.0450 O.3   843  GPK843     -0.2157
     13  C3'       32.6130   22.3810   25.3760 C.3   843  GPK843      0.2190
     14  O3'       33.0220   22.4500   24.0240 O.3   843  GPK843     -0.2174
     15  C4'       32.3640   20.9290   25.7600 C.3   843  GPK843      0.2144
     16  O4'       31.2550   20.4570   24.9760 O.3   843  GPK843     -0.2176
     17  C5'       32.1130   20.7600   27.2720 C.3   843  GPK843      0.1828
     18  O5'       33.1680   21.3780   27.9980 O.3   843  GPK843     -0.3318
     19  C6'       32.0850   19.3070   27.7680 C.3   843  GPK843      0.2142
     20  O6'       33.1750   18.5510   27.2120 O.3   843  GPK843     -0.2176
@<TRIPOS>BOND
     1    14    13    1
     2    16    15    1
     3    13    15    1
     4    13    11    1
     5    15    17    1
     6    12    11    1
     7    11     9    1
     8    20    19    1
     9    17    19    1
    10    17    18    1
    11     9    18    1
    12     9    10    1
    13     1    10    1
    14     1     3    2
    15    10     7   am
    16     2     3    1
    17     3     4    1
    18     7     8    2
    19     7     6    2
    20     4     6    2
    21     4     5    2
