@<TRIPOS>MOLECULE
3sys_VNL_A_1.pdb
 12 12 0 0 0
SMALL
GASTEIGER

@<TRIPOS>ATOM
      1  C1       -25.2310   23.4240  -23.1930 C.ar  414  VNL414      0.0830
      2  CO1      -24.4360   24.5460  -23.3420 C.ar  414  VNL414      0.0101
      3  CO2      -25.5950   22.6860  -24.3140 C.ar  414  VNL414      0.0468
      4  CM1      -23.9930   24.9340  -24.5980 C.ar  414  VNL414      0.0454
      5  CM2      -25.1570   23.0710  -25.5750 C.ar  414  VNL414      0.1776
      6  OM       -25.4990   22.3410  -26.6980 O.3   414  VNL414     -0.4682
      7  CZ       -24.3520   24.1910  -25.7060 C.ar  414  VNL414      0.2293
      8  CC       -25.7010   23.0610  -21.8190 C.2   414  VNL414      0.3879
      9  CV       -26.5220   21.4020  -26.6440 C.3   414  VNL414      0.2526
     10  O1       -26.6540   22.2530  -21.6480 O.co2 414  VNL414     -0.2406
     11  O2       -25.1540   23.6150  -20.8310 O.co2 414  VNL414     -0.2406
     12  O3       -23.9250   24.5600  -26.9520 O.3   414  VNL414     -0.2833
@<TRIPOS>BOND
     1    12     7    1
     2     6     9    1
     3     6     5    1
     4     7     5   ar
     5     7     4   ar
     6     5     3   ar
     7     4     2   ar
     8     3     1   ar
     9     2     1   ar
    10     1     8    1
    11     8    10   ar
    12     8    11   ar
