@<TRIPOS>MOLECULE
3sys_C8E_A_11.pdb
 15 14 0 0 0
SMALL
GASTEIGER

@<TRIPOS>ATOM
      1  C7       -24.2550   18.3470    9.5440 C.3   413  C8E413      0.0346
      2  C8       -22.8850   17.7430    9.8230 C.3   413  C8E413      0.1424
      3  O9       -22.8540   16.3780    9.4570 O.3   413  C8E413     -0.3511
      4  C10      -23.0930   15.5350   10.5620 C.3   413  C8E413      0.1741
      5  C11      -22.6480   14.1190   10.2290 C.3   413  C8E413      0.1742
      6  O12      -21.2400   14.0470   10.2610 O.3   413  C8E413     -0.3484
      7  C13      -20.7490   12.9810   11.0540 C.3   413  C8E413      0.1742
      8  C14      -19.3120   13.2550   11.4990 C.3   413  C8E413      0.1742
      9  O15      -18.4490   12.2910   10.9250 O.3   413  C8E413     -0.3484
     10  C16      -17.5010   11.7530   11.8310 C.3   413  C8E413      0.1742
     11  C17      -16.1260   11.6610   11.1710 C.3   413  C8E413      0.1742
     12  O18      -15.3310   10.6240   11.7260 O.3   413  C8E413     -0.3483
     13  C19      -15.4300    9.3940   11.0300 C.3   413  C8E413      0.1777
     14  C20      -14.5720    9.4190    9.7640 C.3   413  C8E413      0.2140
     15  O21      -13.8090    8.2380    9.5950 O.3   413  C8E413     -0.2176
@<TRIPOS>BOND
     1     3     2    1
     2     3     4    1
     3     1     2    1
     4    15    14    1
     5    14    13    1
     6     5     6    1
     7     5     4    1
     8     6     7    1
     9     9     8    1
    10     9    10    1
    11    13    12    1
    12     7     8    1
    13    11    12    1
    14    11    10    1
