@<TRIPOS>MOLECULE
3syt_NAD_A_1.pdb
 44 48 0 0 0
SMALL
GASTEIGER

@<TRIPOS>ATOM
      1  PA        -1.2170   66.2500  -60.1060 P.3   680  NAD680      0.2189
      2  O1A       -2.3450   65.6200  -59.2970 O.3   680  NAD680     -0.4371
      3  O2A       -0.2630   67.1600  -59.3620 O.2   680  NAD680     -0.5170
      4  O5B       -0.4190   65.0890  -60.8860 O.3   680  NAD680     -0.3112
      5  C5B        0.7200   65.3150  -61.7050 C.3   680  NAD680      0.1813
      6  C4B        1.9080   65.4640  -60.7590 C.3   680  NAD680      0.1821
      7  O4B        2.4140   64.1990  -60.3030 O.3   680  NAD680     -0.3135
      8  C3B        3.0520   66.1280  -61.4960 C.3   680  NAD680      0.2184
      9  O3B        3.8570   66.7640  -60.4990 O.3   680  NAD680     -0.2174
     10  C2B        3.7570   64.9440  -62.1140 C.3   680  NAD680      0.2570
     11  O2B        5.1300   65.2160  -62.4490 O.3   680  NAD680     -0.2130
     12  C1B        3.6430   63.9180  -60.9870 C.3   680  NAD680      0.3186
     13  N9A        3.6570   62.5440  -61.5290 N.pl3 680  NAD680     -0.1439
     14  C8A        3.1360   62.1800  -62.7120 C.3   680  NAD680      0.3377
     15  N7A        3.3420   60.8600  -62.9040 N.2   680  NAD680     -0.2095
     16  C5A        4.0160   60.4030  -61.8250 C.2   680  NAD680      0.2526
     17  C6A        4.4810   59.1470  -61.4650 C.2   680  NAD680      0.4393
     18  N6A        4.2660   58.0940  -62.3020 N.pl3 680  NAD680      0.2180
     19  N1A        5.1540   59.0040  -60.2940 N.2   680  NAD680      0.0021
     20  C2A        5.3500   60.0470  -59.4780 C.3   680  NAD680      0.5254
     21  N3A        4.8880   61.2540  -59.7890 N.2   680  NAD680     -0.0055
     22  C4A        4.2220   61.4640  -60.9580 C.2   680  NAD680      0.3518
     23  O3        -1.6890   67.0010  -61.4410 O.3   680  NAD680     -0.2703
     24  PN        -2.6510   66.4540  -62.6060 P.3   680  NAD680      0.2189
     25  O1N       -1.9340   66.8250  -63.9020 O.2   680  NAD680     -0.5170
     26  O2N       -3.2290   65.0580  -62.3940 O.3   680  NAD680     -0.4371
     27  O5D       -3.8310   67.5140  -62.3270 O.3   680  NAD680     -0.3112
     28  C5D       -5.0990   67.3020  -61.6680 C.3   680  NAD680      0.1813
     29  C4D       -6.1830   67.7520  -62.6790 C.3   680  NAD680      0.1799
     30  O4D       -7.3350   66.9050  -62.5700 O.3   680  NAD680     -0.3327
     31  C3D       -6.6780   69.2110  -62.5580 C.3   680  NAD680      0.2158
     32  O3D       -6.0960   70.1210  -63.5080 O.3   680  NAD680     -0.2175
     33  C2D       -8.2010   69.1440  -62.7310 C.3   680  NAD680      0.2309
     34  O2D       -8.6870   69.4050  -64.0590 O.3   680  NAD680     -0.2158
     35  C1D       -8.5190   67.7090  -62.3460 C.3   680  NAD680      0.2263
     36  N1N       -8.9310   67.7830  -60.9360 N.pl3 680  NAD680     -0.2787
     37  C2N       -9.9990   67.0700  -60.5520 C.3   680  NAD680      0.1244
     38  C3N      -10.4380   67.1020  -59.2300 C.2   680  NAD680      0.0544
     39  C7N      -11.6490   66.2790  -58.8370 C.2   680  NAD680      0.2818
     40  O7N      -11.5790   65.5030  -57.8830 O.2   680  NAD680     -0.2670
     41  N7N      -12.7680   66.4050  -59.5670 N.am  680  NAD680     -0.0839
     42  C4N       -9.7570   67.9160  -58.3120 C.2   680  NAD680      0.0033
     43  C5N       -8.6530   68.6600  -58.7240 C.2   680  NAD680      0.0157
     44  C6N       -8.2630   68.5700  -60.0590 C.2   680  NAD680      0.0633
@<TRIPOS>BOND
     1    34    33    1
     2    25    24    2
     3    32    31    1
     4    15    14    1
     5    15    16    2
     6    33    31    1
     7    33    35    1
     8    14    13    1
     9    29    30    1
    10    29    31    1
    11    29    28    1
    12    24    26    1
    13    24    27    1
    14    24    23    1
    15    30    35    1
    16    11    10    1
    17    35    36    1
    18    27    28    1
    19    18    17    1
    20    10     8    1
    21    10    12    1
    22    16    17    1
    23    16    22    1
    24     5     4    1
    25     5     6    1
    26    13    12    1
    27    13    22    1
    28     8     6    1
    29     8     9    1
    30    17    19    2
    31    23     1    1
    32    12     7    1
    33    22    21    2
    34    36    37    1
    35    36    44    1
    36     4     1    1
    37     6     7    1
    38    37    38    1
    39    19    20    1
    40     1     3    2
    41     1     2    1
    42    44    43    2
    43    21    20    1
    44    41    39   am
    45    38    39    1
    46    38    42    2
    47    39    40    2
    48    43    42    1
