@<TRIPOS>MOLECULE
3syt_AMP_A_1.pdb
 23 25 0 0 0
SMALL
GASTEIGER

@<TRIPOS>ATOM
      1  P        -13.3650   69.0950  -56.9810 P.3   681  AMP681      0.5327
      2  O1P      -13.8130   67.9250  -57.8430 O.2   681  AMP681     -0.2224
      3  O2P      -11.9130   69.5420  -57.0680 O.3   681  AMP681     -0.1145
      4  O3P      -14.2470   70.2960  -57.2390 O.3   681  AMP681     -0.1145
      5  O5'      -13.7470   68.8150  -55.4580 O.3   681  AMP681     -0.2675
      6  C5'      -13.0440   67.8430  -54.6970 C.3   681  AMP681      0.1860
      7  C4'      -13.2000   68.0750  -53.2140 C.3   681  AMP681      0.1823
      8  O4'      -12.4550   69.2580  -52.8170 O.3   681  AMP681     -0.3135
      9  C3'      -14.6150   68.3420  -52.7120 C.3   681  AMP681      0.2184
     10  O3'      -15.3830   67.1640  -52.5520 O.3   681  AMP681     -0.2174
     11  C2'      -14.3560   69.0800  -51.4120 C.3   681  AMP681      0.2570
     12  O2'      -13.9180   68.1820  -50.3940 O.3   681  AMP681     -0.2130
     13  C1'      -13.1800   69.9710  -51.8320 C.3   681  AMP681      0.3186
     14  N9       -13.6500   71.2380  -52.4350 N.pl3 681  AMP681     -0.1439
     15  C8       -13.5560   71.5820  -53.7340 C.3   681  AMP681      0.3377
     16  N7       -14.1080   72.8110  -53.9230 N.2   681  AMP681     -0.2095
     17  C5       -14.5660   73.2210  -52.7110 C.2   681  AMP681      0.2526
     18  C6       -15.2230   74.3800  -52.2710 C.2   681  AMP681      0.4393
     19  N6       -15.5260   75.3880  -53.1750 N.pl3 681  AMP681      0.2180
     20  N1       -15.5350   74.4740  -50.9300 N.2   681  AMP681      0.0021
     21  C2       -15.2430   73.4950  -50.0450 C.3   681  AMP681      0.5254
     22  N3       -14.6100   72.3860  -50.4620 N.2   681  AMP681     -0.0055
     23  C4       -14.2620   72.2300  -51.7740 C.2   681  AMP681      0.3518
@<TRIPOS>BOND
     1     2     1    2
     2     4     1    1
     3     3     1    1
     4     1     5    1
     5     5     6    1
     6     6     7    1
     7    16    15    1
     8    16    17    2
     9    15    14    1
    10     7     8    1
    11     7     9    1
    12    19    18    1
    13     8    13    1
    14     9    10    1
    15     9    11    1
    16    17    18    1
    17    17    23    1
    18    14    13    1
    19    14    23    1
    20    18    20    2
    21    13    11    1
    22    23    22    2
    23    11    12    1
    24    20    21    1
    25    22    21    1
