@<TRIPOS>MOLECULE
3syt_GLU_A_1.pdb
 10 9 0 0 0
SMALL
GASTEIGER

@<TRIPOS>ATOM
      1  N        -33.9450   14.5740  -54.0890 N.3   683  GLU683     -0.1208
      2  CA       -35.1540   15.3400  -54.5410 C.3   683  GLU683      0.1949
      3  C        -36.4530   15.0140  -53.7440 C.2   683  GLU683      0.3819
      4  O        -36.9020   13.8700  -53.5790 O.co2 683  GLU683     -0.2441
      5  CB       -35.3570   15.1650  -56.0540 C.3   683  GLU683      0.0424
      6  CG       -35.5390   16.4760  -56.8490 C.3   683  GLU683      0.1161
      7  CD       -35.4720   16.2500  -58.3650 C.2   683  GLU683      0.3649
      8  OE1      -35.6560   17.2210  -59.1390 O.co2 683  GLU683     -0.2457
      9  OE2      -35.2130   15.0910  -58.7800 O.co2 683  GLU683     -0.2457
     10  OXT      -37.1220   15.9130  -53.2190 O.co2 683  GLU683     -0.2441
@<TRIPOS>BOND
     1     8     7   ar
     2     9     7   ar
     3     7     6    1
     4     6     5    1
     5     5     2    1
     6     2     1    1
     7     2     3    1
     8     3     4   ar
     9     3    10   ar
