@<TRIPOS>MOLECULE
3syu_2GP_A_1.pdb
 37 39 0 0 0
SMALL
GASTEIGER

@<TRIPOS>ATOM
      1  P         22.8410  -48.0100   -0.2450 P.3   105  2GP105      0.2104
      2  O1P       24.0610  -47.8110   -1.0380 O.2   105  2GP105     -0.5173
      3  O2P       21.5380  -47.4280   -0.8820 O.3   105  2GP105     -0.4374
      4  O3P       22.5310  -49.4430    0.1620 O.3   105  2GP105     -0.3436
      5  O5'       19.4380  -47.9660    3.7780 O.3   105  2GP105     -0.3924
      6  C5'       19.5910  -46.6660    4.3220 C.3   105  2GP105      0.0730
      7  C4'       20.7930  -45.9600    3.7420 C.3   105  2GP105      0.1124
      8  O4'       21.9990  -46.4160    4.4130 O.3   105  2GP105     -0.3474
      9  C3'       21.0190  -46.1930    2.2490 C.3   105  2GP105      0.1140
     10  O3'       21.4550  -44.9920    1.6200 O.3   105  2GP105     -0.3864
     11  C2'       22.1360  -47.2330    2.2420 C.3   105  2GP105      0.1372
     12  O2'       22.9780  -47.1310    1.0790 O.3   105  2GP105     -0.3172
     13  C1'       22.9560  -46.7850    3.4410 C.3   105  2GP105      0.1624
     14  N9        23.8140  -47.8480    4.0120 N.pl3 105  2GP105     -0.2240
     15  C8        23.4370  -49.0970    4.4360 C.2   105  2GP105      0.1451
     16  N7        24.4390  -49.8540    4.8100 N.2   105  2GP105     -0.3865
     17  C5        25.5530  -49.0610    4.5930 C.2   105  2GP105      0.2296
     18  C6        26.9370  -49.3300    4.7460 C.2   105  2GP105      0.2859
     19  O6        27.4590  -50.4000    5.0740 O.2   105  2GP105     -0.2668
     20  N1        27.7190  -48.2260    4.4450 N.am  105  2GP105     -0.2418
     21  C2        27.2500  -47.0020    4.0190 C.2   105  2GP105      0.2395
     22  N2        28.1580  -46.0540    3.7750 N.pl3 105  2GP105     -0.3206
     23  N3        25.9590  -46.7370    3.8430 N.2   105  2GP105     -0.3551
     24  C4        25.1700  -47.7990    4.1350 C.2   105  2GP105      0.2272
     25 HOP3       21.6580  -49.7690    0.5090 H     105  2GP105      0.2176
     26 HO5'       20.2210  -48.4920    4.0900 H     105  2GP105      0.2095
     27 H5'1       19.7300  -46.7510    5.3980 H     105  2GP105      0.0584
     28 H5'2       18.6830  -46.0840    4.1730 H     105  2GP105      0.0584
     29  H4'       20.7310  -44.8950    3.9610 H     105  2GP105      0.0646
     30  H3'       20.1390  -46.5790    1.7370 H     105  2GP105      0.0648
     31 HO3'       21.8210  -45.2590    0.7360 H     105  2GP105      0.2100
     32  H2'       21.7380  -48.2430    2.3270 H     105  2GP105      0.0670
     33  H1'       23.5770  -45.9300    3.1790 H     105  2GP105      0.0841
     34  H8        22.4000  -49.4270    4.4540 H     105  2GP105      0.1149
     35  HN1       28.7110  -48.3790    4.5860 H     105  2GP105      0.1589
     36 HN21       29.1450  -46.2240    3.9370 H     105  2GP105      0.1459
     37 HN22       27.9330  -45.1510    3.3710 H     105  2GP105      0.1459
@<TRIPOS>BOND
     1     2     1    2
     2     3     1    1
     3     1     4    1
     4     1    12    1
     5     4    25    1
     6    31    10    1
     7    12    11    1
     8    10     9    1
     9    30     9    1
    10    11     9    1
    11    11    32    1
    12    11    13    1
    13     9     7    1
    14    33    13    1
    15    37    22    1
    16    13    14    1
    17    13     8    1
    18     7    29    1
    19     7     6    1
    20     7     8    1
    21    22    36    1
    22    22    21    1
    23     5    26    1
    24     5     6    1
    25    23    21    2
    26    23    24    2
    27    14    24    1
    28    14    15    1
    29    21    20    1
    30    24    17    1
    31    28     6    1
    32     6    27    1
    33    15    34    1
    34    15    16    2
    35    20    35    1
    36    20    18   am
    37    17    18    1
    38    17    16    2
    39    18    19    2
