@<TRIPOS>MOLECULE
3sz1_KNA_A_1.pdb
 11 10 0 0 0
SMALL
GASTEIGER

@<TRIPOS>ATOM
      1  C1        13.7620    9.6310    9.1280 C.2     1  KNA1        0.3649
      2  O1        12.9290    8.7860    9.4450 O.co2   1  KNA1       -0.2457
      3  C2        15.2360    9.4180    9.4550 C.3     1  KNA1        0.1141
      4  O2        13.3510   10.7570    8.4720 O.co2   1  KNA1       -0.2457
      5  C3        16.0770   10.6740    9.1480 C.3     1  KNA1        0.0118
      6  C4        17.3930   10.2870    8.4830 C.3     1  KNA1        0.0006
      7  C5        18.2350   11.5350    8.1960 C.3     1  KNA1        0.0000
      8  C6        17.5950   12.5200    7.1910 C.3     1  KNA1        0.0000
      9  C7        18.5610   13.7110    6.9150 C.3     1  KNA1        0.0000
     10  C8        17.8510   15.0480    7.2060 C.3     1  KNA1        0.0000
     11  C9        18.6060   16.2540    6.6040 C.3     1  KNA1        0.0000
@<TRIPOS>BOND
     1    11    10    1
     2     9     8    1
     3     9    10    1
     4     8     7    1
     5     7     6    1
     6     4     1   ar
     7     6     5    1
     8     1     2   ar
     9     1     3    1
    10     5     3    1
