@<TRIPOS>MOLECULE
3sz1_LU2_B_1.pdb
 21 23 0 0 0
SMALL
GASTEIGER

@<TRIPOS>ATOM
      1  C1        36.8060  -22.3400   41.8430 C.ar    1  LU21        0.0798
      2  O1        34.7180  -21.4410   41.4730 O.3     1  LU21       -0.2864
      3  C2        35.9230  -21.2870   42.0110 C.ar    1  LU21        0.2020
      4  O2        37.8020  -18.8800   44.0150 O.3     1  LU21       -0.2862
      5  C3        36.2520  -20.1270   42.7220 C.ar    1  LU21        0.0843
      6  O3        40.2110  -20.1420   44.3810 O.2     1  LU21       -0.2862
      7  C4        37.5270  -20.0300   43.3170 C.ar    1  LU21        0.2049
      8  O4        38.8410  -23.4110   42.1940 O.2     1  LU21       -0.4531
      9  C5        38.4750  -21.1180   43.1590 C.ar    1  LU21        0.1126
     10  O5        44.4170  -25.6550   42.5200 O.3     1  LU21       -0.2831
     11  C6        38.0640  -22.2850   42.4050 C.ar    1  LU21        0.1546
     12  O6        43.1840  -27.9510   41.8420 O.3     1  LU21       -0.2831
     13  C7        39.7830  -21.1150   43.7220 C.ar    1  LU21        0.2048
     14  C8        40.6000  -22.2620   43.5190 C.ar    1  LU21        0.0797
     15  C9        40.1160  -23.3940   42.7490 C.ar    1  LU21        0.1485
     16  C10       40.9020  -24.5460   42.5120 C.ar    1  LU21        0.0381
     17  C11       42.3250  -24.4880   42.6400 C.ar    1  LU21        0.0484
     18  C12       43.0740  -25.6550   42.4080 C.ar    1  LU21        0.2344
     19  C13       42.4320  -26.8520   42.0460 C.ar    1  LU21        0.2343
     20  C14       41.0360  -26.9200   41.8980 C.ar    1  LU21        0.0455
     21  C15       40.2710  -25.7670   42.1500 C.ar    1  LU21        0.0065
@<TRIPOS>BOND
     1     2     3    1
     2    12    19    1
     3     1     3   ar
     4     1    11   ar
     5    20    19   ar
     6    20    21   ar
     7     3     5   ar
     8    19    18   ar
     9    21    16   ar
    10     8    11   ar
    11     8    15   ar
    12    11     9   ar
    13    18    10    1
    14    18    17   ar
    15    16    17   ar
    16    16    15    1
    17     5     7   ar
    18    15    14   ar
    19     9     7   ar
    20     9    13   ar
    21     7     4    1
    22    14    13   ar
    23    13     6    2
