@<TRIPOS>MOLECULE
3sz1_MYR_B_1.pdb
 16 15 0 0 0
SMALL
GASTEIGER

@<TRIPOS>ATOM
      1  C1        33.3130  -25.6010   38.2900 C.2   478  MYR478      0.3649
      2  O1        34.0750  -25.5150   39.2460 O.co2 478  MYR478     -0.2457
      3  O2        32.6540  -26.7850   38.1240 O.co2 478  MYR478     -0.2457
      4  C2        33.0970  -24.4160   37.3060 C.3   478  MYR478      0.1141
      5  C3        34.4480  -23.7890   36.8510 C.3   478  MYR478      0.0118
      6  C4        34.7600  -22.5590   37.7210 C.3   478  MYR478      0.0006
      7  C5        36.0730  -21.8500   37.3670 C.3   478  MYR478      0.0000
      8  C6        36.1560  -20.6060   38.2670 C.3   478  MYR478      0.0000
      9  C7        35.9950  -19.3250   37.4240 C.3   478  MYR478      0.0000
     10  C8        35.6540  -18.0820   38.2770 C.3   478  MYR478      0.0000
     11  C9        35.5410  -16.7980   37.4040 C.3   478  MYR478      0.0000
     12  C10       36.7740  -15.8580   37.5480 C.3   478  MYR478      0.0000
     13  C11       36.6480  -14.9330   38.7780 C.3   478  MYR478      0.0000
     14  C12       38.0340  -14.5280   39.3120 C.3   478  MYR478      0.0000
     15  C13       37.9840  -14.4320   40.8500 C.3   478  MYR478      0.0000
     16  C14       39.1310  -13.5820   41.4410 C.3   478  MYR478      0.0000
@<TRIPOS>BOND
     1     5     4    1
     2     5     6    1
     3     4     1    1
     4     7     6    1
     5     7     8    1
     6    11    12    1
     7    11    10    1
     8     9     8    1
     9     9    10    1
    10    12    13    1
    11     3     1   ar
    12     1     2   ar
    13    13    14    1
    14    14    15    1
    15    15    16    1
