@<TRIPOS>MOLECULE
3sz3_TRP_A_1.pdb
 11 12 0 0 0
SMALL
GASTEIGER

@<TRIPOS>ATOM
      1  CA         3.4620   14.3210    9.8010 C.3   401  TRP401      0.0047
      2  CB         2.5370   15.4500   10.1180 C.3   401  TRP401      0.0243
      3  CG         1.4350   15.0360   10.9650 C.2   401  TRP401     -0.0159
      4  CD1        1.1950   13.7480   11.4810 C.2   401  TRP401      0.0906
      5  CD2        0.3330   15.8510   11.4000 C.3   401  TRP401      0.0819
      6  NE1        0.0560   13.7700   12.2250 N.2   401  TRP401     -0.2482
      7  CE2       -0.4780   15.0350   12.2030 C.2   401  TRP401      0.0665
      8  CE3       -0.0230   17.2020   11.2240 C.2   401  TRP401     -0.0164
      9  CZ2       -1.6260   15.5150   12.8280 C.2   401  TRP401      0.0153
     10  CZ3       -1.1930   17.6680   11.8420 C.2   401  TRP401     -0.0038
     11  CH2       -1.9630   16.8220   12.6380 C.2   401  TRP401      0.0009
@<TRIPOS>BOND
     1     1     2    1
     2     2     3    1
     3     3     5    1
     4     3     4    2
     5     8     5    1
     6     8    10    2
     7     5     7    1
     8     4     6    1
     9    10    11    1
    10     7     6    2
    11     7     9    1
    12    11     9    2
