@<TRIPOS>MOLECULE
3sz4_D5M_A_1.pdb
 22 24 0 0 0
SMALL
GASTEIGER

@<TRIPOS>ATOM
      1  O5'       35.2830  -16.6430    9.5780 O.3   218  D5M218     -0.2675
      2  C5'       36.1580  -17.5040   10.3180 C.3   218  D5M218      0.1859
      3  C4'       37.3270  -16.6360   10.7700 C.3   218  D5M218      0.1796
      4  O4'       37.8530  -17.0790   12.0090 O.3   218  D5M218     -0.3155
      5  C3'       38.4850  -16.6560    9.7910 C.3   218  D5M218      0.1883
      6  O3'       38.9930  -15.3260    9.7300 O.3   218  D5M218     -0.2202
      7  C2'       39.5570  -17.5390   10.3710 C.3   218  D5M218      0.1151
      8  C1'       39.1310  -17.6800   11.8230 C.3   218  D5M218      0.2873
      9  N9        38.9250  -19.0930   12.1800 N.pl3 218  D5M218     -0.1460
     10  C8        38.5640  -20.0990   11.3620 C.3   218  D5M218      0.3377
     11  N7        38.4670  -21.2370   12.0900 N.2   218  D5M218     -0.2095
     12  C5        38.7630  -20.9120   13.3680 C.2   218  D5M218      0.2526
     13  C6        38.8270  -21.6400   14.5470 C.2   218  D5M218      0.4393
     14  N6        38.5490  -22.9640   14.5060 N.pl3 218  D5M218      0.2180
     15  N1        39.1550  -21.0100   15.7130 N.2   218  D5M218      0.0021
     16  C2        39.4240  -19.6850   15.7490 C.3   218  D5M218      0.5254
     17  N3        39.3670  -18.9590   14.6150 N.2   218  D5M218     -0.0055
     18  C4        39.0420  -19.5550   13.4240 C.2   218  D5M218      0.3518
     19  P         34.0510  -17.1440    8.6510 P.3   218  D5M218      0.5327
     20  O1P       34.6940  -18.1590    7.7620 O.2   218  D5M218     -0.2224
     21  O3P       33.5760  -15.9470    7.8780 O.3   218  D5M218     -0.1145
     22  O2P       33.0900  -17.7070    9.6560 O.3   218  D5M218     -0.1145
@<TRIPOS>BOND
     1    20    19    2
     2    21    19    1
     3    19     1    1
     4    19    22    1
     5     1     2    1
     6     6     5    1
     7     5     7    1
     8     5     3    1
     9     2     3    1
    10     7     8    1
    11     3     4    1
    12    10    11    1
    13    10     9    1
    14     8     4    1
    15     8     9    1
    16    11    12    2
    17     9    18    1
    18    12    18    1
    19    12    13    1
    20    18    17    2
    21    14    13    1
    22    13    15    2
    23    17    16    1
    24    15    16    1
