@<TRIPOS>MOLECULE
3sz9_I3E_A_1.pdb
 12 12 0 0 0
SMALL
GASTEIGER

@<TRIPOS>ATOM
      1  C1        72.0260   57.4960   72.1570 C.ar  8001  I3E8001    -0.0222
      2  C2        71.0340   58.4340   71.9010 C.ar  8001  I3E8001    -0.0042
      3  C3        70.8280   58.8790   70.5990 C.ar  8001  I3E8001     0.0025
      4  C4        71.6060   58.3920   69.5590 C.ar  8001  I3E8001     0.0347
      5  C5        72.5960   57.4580   69.8190 C.ar  8001  I3E8001     0.0025
      6  C6        72.8050   57.0070   71.1180 C.ar  8001  I3E8001    -0.0042
      7  C7        72.2640   56.9980   73.5640 C.3   8001  I3E8001     0.0264
      8  C8        71.0920   57.4150   74.4450 C.3   8001  I3E8001     0.0050
      9  C9        71.3880   58.8780   68.1600 C.2   8001  I3E8001     0.1730
     10  O9        71.0170   60.0290   67.9710 O.2   8001  I3E8001    -0.2913
     11  C10       71.6120   58.0020   66.9920 C.3   8001  I3E8001     0.0692
     12  C11       70.8920   58.3520   65.7100 C.3   8001  I3E8001     0.0086
@<TRIPOS>BOND
     1    12    11    1
     2    11     9    1
     3    10     9    2
     4     9     4    1
     5     4     5   ar
     6     4     3   ar
     7     5     6   ar
     8     3     2   ar
     9     6     1   ar
    10     2     1   ar
    11     1     7    1
    12     7     8    1
