@<TRIPOS>MOLECULE
3szb_I1E_A_1.pdb
 10 10 0 0 0
SMALL
GASTEIGER

@<TRIPOS>ATOM
      1  C1        11.9550   13.7960   66.8620 C.ar  1001  I1E1001     0.0028
      2  C2        12.6920   12.7660   67.4240 C.ar  1001  I1E1001     0.0001
      3  C3        13.9700   12.4930   66.9520 C.ar  1001  I1E1001     0.0000
      4  C4        14.5190   13.2530   65.9290 C.ar  1001  I1E1001     0.0001
      5  C5        13.7840   14.2860   65.3720 C.ar  1001  I1E1001     0.0028
      6  C6        12.4940   14.5630   65.8290 C.ar  1001  I1E1001     0.0347
      7  C7        11.6700   15.6850   65.2470 C.2   1001  I1E1001     0.1730
      8  O7        11.3640   16.6350   65.9540 O.2   1001  I1E1001    -0.2913
      9  C8        11.1920   15.6530   63.8510 C.3   1001  I1E1001     0.0692
     10  C9        10.2190   16.7110   63.3830 C.3   1001  I1E1001     0.0086
@<TRIPOS>BOND
     1    10     9    1
     2     9     7    1
     3     7     6    1
     4     7     8    2
     5     5     6   ar
     6     5     4   ar
     7     6     1   ar
     8     4     3   ar
     9     1     2   ar
    10     3     2   ar
