@<TRIPOS>MOLECULE
3szc_DCQ_A_1.pdb
 23 23 0 0 0
SMALL
GASTEIGER

@<TRIPOS>ATOM
      1  O2        40.1570  -12.9930    7.3560 O.3   502  DCQ502     -0.2836
      2  C2        41.3440  -12.2730    7.4020 C.ar  502  DCQ502      0.2282
      3  C3        42.3680  -12.6650    8.2710 C.ar  502  DCQ502      0.2140
      4  O3        42.1760  -13.7830    9.0750 O.3   502  DCQ502     -0.4652
      5  C3M       42.2850  -15.0640    8.5620 C.3   502  DCQ502      0.2528
      6  C4        43.5600  -11.9160    8.3230 C.ar  502  DCQ502      0.2140
      7  O4        44.5950  -12.2420    9.1790 O.3   502  DCQ502     -0.4652
      8  C4M       45.0210  -11.3340   10.1320 C.3   502  DCQ502      0.2528
      9  C5        43.7260  -10.8000    7.5040 C.ar  502  DCQ502      0.2282
     10  O5        44.8970  -10.0730    7.5450 O.3   502  DCQ502     -0.2836
     11  C1        41.5280  -11.1470    6.5880 C.ar  502  DCQ502      0.0195
     12  C1M       40.4610  -10.7020    5.6540 C.3   502  DCQ502      0.0343
     13  C6        42.7120  -10.4180    6.6400 C.ar  502  DCQ502      0.0191
     14  C7        42.8920   -9.1950    5.7950 C.3   502  DCQ502      0.0295
     15  C8        43.0670   -7.8990    6.5320 C.3   502  DCQ502      0.0048
     16  C9        41.8370   -7.0980    6.8200 C.3   502  DCQ502      0.0003
     17  C10       41.8350   -5.6530    6.4370 C.3   502  DCQ502      0.0000
     18  C11       42.1550   -5.3010    5.0150 C.3   502  DCQ502      0.0003
     19  C12       42.0430   -6.3810    3.9820 C.3   502  DCQ502      0.0047
     20  C13       41.2240   -6.1010    2.7590 C.3   502  DCQ502      0.0257
     21  C14       41.8170   -5.2720    1.6580 C.2   502  DCQ502     -0.0307
     22  C15       41.3610   -5.5530    0.2580 C.2   502  DCQ502     -0.0304
     23  C16       41.9140   -4.7160   -0.8500 C.3   502  DCQ502      0.0303
@<TRIPOS>BOND
     1    23    22    1
     2    22    21    2
     3    21    20    1
     4    20    19    1
     5    19    18    1
     6    18    17    1
     7    12    11    1
     8    14    15    1
     9    14    13    1
    10    17    16    1
    11    15    16    1
    12    11    13   ar
    13    11     2   ar
    14    13     9   ar
    15     1     2    1
    16     2     3   ar
    17     9    10    1
    18     9     6   ar
    19     3     6   ar
    20     3     4    1
    21     6     7    1
    22     5     4    1
    23     7     8    1
