@<TRIPOS>MOLECULE
3szf_DCQ_A_1.pdb
 23 23 0 0 0
SMALL
GASTEIGER

@<TRIPOS>ATOM
      1  O2        41.0670  -12.5580    6.9750 O.3   502  DCQ502     -0.2836
      2  C2        42.0780  -11.7260    7.2810 C.ar  502  DCQ502      0.2282
      3  C3        43.0390  -12.1000    8.2000 C.ar  502  DCQ502      0.2140
      4  O3        42.9560  -13.3290    8.8090 O.3   502  DCQ502     -0.4652
      5  C3M       43.2490  -14.5140    8.0800 C.3   502  DCQ502      0.2528
      6  C4        44.1130  -11.1970    8.5280 C.ar  502  DCQ502      0.2140
      7  O4        45.0830  -11.5510    9.4430 O.3   502  DCQ502     -0.4652
      8  C4M       45.2580  -10.8140   10.6250 C.3   502  DCQ502      0.2528
      9  C5        44.1750   -9.9580    7.9070 C.ar  502  DCQ502      0.2282
     10  O5        45.2030   -9.0730    8.2160 O.3   502  DCQ502     -0.2836
     11  C1        42.1520  -10.4820    6.6690 C.ar  502  DCQ502      0.0195
     12  C1M       41.0980  -10.0630    5.6520 C.3   502  DCQ502      0.0343
     13  C6        43.2060   -9.5990    6.9840 C.ar  502  DCQ502      0.0191
     14  C7        43.2740   -8.1770    6.2890 C.3   502  DCQ502      0.0295
     15  C8        42.6620   -7.0650    7.0390 C.3   502  DCQ502      0.0051
     16  C9        41.9500   -5.9460    6.2070 C.3   502  DCQ502      0.0050
     17  C10       42.6290   -5.4910    4.9570 C.3   502  DCQ502      0.0260
     18  C11       41.7400   -5.1210    3.7320 C.2   502  DCQ502     -0.0261
     19  C12       41.7410   -6.0270    2.5670 C.2   502  DCQ502     -0.0049
     20  C13       41.1530   -5.4720    1.2150 C.2   502  DCQ502     -0.0049
     21  C14       41.9670   -5.6920   -0.1010 C.2   502  DCQ502     -0.0261
     22  C15       41.5190   -4.9790   -1.3660 C.3   502  DCQ502      0.0260
     23  C16       41.7540   -3.4730   -1.5040 C.3   502  DCQ502      0.0050
@<TRIPOS>BOND
     1    23    22    1
     2    22    21    1
     3    21    20    2
     4    20    19    1
     5    19    18    2
     6    18    17    1
     7    17    16    1
     8    12    11    1
     9    16    15    1
    10    14    13    1
    11    14    15    1
    12    11    13   ar
    13    11     2   ar
    14     1     2    1
    15    13     9   ar
    16     2     3   ar
    17     9    10    1
    18     9     6   ar
    19     5     4    1
    20     3     6   ar
    21     3     4    1
    22     6     7    1
    23     7     8    1
