@<TRIPOS>MOLECULE
3szg_NXX_A_1.pdb
 44 48 0 0 0
SMALL
GASTEIGER

@<TRIPOS>ATOM
      1  O7N      -14.5450   65.7060  -68.1920 O.co2 680  NXX680     -0.2405
      2  C7N      -13.6910   66.5420  -67.8040 C.2   680  NXX680      0.3890
      3  O8N      -14.0310   67.6980  -67.4480 O.co2 680  NXX680     -0.2405
      4  C3N      -12.2150   66.1910  -67.7950 C.2   680  NXX680      0.0940
      5  C4N      -11.4770   66.2320  -66.6110 C.2   680  NXX680      0.0050
      6  C5N      -10.1240   65.9270  -66.6420 C.2   680  NXX680     -0.0044
      7  C6N       -9.5380   65.6040  -67.8590 C.3   680  NXX680      0.1195
      8  C2N      -11.5540   65.8610  -68.9830 C.2   680  NXX680      0.0699
      9  N1N      -10.2490   65.5810  -68.9960 N.pl3 680  NXX680     -0.2787
     10  C1M       -9.5880   65.2260  -70.2600 C.3   680  NXX680      0.2263
     11  C2M       -9.3160   66.4740  -71.0730 C.3   680  NXX680      0.2309
     12  O2M      -10.1410   66.4240  -72.2330 O.3   680  NXX680     -0.2158
     13  C3M       -7.8950   66.3610  -71.5500 C.3   680  NXX680      0.2158
     14  O3M       -7.9940   66.1910  -72.9680 O.3   680  NXX680     -0.2175
     15  O4M       -8.3350   64.5780  -70.0220 O.3   680  NXX680     -0.3327
     16  C4M       -7.3390   65.0790  -70.9210 C.3   680  NXX680      0.1799
     17  C5M       -5.9520   65.1940  -70.2360 C.3   680  NXX680      0.1813
     18  O5M       -4.9600   65.1810  -71.2730 O.3   680  NXX680     -0.3112
     19  PN        -3.6680   64.2520  -71.2310 P.3   680  NXX680      0.2189
     20  O1N       -4.2350   62.9220  -70.8020 O.3   680  NXX680     -0.4371
     21  O2N       -3.0290   64.3800  -72.6220 O.2   680  NXX680     -0.5170
     22  O3A       -2.8290   64.8790  -69.9730 O.3   680  NXX680     -0.2703
     23  PA        -2.1240   64.1660  -68.6680 P.3   680  NXX680      0.2189
     24  O1A       -1.0850   65.0370  -67.9150 O.2   680  NXX680     -0.5170
     25  O2A       -3.2450   63.7100  -67.7960 O.3   680  NXX680     -0.4371
     26  O5B       -1.2700   63.0020  -69.3670 O.3   680  NXX680     -0.3112
     27  C5B       -0.2520   63.3960  -70.2790 C.3   680  NXX680      0.1813
     28  C4B        1.1450   63.4520  -69.6320 C.3   680  NXX680      0.1821
     29  C3B        2.1540   64.0050  -70.6350 C.3   680  NXX680      0.2184
     30  O3B        3.2110   64.6240  -69.9000 O.3   680  NXX680     -0.2174
     31  C2B        2.6860   62.7610  -71.2990 C.3   680  NXX680      0.2570
     32  O2P        3.9740   62.9620  -71.8700 O.3   680  NXX680     -0.2130
     33  C1B        2.8070   61.8480  -70.1000 C.3   680  NXX680      0.3186
     34  O4B        1.7310   62.1890  -69.2220 O.3   680  NXX680     -0.3135
     35  N9A        2.6390   60.4480  -70.5300 N.pl3 680  NXX680     -0.1439
     36  C8A        1.8840   60.0200  -71.5520 C.3   680  NXX680      0.3377
     37  N7A        1.9600   58.6720  -71.6040 N.2   680  NXX680     -0.2095
     38  C5A        2.7930   58.2860  -70.5890 C.2   680  NXX680      0.2526
     39  C4A        3.2050   59.4150  -69.9250 C.2   680  NXX680      0.3518
     40  C6A        3.3360   56.9730  -70.1100 C.2   680  NXX680      0.4393
     41  N6A        2.9960   55.7770  -70.6740 N.pl3 680  NXX680      0.2180
     42  N1A        4.1570   56.9970  -69.0460 N.2   680  NXX680      0.0021
     43  C2A        4.4890   58.1670  -68.4540 C.3   680  NXX680      0.5254
     44  N3A        4.0370   59.3430  -68.8850 N.2   680  NXX680     -0.0055
@<TRIPOS>BOND
     1    14    13    1
     2    21    19    2
     3    12    11    1
     4    32    31    1
     5    37    36    1
     6    37    38    2
     7    36    35    1
     8    13    11    1
     9    13    16    1
    10    31    29    1
    11    31    33    1
    12    18    19    1
    13    18    17    1
    14    19    20    1
    15    19    22    1
    16    11    10    1
    17    16    17    1
    18    16    15    1
    19    41    40    1
    20    29    30    1
    21    29    28    1
    22    38    40    1
    23    38    39    1
    24    35    33    1
    25    35    39    1
    26    27    28    1
    27    27    26    1
    28    10    15    1
    29    10     9    1
    30    40    42    2
    31    33    34    1
    32    22    23    1
    33    39    44    2
    34    28    34    1
    35    26    23    1
    36    42    43    1
    37     9     8    1
    38     9     7    1
    39     8     4    2
    40    44    43    1
    41    23    24    2
    42    23    25    1
    43     1     2   ar
    44     7     6    1
    45     2     4    1
    46     2     3   ar
    47     4     5    1
    48     6     5    2
