@<TRIPOS>MOLECULE
3szg_AMP_A_1.pdb
 23 25 0 0 0
SMALL
GASTEIGER

@<TRIPOS>ATOM
      1  P        -13.9320   68.0010  -64.2730 P.3   681  AMP681      0.5327
      2  O1P      -14.4670   66.7380  -64.9130 O.2   681  AMP681     -0.2224
      3  O2P      -12.5590   68.4950  -64.6960 O.3   681  AMP681     -0.1145
      4  O3P      -14.9540   69.0950  -64.4950 O.3   681  AMP681     -0.1145
      5  O5'      -13.9910   67.8660  -62.6700 O.3   681  AMP681     -0.2675
      6  C5'      -12.8930   67.3050  -61.9190 C.3   681  AMP681      0.1860
      7  C4'      -12.8290   67.8350  -60.4870 C.3   681  AMP681      0.1823
      8  O4'      -12.6930   69.2860  -60.5120 O.3   681  AMP681     -0.3135
      9  C3'      -14.0490   67.5340  -59.6030 C.3   681  AMP681      0.2184
     10  O3'      -13.6440   67.3750  -58.2340 O.3   681  AMP681     -0.2174
     11  C2'      -14.8730   68.8040  -59.7340 C.3   681  AMP681      0.2570
     12  O2'      -15.7360   69.0470  -58.6490 O.3   681  AMP681     -0.2130
     13  C1'      -13.7900   69.8850  -59.8390 C.3   681  AMP681      0.3186
     14  N9       -14.2170   71.0740  -60.5940 N.pl3 681  AMP681     -0.1439
     15  C8       -14.4130   71.1960  -61.9320 C.3   681  AMP681      0.3377
     16  N7       -14.8350   72.4510  -62.2340 N.2   681  AMP681     -0.2095
     17  C5       -14.9060   73.1200  -61.0480 C.2   681  AMP681      0.2526
     18  C6       -15.2710   74.4230  -60.7110 C.2   681  AMP681      0.4393
     19  N6       -15.6410   75.3010  -61.6900 N.pl3 681  AMP681      0.2180
     20  N1       -15.2340   74.7700  -59.3940 N.2   681  AMP681      0.0021
     21  C2       -14.8560   73.8950  -58.4330 C.3   681  AMP681      0.5254
     22  N3       -14.4890   72.6410  -58.7180 N.2   681  AMP681     -0.0055
     23  C4       -14.5130   72.2430  -60.0220 C.2   681  AMP681      0.3518
@<TRIPOS>BOND
     1     2     1    2
     2     3     1    1
     3     4     1    1
     4     1     5    1
     5     5     6    1
     6    16    15    1
     7    16    17    2
     8    15    14    1
     9     6     7    1
    10    19    18    1
    11    17    18    1
    12    17    23    1
    13    18    20    2
    14    14    23    1
    15    14    13    1
    16     8     7    1
    17     8    13    1
    18     7     9    1
    19    23    22    2
    20    13    11    1
    21    11     9    1
    22    11    12    1
    23     9    10    1
    24    20    21    1
    25    22    21    1
