@<TRIPOS>MOLECULE
3szj_BTN_A_1.pdb
 16 17 0 0 0
SMALL
GASTEIGER

@<TRIPOS>ATOM
      1  C11       -6.4120   12.2640    4.8350 C.2   600  BTN600      0.3649
      2  O11       -6.3440   13.1100    3.9190 O.co2 600  BTN600     -0.2457
      3  O12       -7.0530   11.2130    4.6540 O.co2 600  BTN600     -0.2457
      4  C10       -5.7270   12.4980    6.1540 C.3   600  BTN600      0.1141
      5  C9        -4.3390   13.1390    5.9710 C.3   600  BTN600      0.0118
      6  C8        -3.3700   12.2510    5.2030 C.3   600  BTN600      0.0015
      7  C7        -1.9840   12.8780    5.0220 C.3   600  BTN600      0.0129
      8  C2        -1.0320   11.9500    4.2460 C.3   600  BTN600      0.0729
      9  S1        -0.3720   10.7180    5.1800 S.3   600  BTN600     -0.1369
     10  C6         0.8080   10.3550    3.8550 C.3   600  BTN600      0.0848
     11  C5         1.2780   11.6710    3.3040 C.3   600  BTN600      0.1509
     12  N1         2.3910   12.2270    4.0350 N.2   600  BTN600     -0.1859
     13  C3         2.0110   13.3490    4.6540 C.1   600  BTN600      0.2386
     14  O3         2.8100   14.0610    5.5370 O.2   600  BTN600     -0.2023
     15  N2         0.7640   13.7250    4.3590 N.2   600  BTN600     -0.1860
     16  C4         0.1420   12.6610    3.5750 C.3   600  BTN600      0.1500
@<TRIPOS>BOND
     1    11    16    1
     2    11    10    1
     3    11    12    1
     4    16     8    1
     5    16    15    1
     6    10     9    1
     7     2     1   ar
     8    12    13    2
     9     8     7    1
    10     8     9    1
    11    15    13    2
    12     3     1   ar
    13    13    14    2
    14     1     4    1
    15     7     6    1
    16     6     5    1
    17     5     4    1
