@<TRIPOS>MOLECULE
3szk_HEM_A_1.pdb
 43 50 0 0 0
SMALL
GASTEIGER

@<TRIPOS>ATOM
      1  CHA       38.9950   56.9960  -42.4520 C.2   142  HEM142      0.0000
      2  CHB       40.0810   52.9260  -44.8680 C.2   142  HEM142      0.0000
      3  CHC       42.6480   51.3140  -41.0760 C.2   142  HEM142      0.0000
      4  CHD       41.5990   55.3750  -38.6180 C.2   142  HEM142      0.0000
      5  C1A       39.0600   56.0350  -43.4360 C.ar  142  HEM142      0.0000
      6  C2A       38.4260   56.1070  -44.7390 C.ar  142  HEM142      0.0000
      7  C3A       38.7240   54.9850  -45.4020 C.ar  142  HEM142      0.0000
      8  C4A       39.5610   54.1630  -44.5490 C.ar  142  HEM142      0.0000
      9  CMA       38.2650   54.6250  -46.8320 C.3   142  HEM142      0.0000
     10  CAA       37.5520   57.2710  -45.2640 C.3   142  HEM142      0.0000
     11  CBA       38.4230   58.4510  -45.6840 C.3   142  HEM142      0.0000
     12  CGA       37.5650   59.5160  -46.3190 C.2   142  HEM142      0.0000
     13  O1A       37.2120   60.5020  -45.6220 O.co2 142  HEM142      0.0000
     14  O2A       37.2330   59.3820  -47.5250 O.co2 142  HEM142      0.0000
     15  C1B       40.8720   52.1360  -44.0600 C.2   142  HEM142      0.0000
     16  C2B       41.4160   50.8350  -44.4010 C.2   142  HEM142      0.0000
     17  C3B       42.1210   50.3920  -43.3610 C.2   142  HEM142      0.0000
     18  C4B       42.0520   51.3930  -42.3150 C.2   142  HEM142      0.0000
     19  CMB       41.2180   50.0870  -45.7370 C.3   142  HEM142      0.0000
     20  CAB       42.8770   49.0480  -43.2870 C.2   142  HEM142      0.0000
     21  CBB       42.2210   47.8960  -43.4570 C.2   142  HEM142      0.0000
     22  C1C       42.5850   52.2670  -40.0840 C.ar  142  HEM142      0.0000
     23  C2C       43.2120   52.1760  -38.7820 C.ar  142  HEM142      0.0000
     24  C3C       42.9240   53.2900  -38.1080 C.ar  142  HEM142      0.0000
     25  C4C       42.1030   54.1360  -38.9540 C.ar  142  HEM142      0.0000
     26  CMC       44.0670   51.0000  -38.2620 C.3   142  HEM142      0.0000
     27  CAC       43.3920   53.6140  -36.6740 C.2   142  HEM142      0.0000
     28  CBC       42.9640   52.8640  -35.6530 C.2   142  HEM142      0.0000
     29  C1D       40.8110   56.1910  -39.4040 C.2   142  HEM142      0.0000
     30  C2D       40.3010   57.4880  -39.0080 C.2   142  HEM142      0.0000
     31  C3D       39.4860   57.9940  -40.2030 C.2   142  HEM142      0.0000
     32  C4D       39.5860   56.9520  -41.2050 C.2   142  HEM142      0.0000
     33  CMD       40.5220   58.2180  -37.6660 C.3   142  HEM142      0.0000
     34  CAD       38.7320   59.3400  -40.3040 C.3   142  HEM142      0.0000
     35  CBD       37.5020   59.3350  -39.4040 C.3   142  HEM142      0.0000
     36  CGD       36.9520   60.7360  -39.3150 C.2   142  HEM142      0.0000
     37  O1D       36.1620   61.1300  -40.2110 O.co2 142  HEM142      0.0000
     38  O2D       37.3050   61.4620  -38.3490 O.co2 142  HEM142      0.0000
     39  NA        39.7400   54.8340  -43.3540 N.ar  142  HEM142      0.0000
     40  NB        41.2840   52.4440  -42.7760 N.2   142  HEM142      0.0000
     41  NC        41.9150   53.4750  -40.1530 N.ar  142  HEM142      0.0000
     42  ND        40.3700   55.9150  -40.6970 N.2   142  HEM142      0.0000
     43 FE         40.8380   54.1580  -41.7380 Fe    142  HEM142      0.0000
@<TRIPOS>BOND
     1    14    12   ar
     2     9     7    1
     3    12    11    1
     4    12    13   ar
     5    19    16    1
     6    11    10    1
     7     7     6   ar
     8     7     8   ar
     9    10     6    1
    10     2     8    2
    11     2    15    1
    12     6     5   ar
    13     8    39   ar
    14    16    15    1
    15    16    17    2
    16    15    40    2
    17    21    20    2
    18     5    39   ar
    19     5     1    2
    20    17    20    1
    21    17    18    1
    22    39    43    1
    23    40    18    1
    24    40    43    1
    25     1    32    1
    26    18     3    2
    27    43    42    1
    28    43    41    1
    29    32    42    2
    30    32    31    1
    31     3    22    1
    32    42    29    1
    33    34    31    1
    34    34    35    1
    35    37    36   ar
    36    31    30    2
    37    41    22   ar
    38    41    25   ar
    39    22    23   ar
    40    29    30    1
    41    29     4    2
    42    35    36    1
    43    36    38   ar
    44    30    33    1
    45    25     4    1
    46    25    24   ar
    47    23    26    1
    48    23    24   ar
    49    24    27    1
    50    27    28    2
