@<TRIPOS>MOLECULE
3szl_H6P_A_1.pdb
 15 14 0 0 0
SMALL
GASTEIGER

@<TRIPOS>ATOM
      1  P13      -26.2900   -2.1380  -16.6280 P.3   998  H6P998      0.2233
      2  O14      -24.8700   -2.3210  -17.1550 O.2   998  H6P998     -0.5169
      3  O15      -27.2750   -3.1740  -16.9900 O.3   998  H6P998     -0.4370
      4  O16      -26.9420   -0.6970  -16.9090 O.3   998  H6P998     -0.2261
      5  P17      -26.2020    0.7250  -16.9060 P.3   998  H6P998      0.5373
      6  O18      -25.0610    0.8080  -15.8750 O.3   998  H6P998     -0.1143
      7  O19      -25.6950    0.8970  -18.3350 O.2   998  H6P998     -0.2221
      8  O20      -27.3230    1.7050  -16.6630 O.3   998  H6P998     -0.1143
      9  C21      -30.1900   -1.1110  -14.6380 C.3   998  H6P998      0.0287
     10  C27      -27.7220   -0.6960  -14.0360 C.2   998  H6P998      0.0001
     11  C28      -27.1910   -2.0950  -14.0590 C.3   998  H6P998      0.1748
     12  O29      -26.1150   -2.2160  -15.0100 O.3   998  H6P998     -0.3089
     13  C30      -29.0030   -0.2630  -14.2730 C.2   998  H6P998     -0.0131
     14  C31      -29.3550    1.2390  -14.1990 C.3   998  H6P998      0.2042
     15  O33      -29.8070    1.3920  -12.7550 O.3   998  H6P998     -0.2155
@<TRIPOS>BOND
     1     7     5    2
     2     2     1    2
     3     3     1    1
     4     4     5    1
     5     4     1    1
     6     5     8    1
     7     5     6    1
     8     1    12    1
     9    12    11    1
    10     9    13    1
    11    13    14    1
    12    13    10    2
    13    14    15    1
    14    11    10    1
