@<TRIPOS>MOLECULE
3szn_G75_A_1.pdb
 37 39 0 0 0
SMALL
GASTEIGER

@<TRIPOS>ATOM
      1  O88      -15.5750   -3.5390  -26.4080 O.2   307  G75307     -0.2501
      2  C84      -16.2060   -3.7710  -25.3850 C.2   307  G75307      0.3170
      3  O86      -17.6570   -3.6600  -25.4760 O.3   307  G75307     -0.4485
      4  C3       -18.2520   -3.2290  -26.6990 C.3   307  G75307      0.2086
      5  C5       -18.0690   -1.7290  -26.8510 C.3   307  G75307      0.0513
      6  C82      -15.5440   -4.1640  -24.0610 C.3   307  G75307      0.1113
      7  C63      -14.2850   -3.3570  -23.6670 C.3   307  G75307      0.0333
      8  C57      -14.5460   -1.8640  -23.8560 C.3   307  G75307      0.0970
      9  C59      -13.2380   -1.0560  -23.8630 C.3   307  G75307      0.0383
     10  C61      -13.5220    0.3580  -24.3390 C.3   307  G75307      0.1100
     11  C65      -12.2760    1.1780  -24.4650 C.1   307  G75307      0.1250
     12  O66      -11.3820    1.2140  -23.6370 O.2   307  G75307     -0.2271
     13  N69      -12.3280    1.8870  -25.5950 N.2   307  G75307     -0.2063
     14  C71      -13.4850    1.6500  -26.4480 C.3   307  G75307      0.1387
     15  C73      -14.0410    0.3900  -25.7770 C.3   307  G75307      0.0438
     16  N49      -15.3450   -1.4580  -22.7000 N.am  307  G75307     -0.2057
     17  C39      -16.5640   -0.9230  -22.8500 C.2   307  G75307      0.2616
     18  O47      -17.0750   -0.6830  -23.9310 O.2   307  G75307     -0.2715
     19  C37      -17.3060   -0.5320  -21.6080 C.3   307  G75307      0.1804
     20  C41      -18.3950   -1.4750  -21.1120 C.3   307  G75307      0.0575
     21  C51      -18.7570   -0.7570  -19.8270 C.ar  307  G75307     -0.0200
     22  C55      -19.8570    0.1070  -19.7610 C.ar  307  G75307     -0.0042
     23  C11      -20.1640    0.7840  -18.5850 C.ar  307  G75307     -0.0003
     24  C9       -19.3470    0.6060  -17.4720 C.ar  307  G75307     -0.0000
     25  C7       -18.2440   -0.2390  -17.5330 C.ar  307  G75307     -0.0003
     26  C53      -17.9420   -0.9150  -18.7080 C.ar  307  G75307     -0.0042
     27  N33      -18.0610    0.6640  -21.8960 N.am  307  G75307     -0.1607
     28  C31      -17.4230    1.8080  -22.0110 C.2   307  G75307      0.4219
     29  O35      -16.2110    1.8830  -21.8810 O.2   307  G75307     -0.2245
     30  O1       -18.1900    2.9940  -22.3490 O.3   307  G75307     -0.4285
     31  C1       -17.5270    4.1250  -22.9260 C.3   307  G75307      0.2368
     32  C2       -17.0830    3.9620  -24.3720 C.ar  307  G75307      0.0213
     33  C4       -16.2590    4.9480  -24.9230 C.ar  307  G75307     -0.0007
     34  C6       -15.8280    4.8600  -26.2480 C.ar  307  G75307     -0.0002
     35  C8       -16.2240    3.7780  -27.0390 C.ar  307  G75307     -0.0000
     36  C12      -17.0470    2.7860  -26.4960 C.ar  307  G75307     -0.0002
     37  C10      -17.4750    2.8760  -25.1670 C.ar  307  G75307     -0.0007
@<TRIPOS>BOND
     1    35    36   ar
     2    35    34   ar
     3     5     4    1
     4     4     3    1
     5    36    37   ar
     6    14    15    1
     7    14    13    1
     8     1     2    2
     9    34    33   ar
    10    15    10    1
    11    13    11    2
    12     3     2    1
    13     2     6    1
    14    37    32   ar
    15    33    32   ar
    16    11    10    1
    17    11    12    2
    18    32    31    1
    19    10     9    1
    20     6     7    1
    21    18    17    2
    22     9     8    1
    23     8     7    1
    24     8    16    1
    25    31    30    1
    26    17    16   am
    27    17    19    1
    28    30    28    1
    29    28    27   am
    30    28    29    2
    31    27    19    1
    32    19    20    1
    33    20    21    1
    34    21    22   ar
    35    21    26   ar
    36    22    23   ar
    37    26    25   ar
    38    23    24   ar
    39    25    24   ar
