@<TRIPOS>MOLECULE
3szo_H6P_A_1.pdb
 15 14 0 0 0
SMALL
GASTEIGER

@<TRIPOS>ATOM
      1  P13      -26.2580   -2.1370  -16.5990 P.3   998  H6P998      0.2233
      2  O14      -24.8420   -2.3000  -17.1330 O.2   998  H6P998     -0.5169
      3  O15      -27.2310   -3.1680  -16.9330 O.3   998  H6P998     -0.4370
      4  O16      -26.9210   -0.6930  -16.8630 O.3   998  H6P998     -0.2261
      5  P17      -26.1600    0.7260  -16.8780 P.3   998  H6P998      0.5373
      6  O18      -25.0220    0.8330  -15.8390 O.3   998  H6P998     -0.1143
      7  O19      -25.6490    0.8870  -18.3050 O.2   998  H6P998     -0.2221
      8  O20      -27.2840    1.6990  -16.6230 O.3   998  H6P998     -0.1143
      9  C21      -30.1280   -1.1060  -14.5970 C.3   998  H6P998      0.0287
     10  C27      -27.6900   -0.7060  -14.0300 C.2   998  H6P998      0.0001
     11  C28      -27.1490   -2.1000  -14.0450 C.3   998  H6P998      0.1748
     12  O29      -26.0830   -2.1940  -14.9880 O.3   998  H6P998     -0.3089
     13  C30      -28.9710   -0.2570  -14.2250 C.2   998  H6P998     -0.0131
     14  C31      -29.3100    1.2180  -14.1870 C.3   998  H6P998      0.2042
     15  O33      -29.7570    1.4000  -12.7360 O.3   998  H6P998     -0.2155
@<TRIPOS>BOND
     1     7     5    2
     2     2     1    2
     3     3     1    1
     4     5     4    1
     5     5     8    1
     6     5     6    1
     7     4     1    1
     8     1    12    1
     9    12    11    1
    10     9    13    1
    11    13    14    1
    12    13    10    2
    13    14    15    1
    14    11    10    1
