@<TRIPOS>MOLECULE
3szq_AMP_A_1.pdb
 23 25 0 0 0
SMALL
GASTEIGER

@<TRIPOS>ATOM
      1  P         22.5900  102.1700    7.0200 P.3     1  AMP1        0.5327
      2  O1P       22.6320  102.1020    8.5230 O.3     1  AMP1       -0.1145
      3  O2P       21.8820  103.3820    6.4580 O.3     1  AMP1       -0.1145
      4  O3P       22.3110  100.8660    6.3400 O.2     1  AMP1       -0.2224
      5  O5'       24.0720  102.4550    6.5330 O.3     1  AMP1       -0.2675
      6  C5'       25.1770  102.3690    7.4200 C.3     1  AMP1        0.1860
      7  C4'       26.4630  102.6330    6.6870 C.3     1  AMP1        0.1823
      8  O4'       27.5550  102.7130    7.6300 O.3     1  AMP1       -0.3135
      9  C3'       26.8450  101.5610    5.6620 C.3     1  AMP1        0.2184
     10  O3'       27.0260  102.1750    4.3910 O.3     1  AMP1       -0.2174
     11  C2'       28.1860  101.0000    6.1760 C.3     1  AMP1        0.2570
     12  O2'       29.1070  100.6610    5.1630 O.3     1  AMP1       -0.2130
     13  C1'       28.7000  102.1380    7.0520 C.3     1  AMP1        0.3186
     14  N9        29.5770  101.7280    8.1470 N.pl3   1  AMP1       -0.1439
     15  C8        29.4240  100.6510    8.9300 C.3     1  AMP1        0.3377
     16  N7        30.3740  100.6230    9.8860 N.2     1  AMP1       -0.2095
     17  C5        31.1540  101.7030    9.7340 C.2     1  AMP1        0.2526
     18  C6        32.3430  102.2670   10.4100 C.2     1  AMP1        0.4393
     19  N6        32.8960  101.6380   11.4730 N.pl3   1  AMP1        0.2180
     20  N1        32.8520  103.4270    9.9360 N.2     1  AMP1        0.0021
     21  C2        32.3040  104.0540    8.8790 C.3     1  AMP1        0.5254
     22  N3        31.2310  103.5840    8.2150 N.2     1  AMP1       -0.0055
     23  C4        30.6230  102.4340    8.5850 C.2     1  AMP1        0.3518
@<TRIPOS>BOND
     1    10     9    1
     2    12    11    1
     3     9    11    1
     4     9     7    1
     5    11    13    1
     6     4     1    2
     7     3     1    1
     8     5     1    1
     9     5     6    1
    10     7     6    1
    11     7     8    1
    12     1     2    1
    13    13     8    1
    14    13    14    1
    15    14    23    1
    16    14    15    1
    17    22    23    2
    18    22    21    1
    19    23    17    1
    20    21    20    1
    21    15    16    1
    22    17    16    2
    23    17    18    1
    24    20    18    2
    25    18    19    1
