@<TRIPOS>MOLECULE
3szt_OHN_A_1.pdb
 21 21 0 0 0
SMALL
GASTEIGER

@<TRIPOS>ATOM
      1  C21       40.0940   11.0260    4.4750 C.3   238  OHN238      0.0000
      2  C20       39.8430   10.4310    3.1170 C.3   238  OHN238      0.0000
      3  C19       40.2280   11.4730    2.0920 C.3   238  OHN238      0.0000
      4  C18       40.0060   10.9190    0.6980 C.3   238  OHN238      0.0000
      5  C17       40.8720   11.6610   -0.2960 C.3   238  OHN238      0.0000
      6  C16       40.0590   12.7560   -0.9690 C.3   238  OHN238      0.0000
      7  C15       41.0210   13.6900   -1.7110 C.3   238  OHN238      0.0004
      8  C14       40.2710   14.9050   -2.2340 C.3   238  OHN238      0.0078
      9  C13       40.7070   16.0390   -1.3380 C.3   238  OHN238      0.0650
     10  C11       39.8780   17.2670   -1.5360 C.2   238  OHN238      0.1599
     11  O12       39.8810   17.8470   -2.6080 O.2   238  OHN238     -0.2955
     12  C10       39.1040   17.7840   -0.3690 C.3   238  OHN238      0.1510
     13  C8        38.7630   19.2380   -0.5670 C.2   238  OHN238      0.2493
     14  O9        37.7790   19.5030   -1.2160 O.2   238  OHN238     -0.2729
     15  N7        39.5410   20.1660   -0.0250 N.am  238  OHN238     -0.1952
     16  C1        39.1770   21.5290   -0.2840 C.3   238  OHN238      0.1971
     17  C5        39.2040   22.4440    0.9380 C.3   238  OHN238      0.0805
     18  C4        39.7880   23.7950    0.4910 C.3   238  OHN238      0.2109
     19  C2        40.1410   22.2170   -1.1720 C.2   238  OHN238      0.3371
     20  O6        40.5820   21.7470   -2.1860 O.2   238  OHN238     -0.2482
     21  OAP       40.4860   23.5200   -0.7100 O.3   238  OHN238     -0.4473
@<TRIPOS>BOND
     1    11    10    2
     2     8     7    1
     3     8     9    1
     4    20    19    2
     5     7     6    1
     6    10     9    1
     7    10    12    1
     8    14    13    2
     9    19    21    1
    10    19    16    1
    11     6     5    1
    12    21    18    1
    13    13    12    1
    14    13    15   am
    15     5     4    1
    16    16    15    1
    17    16    17    1
    18    18    17    1
    19     4     3    1
    20     3     2    1
    21     2     1    1
