@<TRIPOS>MOLECULE
3szu_H6P_A_1.pdb
 15 14 0 0 0
SMALL
GASTEIGER

@<TRIPOS>ATOM
      1  P13      -26.1620   -2.0880  -16.1730 P.3   998  H6P998      0.2233
      2  O14      -24.7890   -2.2920  -16.7100 O.3   998  H6P998     -0.4370
      3  O15      -27.2150   -2.9540  -16.7560 O.2   998  H6P998     -0.5169
      4  O16      -26.6420   -0.5990  -16.4110 O.3   998  H6P998     -0.2261
      5  P17      -25.8780    0.8350  -16.4420 P.3   998  H6P998      0.5373
      6  O18      -24.6680    0.7550  -15.6070 O.3   998  H6P998     -0.1143
      7  O19      -25.5940    1.0380  -17.9300 O.2   998  H6P998     -0.2221
      8  O20      -26.9030    1.8170  -15.9360 O.3   998  H6P998     -0.1143
      9  C21      -30.0670   -1.4410  -14.4050 C.3   998  H6P998      0.0287
     10  C27      -27.7430   -0.8840  -13.5790 C.2   998  H6P998      0.0001
     11  C28      -27.1930   -2.2610  -13.6550 C.3   998  H6P998      0.1748
     12  O29      -26.0090   -2.2800  -14.5950 O.3   998  H6P998     -0.3089
     13  C30      -28.9660   -0.5240  -13.9510 C.2   998  H6P998     -0.0131
     14  C31      -29.4210    0.9020  -13.7640 C.3   998  H6P998      0.2042
     15  O33      -29.4660    1.5650  -15.0450 O.3   998  H6P998     -0.2155
@<TRIPOS>BOND
     1     7     5    2
     2     3     1    2
     3     2     1    1
     4     5     4    1
     5     5     8    1
     6     5     6    1
     7     4     1    1
     8     1    12    1
     9    15    14    1
    10    12    11    1
    11     9    13    1
    12    13    14    1
    13    13    10    2
    14    11    10    1
