@<TRIPOS>MOLECULE
3szv_C8E_A_1.pdb
 19 18 0 0 0
SMALL
GASTEIGER

@<TRIPOS>ATOM
      1  C3        26.2420  -44.1220   16.7320 C.3   385  C8E385      0.0000
      2  C4        26.6650  -44.6800   18.0860 C.3   385  C8E385      0.0000
      3  C5        27.8130  -43.8750   18.6830 C.3   385  C8E385      0.0001
      4  C6        28.0220  -44.2350   20.1480 C.3   385  C8E385      0.0026
      5  C7        28.3340  -42.9940   20.9680 C.3   385  C8E385      0.0321
      6  C8        29.7170  -43.0650   21.5990 C.3   385  C8E385      0.1423
      7  O9        29.5780  -43.1220   23.0000 O.3   385  C8E385     -0.3511
      8  C10       30.8240  -43.2100   23.6540 C.3   385  C8E385      0.1741
      9  C11       30.9640  -41.9520   24.5060 C.3   385  C8E385      0.1742
     10  O12       31.8530  -42.1490   25.5830 O.3   385  C8E385     -0.3484
     11  C13       32.4770  -40.9410   25.9610 C.3   385  C8E385      0.1742
     12  C14       33.9870  -41.1170   26.0190 C.3   385  C8E385      0.1742
     13  O15       34.5060  -40.7520   24.7650 O.3   385  C8E385     -0.3484
     14  C16       35.6480  -41.4830   24.3880 C.3   385  C8E385      0.1742
     15  C17       36.4170  -40.6110   23.4040 C.3   385  C8E385      0.1742
     16  O18       37.4630  -39.9200   24.0460 O.3   385  C8E385     -0.3483
     17  C19       38.3570  -39.3870   23.0950 C.3   385  C8E385      0.1777
     18  C20       39.0210  -38.1220   23.6220 C.3   385  C8E385      0.2140
     19  O21       40.2300  -37.9360   22.9180 O.3   385  C8E385     -0.2176
@<TRIPOS>BOND
     1     1     2    1
     2     2     3    1
     3     3     4    1
     4     4     5    1
     5     5     6    1
     6     6     7    1
     7    19    18    1
     8     7     8    1
     9    17    18    1
    10    17    16    1
    11    15    16    1
    12    15    14    1
    13     8     9    1
    14    14    13    1
    15     9    10    1
    16    13    12    1
    17    10    11    1
    18    11    12    1
