@<TRIPOS>MOLECULE
3szw_DCQ_A_1.pdb
 23 23 0 0 0
SMALL
GASTEIGER

@<TRIPOS>ATOM
      1  O2        40.4860  -12.7490    7.2270 O.3   502  DCQ502     -0.2836
      2  C2        41.6510  -12.0940    7.3980 C.ar  502  DCQ502      0.2282
      3  C3        42.5980  -12.5830    8.2800 C.ar  502  DCQ502      0.2140
      4  O3        42.3470  -13.7360    8.9920 O.3   502  DCQ502     -0.4652
      5  C3M       42.6300  -15.0240    8.4480 C.3   502  DCQ502      0.2528
      6  C4        43.8360  -11.8680    8.4580 C.ar  502  DCQ502      0.2140
      7  O4        44.8010  -12.3180    9.3280 O.3   502  DCQ502     -0.4652
      8  C4M       45.2110  -11.5060   10.3970 C.3   502  DCQ502      0.2528
      9  C5        44.0750  -10.7070    7.7390 C.ar  502  DCQ502      0.2282
     10  O5        45.2700  -10.0100    7.8960 O.3   502  DCQ502     -0.2836
     11  C1        41.9040  -10.9240    6.6850 C.ar  502  DCQ502      0.0195
     12  C1M       40.8790  -10.3700    5.7050 C.3   502  DCQ502      0.0343
     13  C6        43.1210  -10.2340    6.8580 C.ar  502  DCQ502      0.0192
     14  C7        43.4150   -8.8990    6.0560 C.3   502  DCQ502      0.0298
     15  C8        43.3340   -7.6400    6.8170 C.3   502  DCQ502      0.0094
     16  C9        41.9700   -6.8730    6.7780 C.3   502  DCQ502      0.0260
     17  C10       42.0090   -5.3930    6.5980 C.2   502  DCQ502     -0.0307
     18  C11       42.3730   -4.8640    5.1790 C.2   502  DCQ502     -0.0304
     19  C12       42.5840   -5.8690    4.1180 C.3   502  DCQ502      0.0303
     20  C13       41.5040   -5.9880    2.9870 C.3   502  DCQ502      0.0303
     21  C14       42.0050   -5.8240    1.5220 C.2   502  DCQ502     -0.0303
     22  C15       40.9810   -5.7570    0.4040 C.2   502  DCQ502     -0.0303
     23  C16       41.4980   -5.5970   -1.0260 C.3   502  DCQ502      0.0303
@<TRIPOS>BOND
     1    23    22    1
     2    22    21    2
     3    21    20    1
     4    20    19    1
     5    19    18    1
     6    18    17    2
     7    12    11    1
     8    14    15    1
     9    14    13    1
    10    17    16    1
    11    11    13   ar
    12    11     2   ar
    13    16    15    1
    14    13     9   ar
    15     1     2    1
    16     2     3   ar
    17     9    10    1
    18     9     6   ar
    19     3     6   ar
    20     3     4    1
    21     5     4    1
    22     6     7    1
    23     7     8    1
