@<TRIPOS>MOLECULE
3t03_3T0_A_1.pdb
 25 27 0 0 0
SMALL
GASTEIGER

@<TRIPOS>ATOM
      1  CAA      -17.7410   22.0290  -17.4400 C.3     2  3T02        0.2525
      2  CAB      -15.1420   20.3890   -7.7010 C.3     2  3T02        0.0310
      3  OAC      -18.7080   26.4060  -10.3380 O.2     2  3T02       -0.2623
      4  OAD      -19.7640   22.4480  -12.8040 O.2     2  3T02       -0.2735
      5 BRAE      -21.4580   27.8980  -18.7520 Br      2  3T02       -0.0490
      6  CAF      -19.3750   23.9980  -14.9160 C.3     2  3T02        0.0499
      7  CAG      -16.4810   21.2160   -9.8760 C.ar    2  3T02       -0.0045
      8  CAH      -17.2540   21.8640   -7.5540 C.ar    2  3T02       -0.0045
      9  CAI      -19.4870   25.7140  -18.9040 C.ar    2  3T02        0.0098
     10  CAJ      -17.5650   22.0150  -10.4880 C.ar    2  3T02       -0.0029
     11  CAK      -18.3790   22.6620   -8.1600 C.ar    2  3T02       -0.0029
     12  CAL      -18.7290   24.5370  -18.4930 C.ar    2  3T02        0.0371
     13  CAM      -20.4800   26.0290  -16.4870 C.ar    2  3T02        0.0055
     14  CAN      -19.6440   23.5260  -10.1130 C.3     2  3T02        0.1282
     15  OAO      -18.0710   23.0630  -16.5940 O.3     2  3T02       -0.4717
     16  SAP      -18.6260   26.1050  -12.9910 S.3     2  3T02       -0.0480
     17  CAQ      -16.2880   21.1430   -8.3900 C.ar    2  3T02       -0.0219
     18  CAR      -20.3900   26.4300  -18.0100 C.ar    2  3T02        0.0345
     19  CAS      -18.5020   22.7440   -9.5960 C.ar    2  3T02       -0.0019
     20  CAT      -19.7120   24.8060  -16.1050 C.ar    2  3T02        0.0136
     21  CAU      -18.8220   24.1030  -17.0690 C.ar    2  3T02        0.1348
     22  CAV      -18.9100   25.6910  -11.2910 C.2     2  3T02        0.2827
     23  CAW      -19.4140   23.6720  -12.5180 C.2     2  3T02        0.2427
     24  CAX      -19.1530   24.5850  -13.5890 C.3     2  3T02        0.1373
     25  NAY      -19.3140   24.3230  -11.2880 N.am    2  3T02       -0.2163
@<TRIPOS>BOND
     1     9    12   ar
     2     9    18   ar
     3     5    18    1
     4    12    21   ar
     5    18    13   ar
     6     1    15    1
     7    21    15    1
     8    21    20   ar
     9    13    20   ar
    10    20     6    1
    11     6    24    1
    12    24    16    1
    13    24    23    1
    14    16    22    1
    15     4    23    2
    16    23    25   am
    17    22    25   am
    18    22     3    2
    19    25    14    1
    20    10     7   ar
    21    10    19   ar
    22    14    19    1
    23     7    17   ar
    24    19    11   ar
    25    17     2    1
    26    17     8   ar
    27    11     8   ar
