@<TRIPOS>MOLECULE
3t07_09C_B_1.pdb
 27 31 0 0 0
SMALL
GASTEIGER

@<TRIPOS>ATOM
      1  C1        -9.4760    1.1630    3.1150 C.1   586  09C586      0.1530
      2  N1       -11.4350    1.1700    1.8630 N.2   586  09C586     -0.2533
      3  O1        -8.8820    1.5090    4.1370 O.2   586  09C586     -0.2247
      4  C2       -10.5650    2.0590    2.5930 C.3   586  09C586      0.2313
      5  N2        -9.1420   -0.0410    2.3980 N.2   586  09C586     -0.1979
      6  N3       -14.7080   -0.6240    1.5210 N.2   586  09C586     -0.2438
      7  N4       -13.5710    2.4070    4.6240 N.2   586  09C586     -0.2441
      8 BR1       -16.3390   -4.0040   -1.8690 Br    586  09C586     -0.0533
      9 BR2       -13.4040    6.3340    8.0210 Br    586  09C586     -0.0533
     10  C3       -13.6020   -3.0480   -1.5220 C.3   586  09C586      0.0592
     11  C4       -11.3270    5.4640    6.0840 C.3   586  09C586      0.0592
     12  C5       -12.6490   -2.2430   -0.8770 C.2   586  09C586     -0.0193
     13  C6       -10.8490    4.6130    5.0630 C.2   586  09C586     -0.0196
     14  C7       -13.5460   -0.0720    1.8220 C.2   586  09C586      0.1000
     15  C8       -12.7790    1.8880    3.7060 C.2   586  09C586      0.0975
     16  C9       -15.3940   -2.2220   -0.1060 C.2   586  09C586      0.0218
     17  C10      -13.3950    4.2660    6.1690 C.2   586  09C586      0.0218
     18  C11       -9.8460   -0.4940    1.1390 C.3   586  09C586      0.1825
     19  C12      -11.2630    0.0070    1.2610 C.2   586  09C586      0.0822
     20  C13      -14.9480   -3.0160   -1.1190 C.2   586  09C586      0.0182
     21  C14      -12.6070    5.2870    6.6380 C.2   586  09C586      0.0182
     22  C15      -12.5440   -0.5020    1.0390 C.2   586  09C586      0.0354
     23  C16      -11.6050    2.5270    3.6580 C.2   586  09C586      0.0358
     24  C17      -14.4750   -1.4460    0.5240 C.2   586  09C586      0.0813
     25  C18      -12.9410    3.4310    5.1750 C.2   586  09C586      0.0810
     26  C19      -13.1050   -1.4330    0.1640 C.2   586  09C586      0.0164
     27  C20      -11.6690    3.5760    4.5980 C.2   586  09C586      0.0141
@<TRIPOS>BOND
     1     8    20    1
     2    10    20    1
     3    10    12    1
     4    20    16    2
     5    12    26    2
     6    16    24    1
     7    26    24    1
     8    26    22    1
     9    24     6    2
    10    22    19    1
    11    22    14    2
    12    18    19    1
    13    18     5    1
    14    19     2    2
    15     6    14    1
    16     2     4    1
    17     5     1    2
    18     4     1    1
    19     4    23    1
    20     1     3    2
    21    23    15    2
    22    23    27    1
    23    15     7    1
    24    27    13    2
    25    27    25    1
    26     7    25    2
    27    13    11    1
    28    25    17    1
    29    11    21    1
    30    17    21    2
    31    21     9    1
