@<TRIPOS>MOLECULE
3t08_IPT_A_1.pdb
 15 15 0 0 0
SMALL
GASTEIGER

@<TRIPOS>ATOM
      1  C1       -14.6760  -27.5230  -26.4000 C.3   2001  IPT2001     0.1955
      2  C2       -13.3840  -27.3280  -25.6060 C.3   2001  IPT2001     0.2219
      3  O2       -13.5120  -26.1960  -24.7450 O.3   2001  IPT2001    -0.2167
      4  C3       -12.1940  -27.1100  -26.5390 C.3   2001  IPT2001     0.2181
      5  O3       -10.9950  -27.1630  -25.7700 O.3   2001  IPT2001    -0.2175
      6  C4       -12.1430  -28.1460  -27.6650 C.3   2001  IPT2001     0.2143
      7  O4       -11.7450  -29.4210  -27.1280 O.3   2001  IPT2001    -0.2176
      8  C5       -13.5240  -28.2240  -28.3360 C.3   2001  IPT2001     0.1820
      9  O5       -14.4970  -28.5720  -27.3510 O.3   2001  IPT2001    -0.3398
     10  C6       -13.6380  -29.2130  -29.4910 C.3   2001  IPT2001     0.2142
     11  O6       -12.4290  -29.2080  -30.2640 O.3   2001  IPT2001    -0.2176
     12  S1       -15.9820  -28.0010  -25.3310 S.3   2001  IPT2001    -0.1102
     13  C1'      -17.4290  -27.4040  -26.1670 C.3   2001  IPT2001     0.0500
     14  C2'      -17.7570  -28.2470  -27.4010 C.3   2001  IPT2001     0.0117
     15  C3'      -18.6010  -27.4200  -25.1900 C.3   2001  IPT2001     0.0117
@<TRIPOS>BOND
     1    11    10    1
     2    10     8    1
     3     8     6    1
     4     8     9    1
     5     6     7    1
     6     6     4    1
     7    14    13    1
     8     9     1    1
     9     4     5    1
    10     4     2    1
    11     1     2    1
    12     1    12    1
    13    13    12    1
    14    13    15    1
    15     2     3    1
