@<TRIPOS>MOLECULE
3t09_149_A_1.pdb
 12 12 0 0 0
SMALL
GASTEIGER

@<TRIPOS>ATOM
      1  C1        53.9660   -8.9740   28.8870 C.2   2001  1492001     0.3505
      2  C2        53.7240   -8.0440   27.7260 C.3   2001  1492001     0.2823
      3  C3        52.5340   -7.1500   28.0210 C.3   2001  1492001     0.2270
      4  C4        51.4130   -8.0330   28.5680 C.3   2001  1492001     0.2276
      5  C5        51.7740   -8.5330   29.9710 C.3   2001  1492001     0.2344
      6  C6        50.7940   -9.5750   30.5180 C.3   2001  1492001     0.2281
      7  O1        54.9720   -9.6420   28.9110 O.2   2001  1492001    -0.2472
      8  O2        54.8980   -7.2550   27.4600 O.3   2001  1492001    -0.2082
      9  O3        52.1110   -6.5110   26.8110 O.3   2001  1492001    -0.2169
     10  O4        51.1790   -9.1360   27.6780 O.3   2001  1492001    -0.2163
     11  O5        53.0670   -9.1430   30.0370 O.3   2001  1492001    -0.4450
     12  O6        49.4890   -9.0040   30.5930 O.3   2001  1492001    -0.2163
@<TRIPOS>BOND
     1     9     3    1
     2     8     2    1
     3    10     4    1
     4     2     3    1
     5     2     1    1
     6     3     4    1
     7     4     5    1
     8     1     7    2
     9     1    11    1
    10     5    11    1
    11     5     6    1
    12     6    12    1
