@<TRIPOS>MOLECULE
3t0b_IPT_A_1.pdb
 15 15 0 0 0
SMALL
GASTEIGER

@<TRIPOS>ATOM
      1  C1       -14.8130  -27.5580  -26.1290 C.3   2001  IPT2001     0.1955
      2  C2       -13.4780  -27.3620  -25.3940 C.3   2001  IPT2001     0.2219
      3  O2       -13.5430  -26.2460  -24.5130 O.3   2001  IPT2001    -0.2167
      4  C3       -12.2960  -27.1720  -26.3490 C.3   2001  IPT2001     0.2181
      5  O3       -11.0720  -27.2180  -25.6120 O.3   2001  IPT2001    -0.2175
      6  C4       -12.2850  -28.2570  -27.4240 C.3   2001  IPT2001     0.2143
      7  O4       -11.9260  -29.5160  -26.8270 O.3   2001  IPT2001    -0.2176
      8  C5       -13.6730  -28.3040  -28.0770 C.3   2001  IPT2001     0.1820
      9  O5       -14.6490  -28.6080  -27.0850 O.3   2001  IPT2001    -0.3398
     10  C6       -13.8300  -29.3120  -29.2030 C.3   2001  IPT2001     0.2142
     11  O6       -12.7310  -29.2430  -30.1150 O.3   2001  IPT2001    -0.2176
     12  S1       -16.0700  -28.0390  -24.9790 S.3   2001  IPT2001    -0.1102
     13  C1'      -17.6840  -28.2500  -25.6890 C.3   2001  IPT2001     0.0500
     14  C2'      -18.6780  -27.3260  -24.9880 C.3   2001  IPT2001     0.0117
     15  C3'      -17.7310  -28.0770  -27.2060 C.3   2001  IPT2001     0.0117
@<TRIPOS>BOND
     1    11    10    1
     2    10     8    1
     3     8     6    1
     4     8     9    1
     5     6     7    1
     6     6     4    1
     7    15    13    1
     8     9     1    1
     9     4     5    1
    10     4     2    1
    11     1     2    1
    12     1    12    1
    13    13    14    1
    14    13    12    1
    15     2     3    1
