@<TRIPOS>MOLECULE
3t0d_149_A_1.pdb
 12 12 0 0 0
SMALL
GASTEIGER

@<TRIPOS>ATOM
      1  C1       -11.5520  -26.9130  -25.4670 C.2   2001  1492001     0.3505
      2  C2       -10.5260  -27.9010  -24.9710 C.3   2001  1492001     0.2823
      3  C3        -9.7290  -28.4670  -26.1350 C.3   2001  1492001     0.2270
      4  C4       -10.6780  -28.8850  -27.2530 C.3   2001  1492001     0.2276
      5  C5       -11.3760  -27.6600  -27.8460 C.3   2001  1492001     0.2344
      6  C6       -12.5150  -28.0650  -28.7710 C.3   2001  1492001     0.2281
      7  O1       -12.0940  -26.1480  -24.6940 O.2   2001  1492001    -0.2472
      8  O2        -9.6450  -27.3100  -24.0060 O.3   2001  1492001    -0.2082
      9  O3        -9.0010  -29.6080  -25.6760 O.3   2001  1492001    -0.2169
     10  O4       -11.6510  -29.8100  -26.7460 O.3   2001  1492001    -0.2163
     11  O5       -11.9660  -26.8100  -26.8580 O.3   2001  1492001    -0.4450
     12  O6       -11.9970  -28.7430  -29.9140 O.3   2001  1492001    -0.2163
@<TRIPOS>BOND
     1    12     6    1
     2     6     5    1
     3     5     4    1
     4     5    11    1
     5     4    10    1
     6     4     3    1
     7    11     1    1
     8     3     9    1
     9     3     2    1
    10     1     2    1
    11     1     7    2
    12     2     8    1
