@<TRIPOS>MOLECULE
3t0f_H6P_A_1.pdb
 15 14 0 0 0
SMALL
GASTEIGER

@<TRIPOS>ATOM
      1  P13       26.3230    3.0190  -18.0860 P.3   998  H6P998      0.2233
      2  O14       24.9650    3.2590  -18.7460 O.2   998  H6P998     -0.5169
      3  O15       27.3590    4.0230  -18.4770 O.3   998  H6P998     -0.4370
      4  O16       26.9270    1.5560  -18.5500 O.3   998  H6P998     -0.2261
      5  P17       26.1780    0.1730  -18.8620 P.3   998  H6P998      0.5373
      6  O18       24.8810    0.0300  -18.1900 O.3   998  H6P998     -0.1143
      7  O19       25.9120    0.2120  -20.3950 O.2   998  H6P998     -0.2221
      8  O20       27.3410   -0.6850  -18.4700 O.3   998  H6P998     -0.1143
      9  C21       30.3040    2.0820  -15.8640 C.3   998  H6P998      0.0287
     10  C27       27.7900    1.6310  -15.5660 C.2   998  H6P998      0.0001
     11  C28       27.1720    3.0160  -15.6820 C.3   998  H6P998      0.1748
     12  O29       26.0480    2.8920  -16.5110 O.3   998  H6P998     -0.3089
     13  C30       29.0900    1.2220  -15.6160 C.2   998  H6P998     -0.0131
     14  C31       29.3220   -0.2570  -15.3360 C.3   998  H6P998      0.2042
     15  O33       29.4170   -0.9620  -16.5780 O.3   998  H6P998     -0.2155
@<TRIPOS>BOND
     1     7     5    2
     2     5     4    1
     3     5     8    1
     4     5     6    1
     5     2     1    2
     6     4     1    1
     7     3     1    1
     8     1    12    1
     9    15    14    1
    10    12    11    1
    11     9    13    1
    12    11    10    1
    13    13    10    2
    14    13    14    1
