@<TRIPOS>MOLECULE
3t0g_H6P_A_1.pdb
 15 14 0 0 0
SMALL
GASTEIGER

@<TRIPOS>ATOM
      1  P13      -26.2500   -2.2030  -16.5160 P.3   998  H6P998      0.2233
      2  O14      -24.8420   -2.4340  -17.0620 O.2   998  H6P998     -0.5169
      3  O15      -27.3300   -3.0550  -17.0250 O.3   998  H6P998     -0.4370
      4  O16      -26.7090   -0.6870  -16.7670 O.3   998  H6P998     -0.2261
      5  P17      -25.8910    0.7020  -16.8870 P.3   998  H6P998      0.5373
      6  O18      -24.6670    0.6410  -15.9880 O.3   998  H6P998     -0.1143
      7  O19      -25.5780    0.7040  -18.3990 O.2   998  H6P998     -0.2221
      8  O20      -27.0720    1.5130  -16.5620 O.3   998  H6P998     -0.1143
      9  C21      -30.2860   -1.4890  -14.5640 C.3   998  H6P998      0.0287
     10  C27      -27.9410   -0.8520  -13.8960 C.2   998  H6P998      0.0001
     11  C28      -27.4090   -2.2430  -14.0450 C.3   998  H6P998      0.1748
     12  O29      -26.2150   -2.3060  -14.8720 O.3   998  H6P998     -0.3089
     13  C30      -29.2400   -0.5150  -14.1400 C.2   998  H6P998     -0.0131
     14  C31      -29.6740    0.9100  -13.9560 C.3   998  H6P998      0.2042
     15  O33      -29.3300    1.7170  -15.0750 O.3   998  H6P998     -0.2155
@<TRIPOS>BOND
     1     7     5    2
     2     2     1    2
     3     3     1    1
     4     5     4    1
     5     5     8    1
     6     5     6    1
     7     4     1    1
     8     1    12    1
     9    15    14    1
    10    12    11    1
    11     9    13    1
    12    13    14    1
    13    13    10    2
    14    11    10    1
