@<TRIPOS>MOLECULE
3t0i_SAH_A_1.pdb
 26 28 0 0 0
SMALL
GASTEIGER

@<TRIPOS>ATOM
      1  N          7.6780  -13.1540  -10.1340 N.3   301  SAH301     -0.1208
      2  CA         8.1980  -12.6560   -8.8530 C.3   301  SAH301      0.1952
      3  CB         7.5880  -13.4660   -7.7050 C.3   301  SAH301      0.0422
      4  CG         7.8320  -14.9660   -7.8820 C.3   301  SAH301      0.0597
      5  SD         7.1840  -15.9660   -6.4940 S.3   301  SAH301     -0.1375
      6  C          9.7190  -12.8050   -8.8430 C.2   301  SAH301      0.3819
      7  O         10.2200  -13.5070   -9.7590 O.co2 301  SAH301     -0.2441
      8  OXT       10.3500  -12.2160   -7.9480 O.co2 301  SAH301     -0.2441
      9  C5'        5.6290  -16.6190   -7.2080 C.3   301  SAH301      0.0899
     10  C4'        4.5050  -15.5870   -7.3070 C.3   301  SAH301      0.1630
     11  O4'        3.3170  -16.2420   -7.7840 O.3   301  SAH301     -0.3153
     12  C3'        4.1620  -15.0210   -5.9250 C.3   301  SAH301      0.2168
     13  O3'        4.0790  -13.5950   -6.0060 O.3   301  SAH301     -0.2175
     14  C2'        2.7900  -15.6310   -5.6400 C.3   301  SAH301      0.2569
     15  O2'        2.0180  -14.7270   -4.8450 O.3   301  SAH301     -0.2130
     16  C1'        2.2280  -15.6450   -7.0610 C.3   301  SAH301      0.3185
     17  N9         1.0090  -16.4810   -7.1650 N.pl3 301  SAH301     -0.1439
     18  C8         0.8140  -17.6530   -6.5610 C.3   301  SAH301      0.3377
     19  N7        -0.3480  -18.1710   -6.9650 N.2   301  SAH301     -0.2095
     20  C5        -0.8950  -17.3320   -7.8190 C.2   301  SAH301      0.2526
     21  C6        -2.0700  -17.3370   -8.5750 C.2   301  SAH301      0.4393
     22  N6        -2.9090  -18.3550   -8.4920 N.pl3 301  SAH301      0.2180
     23  N1        -2.3250  -16.2920   -9.3860 N.2   301  SAH301      0.0021
     24  C2        -1.4930  -15.2780   -9.4720 C.3   301  SAH301      0.5254
     25  N3        -0.3630  -15.2390   -8.7710 N.2   301  SAH301     -0.0055
     26  C4        -0.0380  -16.2350   -7.9510 C.2   301  SAH301      0.3518
@<TRIPOS>BOND
     1     1     2    1
     2     7     6   ar
     3    24    23    1
     4    24    25    1
     5    23    21    2
     6     2     6    1
     7     2     3    1
     8     6     8   ar
     9    25    26    2
    10    21    22    1
    11    21    20    1
    12    26    20    1
    13    26    17    1
    14     4     3    1
    15     4     5    1
    16    20    19    2
    17    11    10    1
    18    11    16    1
    19    10     9    1
    20    10    12    1
    21     9     5    1
    22    17    16    1
    23    17    18    1
    24    16    14    1
    25    19    18    1
    26    13    12    1
    27    12    14    1
    28    14    15    1
