@<TRIPOS>MOLECULE
3t0k_DCQ_A_1.pdb
 23 23 0 0 0
SMALL
GASTEIGER

@<TRIPOS>ATOM
      1  O2        40.3850  -13.1560    7.4180 O.3   502  DCQ502     -0.2836
      2  C2        41.5510  -12.4120    7.4050 C.ar  502  DCQ502      0.2282
      3  C3        42.6210  -12.7900    8.2080 C.ar  502  DCQ502      0.2140
      4  O3        42.5300  -13.9160    9.0060 O.3   502  DCQ502     -0.4652
      5  C3M       42.7210  -15.1800    8.4730 C.3   502  DCQ502      0.2528
      6  C4        43.7890  -12.0300    8.1920 C.ar  502  DCQ502      0.2140
      7  O4        44.8250  -12.3320    9.0350 O.3   502  DCQ502     -0.4652
      8  C4M       45.0060  -11.5110   10.1270 C.3   502  DCQ502      0.2528
      9  C5        43.9040  -10.9030    7.3840 C.ar  502  DCQ502      0.2282
     10  O5        45.0870  -10.1920    7.3770 O.3   502  DCQ502     -0.2836
     11  C1        41.6660  -11.2800    6.5970 C.ar  502  DCQ502      0.0195
     12  C1M       40.5250  -10.8630    5.7460 C.3   502  DCQ502      0.0343
     13  C6        42.8350  -10.5240    6.5830 C.ar  502  DCQ502      0.0191
     14  C7        42.9360   -9.2950    5.7270 C.3   502  DCQ502      0.0295
     15  C8        43.4870   -8.0440    6.3570 C.3   502  DCQ502      0.0048
     16  C9        42.5390   -6.9530    6.7610 C.3   502  DCQ502      0.0003
     17  C10       42.2880   -5.8420    5.7840 C.3   502  DCQ502      0.0000
     18  C11       41.4280   -6.1290    4.5870 C.3   502  DCQ502      0.0000
     19  C12       42.1020   -6.5030    3.2980 C.3   502  DCQ502      0.0000
     20  C13       42.0130   -5.5470    2.1430 C.3   502  DCQ502      0.0000
     21  C14       41.2080   -5.9660    0.9490 C.3   502  DCQ502      0.0000
     22  C15       41.7620   -5.7040   -0.4150 C.3   502  DCQ502      0.0000
     23  C16       42.1580   -4.3060   -0.7620 C.3   502  DCQ502      0.0000
@<TRIPOS>BOND
     1    23    22    1
     2    22    21    1
     3    21    20    1
     4    20    19    1
     5    19    18    1
     6    18    17    1
     7    14    15    1
     8    14    13    1
     9    12    11    1
    10    17    16    1
    11    15    16    1
    12    13    11   ar
    13    13     9   ar
    14    11     2   ar
    15    10     9    1
    16     9     6   ar
    17     2     1    1
    18     2     3   ar
    19     6     3   ar
    20     6     7    1
    21     3     4    1
    22     5     4    1
    23     7     8    1
