@<TRIPOS>MOLECULE
3t0l_1CT_A_1.pdb
 25 26 0 0 0
SMALL
GASTEIGER

@<TRIPOS>ATOM
      1  OAA       25.4620    8.9450  -10.5270 O.2   232  1CT232     -0.2689
      2  OAB       21.7880   13.2270  -11.6880 O.2   232  1CT232     -0.4556
      3  OAC       22.0240   12.5990   -9.1860 O.3   232  1CT232     -0.3541
      4  OAD       21.0390   14.8130   -9.7350 O.3   232  1CT232     -0.3541
      5  FAE       22.5720    8.3890   -6.2280 F     232  1CT232     -0.1658
      6  FAF       24.1680    9.1360   -7.3720 F     232  1CT232     -0.1658
      7  FAG       22.4020   10.3630   -7.0860 F     232  1CT232     -0.1658
      8  CAH       21.4400    7.2330  -10.9060 C.ar  232  1CT232      0.0013
      9  CAI       26.2500   15.6210  -10.3610 C.ar  232  1CT232      0.0031
     10  CAJ       21.0870    6.7600   -9.6440 C.ar  232  1CT232      0.0000
     11  CAK       25.1450   16.4400  -10.0890 C.ar  232  1CT232      0.0003
     12  CAL       22.2910    8.3490  -11.0030 C.ar  232  1CT232      0.0165
     13  CAM       26.1060   14.2300  -10.5870 C.ar  232  1CT232      0.0370
     14  CAN       21.5380    7.3690   -8.4940 C.ar  232  1CT232      0.0052
     15  CAO       23.8250   15.9030  -10.0520 C.ar  232  1CT232      0.0058
     16  CAP       25.6210   11.3570  -10.5000 C.3   232  1CT232      0.2915
     17  NAQ       23.5660   10.0590  -10.0080 N.am  232  1CT232     -0.1761
     18  OAR       24.5500   12.3820  -10.7730 O.3   232  1CT232     -0.4654
     19  CAS       24.8610   10.0140  -10.3360 C.2   232  1CT232      0.2901
     20  CAT       22.7740    8.9560   -9.8510 C.ar  232  1CT232      0.0774
     21  CAU       24.7920   13.7190  -10.5570 C.ar  232  1CT232      0.1418
     22  CAV       22.3800    8.4840   -8.5840 C.ar  232  1CT232      0.0867
     23  CAW       23.7010   14.5280  -10.2530 C.ar  232  1CT232      0.0628
     24  CAX       22.8690    9.1240   -7.2870 C.3   232  1CT232      0.4198
     25  PAY       22.0210   13.7650  -10.2810 P.3   232  1CT232      0.1424
@<TRIPOS>BOND
     1     2    25    2
     2    12     8   ar
     3    12    20   ar
     4     8    10   ar
     5    18    21    1
     6    18    16    1
     7    13    21   ar
     8    13     9   ar
     9    21    23   ar
    10     1    19    2
    11    16    19    1
    12     9    11   ar
    13    19    17   am
    14    25    23    1
    15    25     4    1
    16    25     3    1
    17    23    15   ar
    18    11    15   ar
    19    17    20    1
    20    20    22   ar
    21    10    14   ar
    22    22    14   ar
    23    22    24    1
    24     6    24    1
    25    24     7    1
    26    24     5    1
