@<TRIPOS>MOLECULE
3t0m_2CT_A_1.pdb
 25 26 0 0 0
SMALL
GASTEIGER

@<TRIPOS>ATOM
      1  CAA       21.1890    7.2430   -5.2040 C.3   232  2CT232      0.2525
      2  CAB       21.3420    6.9050  -11.4640 C.3   232  2CT232      0.2525
      3  OAC       25.2550    9.4420   -8.5610 O.2   232  2CT232     -0.2689
      4  OAD       21.8320   12.5200   -9.2150 O.3   232  2CT232     -0.3541
      5  OAE       20.8760   14.7540   -9.6380 O.3   232  2CT232     -0.3541
      6  OAF       21.7290   13.1780  -11.6870 O.2   232  2CT232     -0.4556
      7  CAG       26.1210   15.6270  -10.3040 C.ar  232  2CT232      0.0031
      8  CAH       24.9960   16.4440  -10.1750 C.ar  232  2CT232      0.0003
      9  CAI       25.9910   14.2230  -10.3950 C.ar  232  2CT232      0.0370
     10  CAJ       21.0850    7.1970   -7.9000 C.ar  232  2CT232      0.0401
     11  CAK       23.7070   15.8770  -10.1770 C.ar  232  2CT232      0.0058
     12  CAL       21.3030    7.0790   -9.2690 C.ar  232  2CT232      0.0414
     13  CAM       22.4050    9.1920   -7.8540 C.ar  232  2CT232      0.0566
     14  CAN       25.4280   11.3100  -10.0330 C.3   232  2CT232      0.2915
     15  NAO       23.4040    9.9960   -9.8000 N.am  232  2CT232     -0.1729
     16  OAP       21.4360    8.4560   -5.8570 O.3   232  2CT232     -0.4714
     17  OAQ       22.3290    7.9170  -11.2110 O.3   232  2CT232     -0.4701
     18  OAR       24.4460   12.3170  -10.4440 O.3   232  2CT232     -0.4654
     19  CAS       24.6680   10.1710   -9.3820 C.2   232  2CT232      0.2902
     20  CAT       21.6280    8.2680   -7.1960 C.ar  232  2CT232      0.1402
     21  CAU       22.6550    9.0680   -9.2110 C.ar  232  2CT232      0.1103
     22  CAV       22.1040    8.0260   -9.9070 C.ar  232  2CT232      0.1541
     23  CAW       24.6950   13.6730  -10.3660 C.ar  232  2CT232      0.1418
     24  CAX       23.5780   14.4960  -10.2240 C.ar  232  2CT232      0.0628
     25  PAY       21.8790   13.6880  -10.2030 P.3   232  2CT232      0.1424
@<TRIPOS>BOND
     1     6    25    2
     2     2    17    1
     3    17    22    1
     4    18    23    1
     5    18    14    1
     6     9    23   ar
     7     9     7   ar
     8    23    24   ar
     9     7     8   ar
    10    24    25    1
    11    24    11   ar
    12    25     5    1
    13    25     4    1
    14    11     8   ar
    15    14    19    1
    16    22    12   ar
    17    22    21   ar
    18    15    19   am
    19    15    21    1
    20    19     3    2
    21    12    10   ar
    22    21    13   ar
    23    10    20   ar
    24    13    20   ar
    25    20    16    1
    26    16     1    1
