@<TRIPOS>MOLECULE
3t0q_ADP_A_1.pdb
 27 29 0 0 0
SMALL
GASTEIGER

@<TRIPOS>ATOM
      1  PB        -7.0930  -11.6010  -26.3610 P.3   999  ADP999      0.5373
      2  O1B       -5.9970  -10.8730  -27.1000 O.2   999  ADP999     -0.2221
      3  O2B       -6.9200  -11.6340  -24.8700 O.3   999  ADP999     -0.1143
      4  O3B       -8.4820  -11.2380  -26.8260 O.3   999  ADP999     -0.1143
      5  PA        -6.8250  -14.4820  -25.9650 P.3   999  ADP999      0.2231
      6  O1A       -5.7790  -14.5730  -24.8840 O.3   999  ADP999     -0.4370
      7  O2A       -8.2840  -14.6890  -25.6630 O.2   999  ADP999     -0.5169
      8  O3A       -6.7600  -13.1180  -26.8300 O.3   999  ADP999     -0.2261
      9  O5'       -6.3560  -15.5650  -27.0720 O.3   999  ADP999     -0.3111
     10  C5'       -7.1900  -15.9660  -28.1780 C.3   999  ADP999      0.1813
     11  C4'       -7.1700  -17.4920  -28.3460 C.3   999  ADP999      0.1821
     12  O4'       -5.8810  -17.9990  -28.7200 O.3   999  ADP999     -0.3135
     13  C3'       -7.5190  -18.1910  -27.0360 C.3   999  ADP999      0.2184
     14  O3'       -8.2560  -19.3660  -27.3760 O.3   999  ADP999     -0.2174
     15  C2'       -6.1790  -18.5570  -26.4420 C.3   999  ADP999      0.2570
     16  O2'       -6.2530  -19.7360  -25.6620 O.3   999  ADP999     -0.2130
     17  C1'       -5.3120  -18.7860  -27.6590 C.3   999  ADP999      0.3186
     18  N9        -3.9080  -18.3380  -27.5010 N.pl3 999  ADP999     -0.1439
     19  C8        -3.4920  -17.0540  -27.4220 C.3   999  ADP999      0.3377
     20  N7        -2.1450  -16.9910  -27.3200 N.2   999  ADP999     -0.2095
     21  C5        -1.6870  -18.2560  -27.3520 C.2   999  ADP999      0.2526
     22  C6        -0.3670  -18.9090  -27.2930 C.2   999  ADP999      0.4393
     23  N6         0.7530  -18.1650  -27.1910 N.pl3 999  ADP999      0.2180
     24  N1        -0.3140  -20.2640  -27.3550 N.2   999  ADP999      0.0021
     25  C2        -1.4330  -20.9970  -27.4680 C.3   999  ADP999      0.5254
     26  N3        -2.6660  -20.4780  -27.5240 N.2   999  ADP999     -0.0055
     27  C4        -2.8500  -19.1370  -27.4760 C.2   999  ADP999      0.3518
@<TRIPOS>BOND
     1    12    11    1
     2    12    17    1
     3    11    10    1
     4    11    13    1
     5    10     9    1
     6    17    18    1
     7    17    15    1
     8    26    27    2
     9    26    25    1
    10    18    27    1
    11    18    19    1
    12    27    21    1
    13    25    24    1
    14    19    20    1
    15    14    13    1
    16    24    22    2
    17    21    20    2
    18    21    22    1
    19    22    23    1
    20     2     1    2
    21     9     5    1
    22    13    15    1
    23     8     1    1
    24     8     5    1
    25     4     1    1
    26    15    16    1
    27     1     3    1
    28     5     7    2
    29     5     6    1
