@<TRIPOS>MOLECULE
3t0s_C8E_A_1.pdb
 12 11 0 0 0
SMALL
GASTEIGER

@<TRIPOS>ATOM
      1  C1        50.6460  -30.1450   -7.8230 C.3   400  C8E400      0.0000
      2  C2        51.5650  -30.9550   -8.7460 C.3   400  C8E400      0.0000
      3  C3        51.1790  -32.4350   -8.8140 C.3   400  C8E400      0.0000
      4  C4        51.2290  -33.0220  -10.2330 C.3   400  C8E400      0.0000
      5  C5        50.1090  -34.0410  -10.4860 C.3   400  C8E400      0.0001
      6  C6        49.3440  -33.8090  -11.7960 C.3   400  C8E400      0.0026
      7  C7        48.1000  -32.9660  -11.5560 C.3   400  C8E400      0.0321
      8  C8        47.6130  -32.2210  -12.7970 C.3   400  C8E400      0.1423
      9  O9        46.6870  -31.2080  -12.4230 O.3   400  C8E400     -0.3510
     10  C10       47.2510  -29.9130  -12.3130 C.3   400  C8E400      0.1776
     11  C11       46.3560  -29.0220  -11.4600 C.3   400  C8E400      0.2140
     12  O12       46.8790  -27.7130  -11.3700 O.3   400  C8E400     -0.2176
@<TRIPOS>BOND
     1     8     9    1
     2     8     7    1
     3     9    10    1
     4    10    11    1
     5     6     7    1
     6     6     5    1
     7    11    12    1
     8     5     4    1
     9     4     3    1
    10     3     2    1
    11     2     1    1
