@<TRIPOS>MOLECULE
3t0t_I30_A_1.pdb
 23 25 0 0 0
SMALL
GASTEIGER

@<TRIPOS>ATOM
      1  CAA       27.1840    0.6450  -12.0500 C.3   586  I30586      0.0672
      2  OAB       29.1600   -1.6040  -15.9720 O.2   586  I30586     -0.2664
      3  OAC       29.4630   -1.9300  -11.9330 O.3   586  I30586     -0.2864
      4 BRAD       33.0090   -5.8460  -14.8230 Br    586  I30586     -0.0490
      5  CAE       23.8950    4.1860  -17.0780 C.ar  586  I30586      0.0028
      6  CAF       23.4280    4.6900  -15.8690 C.ar  586  I30586      0.0028
      7  CAG       31.8420   -4.5620  -12.6560 C.ar  586  I30586      0.0100
      8  CAH       31.0400   -3.6760  -11.9800 C.ar  586  I30586      0.0427
      9  CAI       24.8310    3.1700  -17.0600 C.ar  586  I30586      0.0357
     10  CAJ       23.8900    4.1840  -14.6490 C.ar  586  I30586      0.0357
     11  CAK       31.0470   -3.6530  -14.7420 C.ar  586  I30586      0.0145
     12  NAL       27.7810   -0.1180  -14.3510 N.2   586  I30586     -0.1481
     13  NAM       26.1780    1.6940  -15.5550 N.2   586  I30586     -0.3362
     14  NAN       28.5650   -0.9420  -13.8940 N.am  586  I30586     -0.0749
     15  NAO       25.4430    2.4760  -13.6670 N.2   586  I30586     -0.3362
     16  CAP       27.0830    0.6870  -13.5770 C.2   586  I30586      0.1633
     17  CAQ       29.2760   -1.7040  -14.7430 C.2   586  I30586      0.2891
     18  CAR       31.8510   -4.5580  -14.0310 C.ar  586  I30586      0.0349
     19  CAS       30.2420   -2.7810  -12.6580 C.ar  586  I30586      0.2002
     20  CAT       30.2280   -2.7480  -14.0500 C.ar  586  I30586      0.0961
     21  CAU       26.2620    1.5850  -14.2290 C.1   586  I30586      0.1538
     22  CAV       25.3010    2.6560  -15.8500 C.ar  586  I30586      0.1741
     23  CAW       24.8310    3.1550  -14.6410 C.ar  586  I30586      0.1741
@<TRIPOS>BOND
     1     5     9   ar
     2     5     6   ar
     3     9    22   ar
     4     2    17    2
     5     6    10   ar
     6    22    13    2
     7    22    23   ar
     8    13    21    2
     9     4    18    1
    10    17    20    1
    11    17    14   am
    12    11    20   ar
    13    11    18   ar
    14    10    23   ar
    15    23    15    2
    16    12    14    1
    17    12    16    2
    18    21    15    2
    19    21    16    1
    20    20    19   ar
    21    18     7   ar
    22    16     1    1
    23    19     8   ar
    24    19     3    1
    25     7     8   ar
