@<TRIPOS>MOLECULE
3t0w_DIW_A_1.pdb
 32 35 0 0 0
SMALL
GASTEIGER

@<TRIPOS>ATOM
      1  C        -19.0910   -1.2140  -17.8120 C.ar  204  DIW204      0.0145
      2  C2       -18.7750   -1.1180  -15.4250 C.ar  204  DIW204     -0.0042
      3  C3       -19.6120   -1.0940  -16.5290 C.ar  204  DIW204      0.0477
      4  N7       -20.8710   -0.9490  -16.0780 N.pl3 204  DIW204     -0.2885
      5  C8       -20.9150   -0.8840  -14.7350 C.2   204  DIW204      0.0318
      6  C9       -19.5310   -0.9630  -14.1490 C.3   204  DIW204      0.0515
      7  C10      -22.1870   -0.7180  -13.9180 C.2   204  DIW204      0.0107
      8  C11      -22.1590   -0.6190  -12.4120 C.2   204  DIW204      0.0009
      9  C12      -23.3600   -0.5440  -11.8210 C.2   204  DIW204     -0.0002
     10  C13      -23.5090   -0.4280  -10.3530 C.2   204  DIW204     -0.0012
     11  C14      -24.7590   -0.4260   -9.7270 C.2   204  DIW204     -0.0041
     12  C15      -24.8230   -0.3090   -8.3410 C.2   204  DIW204      0.0479
     13  N16      -23.7040   -0.1830   -7.6110 N.pl3 204  DIW204     -0.2861
     14  C17      -22.4990   -0.1750   -8.1920 C.2   204  DIW204      0.0654
     15  C18      -22.3690   -0.2990   -9.5710 C.2   204  DIW204      0.0158
     16  C19      -26.0600   -0.3140   -7.6980 C.2   204  DIW204      0.0142
     17  C20      -27.2320   -0.4380   -8.4340 C.2   204  DIW204     -0.0030
     18  C21      -27.1740   -0.5630   -9.8190 C.2   204  DIW204     -0.0213
     19  C22      -25.9370   -0.5580  -10.4600 C.3   204  DIW204      0.0536
     20  C23      -23.7960   -0.0570   -6.1500 C.3   204  DIW204      0.0972
     21  C24      -23.9460   -1.4360   -5.5130 C.3   204  DIW204      0.0433
     22  C25      -23.8060   -1.3880   -3.9920 C.3   204  DIW204      0.1070
     23  S26      -25.0910   -0.5860   -3.3060 S.3   204  DIW204     -0.1960
     24  C27      -19.2880   -2.1740  -13.2570 C.3   204  DIW204      0.0101
     25  C28      -19.1320    0.3340  -13.4570 C.3   204  DIW204      0.0101
     26  C29      -22.0830   -0.8870  -16.9310 C.3   204  DIW204      0.1170
     27  C30      -17.7210   -1.3590  -17.9950 C.ar  204  DIW204      0.0013
     28  O30      -25.2990   -1.0880   -1.9270 O.3   204  DIW204     -0.3075
     29  C31      -16.8770   -1.3740  -16.8920 C.ar  204  DIW204     -0.0002
     30  O31      -26.3160   -0.8230   -4.1000 O.3   204  DIW204     -0.3075
     31  C32      -17.4030   -1.2580  -15.6040 C.ar  204  DIW204     -0.0027
     32  O32      -24.7930    0.8610   -3.2860 O.3   204  DIW204     -0.3075
@<TRIPOS>BOND
     1    27     1   ar
     2    27    29   ar
     3     1     3   ar
     4    26     4    1
     5    29    31   ar
     6     3     4    1
     7     3     2   ar
     8     4     5    1
     9    31     2   ar
    10     2     6    1
    11     5     6    1
    12     5     7    2
    13     6    25    1
    14     6    24    1
    15     7     8    1
    16     8     9    2
    17     9    10    1
    18    19    18    1
    19    19    11    1
    20    10    11    2
    21    10    15    1
    22    18    17    2
    23    11    12    1
    24    15    14    2
    25    17    16    1
    26    12    16    2
    27    12    13    1
    28    14    13    1
    29    13    20    1
    30    20    21    1
    31    21    22    1
    32    30    23    1
    33    22    23    1
    34    23    32    1
    35    23    28    1
