@<TRIPOS>MOLECULE
3t0x_DIW_A_1.pdb
 32 35 0 0 0
SMALL
GASTEIGER

@<TRIPOS>ATOM
      1  C         20.6780   -2.8900   -8.6810 C.ar  201  DIW201      0.0145
      2  C2        22.9360   -2.7410   -9.4870 C.ar  201  DIW201     -0.0042
      3  C3        22.0430   -2.7250   -8.4300 C.ar  201  DIW201      0.0477
      4  N7        22.7530   -2.5440   -7.2810 N.pl3 201  DIW201     -0.2888
      5  C8        24.0670   -2.4440   -7.5680 C.2   201  DIW201      0.0276
      6  C9        24.3520   -2.5420   -9.0310 C.3   201  DIW201      0.0512
      7  C10       25.1130   -2.2260   -6.5090 C.2   201  DIW201     -0.0151
      8  C11       26.4020   -2.1360   -6.8420 C.3   201  DIW201      0.0317
      9  C12       27.1670   -1.9260   -5.7450 C.3   201  DIW201      0.0308
     10  C13       28.6580   -1.8210   -5.6620 C.2   201  DIW201     -0.0227
     11  C14       29.3110   -1.7270   -4.4220 C.2   201  DIW201     -0.0041
     12  C15       30.7100   -1.6800   -4.3550 C.3   201  DIW201      0.1176
     13  N16       31.4510   -1.7220   -5.4860 N.pl3 201  DIW201     -0.3008
     14  C17       30.8360   -1.8530   -6.6740 C.2   201  DIW201      0.0614
     15  C18       29.4500   -1.9070   -6.7960 C.2   201  DIW201      0.0113
     16  C19       31.3300   -1.5580   -3.1120 C.2   201  DIW201     -0.0023
     17  C20       30.5880   -1.4800   -1.9360 C.2   201  DIW201     -0.0026
     18  C21       29.1990   -1.5330   -2.0010 C.2   201  DIW201     -0.0005
     19  C22       28.5710   -1.6520   -3.2420 C.2   201  DIW201     -0.0027
     20  C23       32.9310   -1.7200   -5.4720 C.3   201  DIW201      0.0930
     21  C24       33.6480   -0.5740   -4.7680 C.3   201  DIW201      0.0429
     22  C25       34.7900   -1.0630   -3.8620 C.3   201  DIW201      0.1070
     23  S26       36.1950   -1.4810   -4.6710 S.3   201  DIW201     -0.1960
     24  C27       25.3080   -3.6800   -9.3840 C.3   201  DIW201      0.0101
     25  C28       24.8500   -1.1730   -9.5160 C.3   201  DIW201      0.0101
     26  C29       22.1680   -2.4660   -5.9160 C.3   201  DIW201      0.1169
     27  C30       20.1930   -3.0700   -9.9800 C.ar  201  DIW201      0.0013
     28  O30       37.1570   -2.0320   -3.6990 O.3   201  DIW201     -0.3075
     29  C31       21.0940   -3.0840  -11.0440 C.ar  201  DIW201     -0.0002
     30  O31       36.8000   -0.2980   -5.3190 O.3   201  DIW201     -0.3075
     31  C32       22.4640   -2.9200  -10.7990 C.ar  201  DIW201     -0.0027
     32  O32       35.9400   -2.5080   -5.6970 O.3   201  DIW201     -0.3075
@<TRIPOS>BOND
     1    29    31   ar
     2    29    27   ar
     3    31     2   ar
     4    27     1   ar
     5    25     6    1
     6     2     6    1
     7     2     3   ar
     8    24     6    1
     9     6     5    1
    10     1     3   ar
    11     3     4    1
    12     5     4    1
    13     5     7    2
    14     4    26    1
    15     8     7    1
    16     8     9    1
    17    15    14    2
    18    15    10    1
    19    14    13    1
    20     9    10    1
    21    32    23    1
    22    10    11    2
    23    13    20    1
    24    13    12    1
    25    20    21    1
    26    30    23    1
    27    21    22    1
    28    23    22    1
    29    23    28    1
    30    11    12    1
    31    11    19    1
    32    12    16    1
    33    19    18    2
    34    16    17    2
    35    18    17    1
