@<TRIPOS>MOLECULE
3t0z_ATP_A_1.pdb
 31 33 0 0 0
SMALL
GASTEIGER

@<TRIPOS>ATOM
      1  PG        11.2020   -6.1450   21.6550 P.3   301  ATP301      0.5373
      2  O1G       11.3230   -5.1080   22.7640 O.3   301  ATP301     -0.1143
      3  O2G       11.2330   -7.5740   22.1600 O.3   301  ATP301     -0.1143
      4  O3G       10.0840   -5.9540   20.6730 O.2   301  ATP301     -0.2221
      5  PB        12.6870   -5.4920   19.2630 P.3   301  ATP301      0.2277
      6  O1B       14.1500   -5.3330   18.8880 O.2   301  ATP301     -0.5168
      7  O2B       11.7850   -4.3200   18.9990 O.3   301  ATP301     -0.4368
      8  O3B       12.5960   -5.9310   20.8220 O.3   301  ATP301     -0.2258
      9  PA        10.9070   -7.0100   17.5120 P.3   301  ATP301      0.2189
     10  O1A        9.7320   -6.1510   17.9050 O.3   301  ATP301     -0.4371
     11  O2A       10.6760   -8.5010   17.3710 O.2   301  ATP301     -0.5170
     12  O3A       12.1040   -6.8370   18.5900 O.3   301  ATP301     -0.2700
     13  O5'       11.6010   -6.4390   16.1740 O.3   301  ATP301     -0.3112
     14  C5'       12.6050   -7.2100   15.5160 C.3   301  ATP301      0.1813
     15  C4'       13.4700   -6.2310   14.7400 C.3   301  ATP301      0.1821
     16  O4'       12.8710   -5.9250   13.4770 O.3   301  ATP301     -0.3135
     17  C3'       13.6490   -4.8860   15.4340 C.3   301  ATP301      0.2184
     18  O3'       14.8330   -4.8450   16.2200 O.3   301  ATP301     -0.2174
     19  C2'       13.8230   -3.9160   14.2840 C.3   301  ATP301      0.2570
     20  O2'       15.2180   -3.8030   13.9670 O.3   301  ATP301     -0.2130
     21  C1'       13.1150   -4.5700   13.1120 C.3   301  ATP301      0.3186
     22  N9        11.8300   -3.8510   12.9660 N.pl3 301  ATP301     -0.1439
     23  C8        10.6260   -4.2660   13.3930 C.3   301  ATP301      0.3377
     24  N7         9.6680   -3.3430   13.1190 N.2   301  ATP301     -0.2095
     25  C5        10.2610   -2.3130   12.4940 C.2   301  ATP301      0.2526
     26  C6         9.8170   -1.0220   11.9270 C.2   301  ATP301      0.4393
     27  N6         8.5070   -0.6620   11.9820 N.pl3 301  ATP301      0.2180
     28  N1        10.7580   -0.2350   11.3590 N.2   301  ATP301      0.0021
     29  C2        12.0520   -0.6140   11.3130 C.3   301  ATP301      0.5254
     30  N3        12.5300   -1.7750   11.8090 N.2   301  ATP301     -0.0055
     31  C4        11.6900   -2.6490   12.4050 C.2   301  ATP301      0.3518
@<TRIPOS>BOND
     1    29    28    1
     2    29    30    1
     3    28    26    2
     4    30    31    2
     5    26    27    1
     6    26    25    1
     7    31    25    1
     8    31    22    1
     9    25    24    2
    10    22    21    1
    11    22    23    1
    12    21    16    1
    13    21    19    1
    14    24    23    1
    15    16    15    1
    16    20    19    1
    17    19    17    1
    18    15    17    1
    19    15    14    1
    20    17    18    1
    21    14    13    1
    22    13     9    1
    23    11     9    2
    24     9    10    1
    25     9    12    1
    26    12     5    1
    27     6     5    2
    28     7     5    1
    29     5     8    1
    30     4     1    2
    31     8     1    1
    32     1     3    1
    33     1     2    1
