@<TRIPOS>MOLECULE
3t10_ACP_A_1.pdb
 41 43 0 0 0
SMALL
GASTEIGER

@<TRIPOS>ATOM
      1  PG         9.4890   -3.5020   22.9970 P.3   301  ACP301      0.1201
      2  O1G        9.4490   -2.6440   24.2370 O.3   301  ACP301     -0.3571
      3  O2G        9.3270   -4.9260   23.4490 O.3   301  ACP301     -0.3571
      4  O3G        8.4960   -3.1170   22.0100 O.2   301  ACP301     -0.4601
      5  PB        11.2650   -3.1220   20.5630 P.3   301  ACP301      0.3723
      6  O1B       12.6810   -2.9800   20.1380 O.3   301  ACP301     -0.1398
      7  O2B       10.3200   -2.0790   20.0760 O.2   301  ACP301     -0.2554
      8  C3B       11.1780   -3.2920   22.3410 C.3   301  ACP301      0.1055
      9  PA         9.6470   -4.8830   18.9230 P.3   301  ACP301      0.2201
     10  O1A        8.4630   -4.0370   19.1330 O.3   301  ACP301     -0.4371
     11  O2A        9.4420   -6.3660   18.9390 O.2   301  ACP301     -0.5170
     12  O3A       10.7760   -4.5440   20.0160 O.3   301  ACP301     -0.2487
     13  O5'       10.3150   -4.3930   17.5660 O.3   301  ACP301     -0.3245
     14  C5'       11.4890   -5.0390   17.1200 C.3   301  ACP301      0.0837
     15  C4'       12.2770   -4.0920   16.2270 C.3   301  ACP301      0.1152
     16  O4'       11.6210   -3.9700   14.9550 O.3   301  ACP301     -0.3293
     17  C3'       12.4180   -2.6430   16.6890 C.3   301  ACP301      0.1156
     18  O3'       13.4520   -2.4880   17.6750 O.3   301  ACP301     -0.3863
     19  C2'       12.7300   -1.9310   15.3970 C.3   301  ACP301      0.1476
     20  O2'       14.1050   -2.1150   15.0920 O.3   301  ACP301     -0.3825
     21  C1'       11.9090   -2.6990   14.3840 C.3   301  ACP301      0.2252
     22  N9        10.6070   -2.0530   14.1160 N.pl3 301  ACP301     -0.1531
     23  C8         9.3810   -2.4990   14.4670 C.3   301  ACP301      0.3373
     24  N7         8.4240   -1.6690   14.0420 N.2   301  ACP301     -0.2096
     25  C5         9.0310   -0.6820   13.3740 C.2   301  ACP301      0.2526
     26  C6         8.6050    0.5370   12.7150 C.2   301  ACP301      0.4393
     27  N6         7.3140    0.9030   12.6880 N.pl3 301  ACP301      0.2180
     28  N1         9.5640    1.3250   12.1650 N.2   301  ACP301      0.0021
     29  C2        10.8560    0.9890   12.2490 C.3   301  ACP301      0.5254
     30  N3        11.3280   -0.1000   12.8630 N.2   301  ACP301     -0.0055
     31  C4        10.4510   -0.9310   13.4160 C.2   301  ACP301      0.3514
     32 H3B1       11.7810   -4.1510   22.6420 H     301  ACP301      0.0466
     33 H3B2       11.6260   -2.4070   22.8000 H     301  ACP301      0.0466
     34 H5'1       11.2260   -5.9410   16.5620 H     301  ACP301      0.0591
     35 H5'2       12.0980   -5.3330   17.9770 H     301  ACP301      0.0591
     36  H4'       13.2830   -4.5100   16.0820 H     301  ACP301      0.0647
     37  H3'       11.4540   -2.2870   17.0780 H     301  ACP301      0.0648
     38 HO3'       13.5630   -1.5500   17.8820 H     301  ACP301      0.2100
     39  H2'       12.4370   -0.8730   15.4370 H     301  ACP301      0.0687
     40 HO2'       14.2970   -1.7300   14.2260 H     301  ACP301      0.2102
     41  H1'       12.4840   -2.8140   13.4540 H     301  ACP301      0.1118
@<TRIPOS>BOND
     1    28    29    1
     2    28    26    2
     3    29    30    1
     4    27    26    1
     5    26    25    1
     6    30    31    2
     7    25    31    1
     8    25    24    2
     9    31    22    1
    10    41    21    1
    11    24    23    1
    12    22    21    1
    13    22    23    1
    14    40    20    1
    15    21    16    1
    16    21    19    1
    17    16    15    1
    18    20    19    1
    19    19    39    1
    20    19    17    1
    21    36    15    1
    22    15    17    1
    23    15    14    1
    24    34    14    1
    25    17    37    1
    26    17    18    1
    27    14    13    1
    28    14    35    1
    29    13     9    1
    30    18    38    1
    31     9    11    2
    32     9    10    1
    33     9    12    1
    34    12     5    1
    35     7     5    2
    36     6     5    1
    37     5     8    1
    38     4     1    2
    39     8    32    1
    40     8    33    1
    41     8     1    1
    42     1     3    1
    43     1     2    1
