@<TRIPOS>MOLECULE
3t11_3T1_A_1.pdb
 32 36 0 0 0
SMALL
GASTEIGER

@<TRIPOS>ATOM
      1  C1        -4.4140    6.2000   15.3370 C.2   101  3T1101      0.1591
      2  O1        -5.6200    6.1590   15.0940 O.2   101  3T1101     -0.2956
      3  C2        -3.4140    6.5840   14.2020 C.3   101  3T1101      0.0697
      4  C3        -2.0400    5.9470   14.4770 C.3   101  3T1101      0.0363
      5  C4        -1.5530    6.2640   15.8920 C.3   101  3T1101      0.0597
      6  N5        -2.0250    5.7090   18.1880 N.2   101  3T1101     -0.4085
      7  C6        -1.8640    5.6830   20.4480 C.ar  101  3T1101      0.0336
      8  C7        -2.3630    5.4040   21.7330 C.ar  101  3T1101      0.0027
      9  C8        -3.6490    4.8770   21.9270 C.ar  101  3T1101      0.0017
     10  C9        -4.4430    4.5850   20.8060 C.ar  101  3T1101      0.0213
     11  N10       -4.7880    4.5790   18.5520 N.2   101  3T1101     -0.2645
     12  C11       -5.1670    5.6650   17.5710 C.3   101  3T1101      0.1388
     13  C12       -0.9980    6.3350   13.4310 C.ar  101  3T1101     -0.0217
     14  C13       -0.4970    7.6400   13.3660 C.ar  101  3T1101     -0.0043
     15  C14        0.4500    7.9760   12.3950 C.ar  101  3T1101     -0.0003
     16  C15        0.9220    6.9940   11.5140 C.ar  101  3T1101     -0.0000
     17  C16        0.4030    5.6930   11.5920 C.ar  101  3T1101     -0.0003
     18  C17       -0.5640    5.3670   12.5370 C.ar  101  3T1101     -0.0043
     19  C18       -5.5250    6.9660   18.3550 C.ar  101  3T1101      0.0047
     20  C19       -4.5840    7.9770   18.5620 C.ar  101  3T1101      0.0124
     21  C20       -4.9000    9.1320   19.2980 C.ar  101  3T1101      0.0993
     22 CL1        -3.6570   10.3540   19.4880 Cl    101  3T1101     -0.0788
     23  C21       -6.1830    9.2390   19.8590 C.ar  101  3T1101      0.2396
     24  O21       -6.6050   10.3250   20.6020 O.3   101  3T1101     -0.2824
     25  C22       -7.1270    8.2350   19.6670 C.ar  101  3T1101      0.1780
     26  O22       -8.3760    8.4360   20.2620 O.3   101  3T1101     -0.4682
     27  C23       -6.7810    7.0950   18.9280 C.ar  101  3T1101      0.0379
     28  C24       -9.4150    7.4310   20.0540 C.3   101  3T1101      0.2526
     29  C25       -2.6170    5.9350   16.9630 C.2   101  3T1101      0.0959
     30  C26       -2.6380    5.3950   19.3400 C.ar  101  3T1101      0.1477
     31  C27       -3.9140    4.8300   19.5260 C.ar  101  3T1101      0.1057
     32  C28       -3.9930    5.9290   16.6470 C.3   101  3T1101      0.1319
@<TRIPOS>BOND
     1    16    17   ar
     2    16    15   ar
     3    17    18   ar
     4    15    14   ar
     5    18    13   ar
     6    14    13   ar
     7    13     4    1
     8     3     4    1
     9     3     1    1
    10     4     5    1
    11     2     1    2
    12     1    32    1
    13     5    29    1
    14    32    29    1
    15    32    12    1
    16    29     6    2
    17    12    19    1
    18    12    11    1
    19     6    30    2
    20    19    20   ar
    21    19    27   ar
    22    11    31    2
    23    20    21   ar
    24    27    25   ar
    25    21    22    1
    26    21    23   ar
    27    30    31   ar
    28    30     7   ar
    29    31    10   ar
    30    25    23   ar
    31    25    26    1
    32    23    24    1
    33    28    26    1
    34     7     8   ar
    35    10     9   ar
    36     8     9   ar
