@<TRIPOS>MOLECULE
3t12_GDP_A_1.pdb
 28 30 0 0 0
SMALL
GASTEIGER

@<TRIPOS>ATOM
      1  PB        34.8460   18.8150   -3.9690 P.3   197  GDP197      0.5373
      2  O1B       34.1300   18.8520   -5.2710 O.2   197  GDP197     -0.2221
      3  O2B       34.4410   19.9970   -3.1230 O.3   197  GDP197     -0.1143
      4  O3B       34.5340   17.4910   -3.2410 O.3   197  GDP197     -0.1143
      5  O3A       36.3760   18.9440   -4.3520 O.3   197  GDP197     -0.2261
      6  PA        37.2440   20.2340   -3.9170 P.3   197  GDP197      0.2231
      7  O1A       36.5350   21.4600   -4.5020 O.2   197  GDP197     -0.5169
      8  O2A       37.4670   20.0920   -2.4410 O.3   197  GDP197     -0.4370
      9  O5'       38.5890   19.7710   -4.6740 O.3   197  GDP197     -0.3111
     10  C5'       39.0740   18.4200   -4.5270 C.3   197  GDP197      0.1813
     11  C4'       40.5320   18.3970   -4.9410 C.3   197  GDP197      0.1799
     12  O4'       40.5710   18.5950   -6.3660 O.3   197  GDP197     -0.3326
     13  C3'       41.2990   19.5360   -4.2750 C.3   197  GDP197      0.2158
     14  O3'       42.6260   19.0760   -4.0350 O.3   197  GDP197     -0.2175
     15  C2'       41.3680   20.5840   -5.3500 C.3   197  GDP197      0.2310
     16  O2'       42.5790   21.3400   -5.2650 O.3   197  GDP197     -0.2158
     17  C1'       41.4640   19.6930   -6.5980 C.3   197  GDP197      0.2293
     18  N9        41.0540   20.4420   -7.8190 N.pl3 197  GDP197     -0.2354
     19  C8        39.9470   21.1810   -7.9480 C.3   197  GDP197      0.2246
     20  N7        39.8770   21.6700   -9.2230 N.2   197  GDP197     -0.2322
     21  C5        40.9510   21.2510   -9.8880 C.2   197  GDP197      0.2182
     22  C6        41.4700   21.4650  -11.2480 C.1   197  GDP197      0.2372
     23  O6        40.7870   22.1520  -12.0800 O.2   197  GDP197     -0.2069
     24  N1        42.6040   20.8250  -11.5460 N.2   197  GDP197     -0.2485
     25  C2        43.2770   20.0340  -10.7020 C.1   197  GDP197      0.2531
     26  N2        44.4250   19.4620  -11.1260 N.pl3 197  GDP197     -0.0226
     27  N3        42.8550   19.8220   -9.4160 N.2   197  GDP197     -0.3074
     28  C4        41.7200   20.4200   -8.9770 C.2   197  GDP197      0.2300
@<TRIPOS>BOND
     1    23    22    2
     2    24    22    2
     3    24    25    2
     4    22    21    1
     5    26    25    1
     6    25    27    2
     7    21    20    2
     8    21    28    1
     9    27    28    2
    10    20    19    1
    11    28    18    1
    12    19    18    1
    13    18    17    1
    14    17    12    1
    15    17    15    1
    16    12    11    1
    17    15    16    1
    18    15    13    1
    19     2     1    2
    20    11    10    1
    21    11    13    1
    22     9    10    1
    23     9     6    1
    24     7     6    2
    25     5     1    1
    26     5     6    1
    27    13    14    1
    28     1     4    1
    29     1     3    1
    30     6     8    1
