@<TRIPOS>MOLECULE
3t19_5MA_A_1.pdb
 31 35 0 0 0
SMALL
GASTEIGER

@<TRIPOS>ATOM
      1  C         11.3870   12.3610   15.3650 C.2   561  5MA561      0.0758
      2  N          7.3070   12.5430   15.1800 N.pl3 561  5MA561     -0.1956
      3  O         11.1930   11.9960   17.6970 O.3   561  5MA561     -0.4505
      4  C1        10.8630   12.6530   14.0860 C.3   561  5MA561      0.0685
      5 CL1        13.0790   12.2250   15.5890 Cl    561  5MA561     -0.0834
      6  C2         9.4630   12.6800   13.8960 C.2   561  5MA561     -0.0025
      7 CL2        10.6900   16.4660   19.9800 Cl    561  5MA561     -0.0822
      8  C3         8.6530   12.5210   15.0010 C.2   561  5MA561      0.0872
      9 CL3        10.1380   10.3050   19.7970 Cl    561  5MA561     -0.0793
     10  C4         9.1410   12.2940   16.2680 C.2   561  5MA561      0.1513
     11  C5        10.5510   12.2230   16.4720 C.2   561  5MA561      0.1724
     12  C6        10.9250   14.0770   18.8440 C.ar  561  5MA561      0.0497
     13  C7        10.7920   12.7110   18.8120 C.ar  561  5MA561      0.1564
     14  C8        10.2640   12.0120   19.9180 C.ar  561  5MA561      0.0896
     15  C9         9.8560   12.6620   21.1000 C.ar  561  5MA561      0.0112
     16  C10        9.9930   14.0700   21.1620 C.ar  561  5MA561      0.0096
     17  C11       10.5190   14.7490   20.0180 C.ar  561  5MA561      0.0605
     18  N12        6.9790   12.3500   16.5090 N.pl3 561  5MA561     -0.0440
     19  N13        8.1080   12.1730   17.1640 N.2   561  5MA561     -0.1391
     20  C14        6.2360   12.6060   14.1440 C.3   561  5MA561      0.1635
     21  C15        6.2490   11.0760   13.8690 C.2   561  5MA561      0.1124
     22  N16        6.6750   10.6380   12.6720 N.2   561  5MA561     -0.1411
     23  N17        6.6550    9.2840   12.7590 N.2   561  5MA561     -0.0938
     24  C18        6.2670    8.7940   13.9660 C.1   561  5MA561      0.0578
     25  C19        5.9720    9.9290   14.7460 C.2   561  5MA561      0.0812
     26  N20        6.1700    7.4620   14.3640 N.2   561  5MA561     -0.1908
     27  C21        5.7460    7.2680   15.6980 C.2   561  5MA561      0.1096
     28  C22        5.3980    8.3070   16.6000 C.2   561  5MA561      0.0222
     29  C23        5.5220    9.6450   16.1100 C.2   561  5MA561      0.0130
     30  C24        9.2650   11.8870   22.2500 C.3   561  5MA561      0.1366
     31  N26       10.1720   11.2490   23.2260 N.3   561  5MA561     -0.1262
@<TRIPOS>BOND
     1    22    23    1
     2    22    21    2
     3    23    24    2
     4    21    20    1
     5    21    25    1
     6     6     4    1
     7     6     8    2
     8    24    26    2
     9    24    25    1
    10     4     1    1
    11    20     2    1
    12    26    27    1
    13    25    29    2
    14     8     2    1
    15     8    10    1
    16     2    18    1
    17     1     5    1
    18     1    11    2
    19    27    28    2
    20    29    28    1
    21    10    11    1
    22    10    19    2
    23    11     3    1
    24    18    19    1
    25     3    13    1
    26    13    12   ar
    27    13    14   ar
    28    12    17   ar
    29     9    14    1
    30    14    15   ar
    31     7    17    1
    32    17    16   ar
    33    15    16   ar
    34    15    30    1
    35    30    31    1
