@<TRIPOS>MOLECULE
3t1a_5MA_A_1.pdb
 31 35 0 0 0
SMALL
GASTEIGER

@<TRIPOS>ATOM
      1  C         11.4080   12.3660   15.5530 C.2   561  5MA561      0.0758
      2  N          7.2630   12.6130   15.4030 N.pl3 561  5MA561     -0.1956
      3  O         11.2640   12.1160   17.8480 O.3   561  5MA561     -0.4505
      4  C1        10.8530   12.6120   14.2850 C.3   561  5MA561      0.0685
      5 CL1        13.0820   12.2060   15.7200 Cl    561  5MA561     -0.0834
      6  C2         9.4610   12.6660   14.1140 C.2   561  5MA561     -0.0025
      7 CL2        10.7730   16.5220   20.1850 Cl    561  5MA561     -0.0822
      8  C3         8.6380   12.5630   15.2060 C.2   561  5MA561      0.0872
      9 CL3        10.0370   10.4940   19.9580 Cl    561  5MA561     -0.0793
     10  C4         9.1530   12.3540   16.4660 C.2   561  5MA561      0.1513
     11  C5        10.6050   12.2760   16.6450 C.2   561  5MA561      0.1724
     12  C6        10.9570   14.1900   19.0090 C.ar  561  5MA561      0.0497
     13  C7        10.8060   12.8470   18.9610 C.ar  561  5MA561      0.1564
     14  C8        10.2340   12.1840   20.0430 C.ar  561  5MA561      0.0896
     15  C9         9.8010   12.8410   21.2080 C.ar  561  5MA561      0.0112
     16  C10        9.9730   14.2300   21.2680 C.ar  561  5MA561      0.0096
     17  C11       10.5600   14.8460   20.1640 C.ar  561  5MA561      0.0605
     18  N12        6.9380   12.4490   16.7120 N.pl3 561  5MA561     -0.0440
     19  N13        8.1230   12.2960   17.3600 N.2   561  5MA561     -0.1391
     20  C14        6.1970   12.6620   14.4410 C.3   561  5MA561      0.1635
     21  C15        6.2050   11.1540   14.0800 C.2   561  5MA561      0.1124
     22  N16        6.5770   10.7610   12.8400 N.2   561  5MA561     -0.1411
     23  N17        6.5230    9.4050   12.8480 N.2   561  5MA561     -0.0938
     24  C18        6.1700    8.8790   14.0340 C.1   561  5MA561      0.0578
     25  C19        5.9430    9.9850   14.8960 C.2   561  5MA561      0.0812
     26  N20        6.0760    7.5410   14.3510 N.2   561  5MA561     -0.1908
     27  C21        5.7170    7.3070   15.6800 C.2   561  5MA561      0.1096
     28  C22        5.4210    8.2970   16.6630 C.2   561  5MA561      0.0222
     29  C23        5.5570    9.6550   16.2430 C.2   561  5MA561      0.0130
     30  C24        9.1700   12.1090   22.3640 C.3   561  5MA561      0.1366
     31  N26       10.0950   11.1680   22.9820 N.3   561  5MA561     -0.1262
@<TRIPOS>BOND
     1    22    23    1
     2    22    21    2
     3    23    24    2
     4    24    26    2
     5    24    25    1
     6    21    20    1
     7    21    25    1
     8     6     4    1
     9     6     8    2
    10     4     1    1
    11    26    27    1
    12    20     2    1
    13    25    29    2
    14     8     2    1
    15     8    10    1
    16     2    18    1
    17     1     5    1
    18     1    11    2
    19    27    28    2
    20    29    28    1
    21    10    11    1
    22    10    19    2
    23    11     3    1
    24    18    19    1
    25     3    13    1
    26    13    12   ar
    27    13    14   ar
    28    12    17   ar
    29     9    14    1
    30    14    15   ar
    31    17     7    1
    32    17    16   ar
    33    15    16   ar
    34    15    30    1
    35    30    31    1
