@<TRIPOS>MOLECULE
3t1d_DBS_B_1.pdb
 17 17 0 0 0
SMALL
GASTEIGER

@<TRIPOS>ATOM
      1  O4        77.8080   26.1480   56.5060 O.3   181  DBS181     -0.2831
      2  C4        79.0870   26.5180   56.7290 C.ar  181  DBS181      0.2344
      3  C7        79.9270   25.7340   57.4640 C.ar  181  DBS181      0.0454
      4  C1        79.5130   27.6880   56.2000 C.ar  181  DBS181      0.2386
      5  O1        78.5830   28.3810   55.4840 O.3   181  DBS181     -0.2830
      6  C16       80.8190   28.1140   56.3720 C.ar  181  DBS181      0.0971
      7  C13       81.6680   27.3430   57.1280 C.ar  181  DBS181      0.0080
      8  C10       81.2200   26.1580   57.6700 C.ar  181  DBS181      0.0036
      9  C19       81.3040   29.4330   55.8390 C.2   181  DBS181      0.2685
     10  O7        82.4980   29.6590   55.8150 O.2   181  DBS181     -0.2682
     11  N1        80.3710   30.3310   55.4730 N.am  181  DBS181     -0.1890
     12  C22       80.5650   31.6960   54.9700 C.3   181  DBS181      0.2307
     13  C28       80.5580   31.5810   53.4450 C.3   181  DBS181      0.2152
     14  O13       80.8480   32.8580   52.8680 O.3   181  DBS181     -0.2179
     15  C25       79.4670   32.6180   55.4760 C.2   181  DBS181      0.3869
     16  O10       79.4440   34.0410   55.1630 O.co2 181  DBS181     -0.2437
     17  O15       78.5510   32.1930   56.1710 O.co2 181  DBS181     -0.2437
@<TRIPOS>BOND
     1    14    13    1
     2    13    12    1
     3    12    11    1
     4    12    15    1
     5    16    15   ar
     6    11     9   am
     7    15    17   ar
     8     5     4    1
     9    10     9    2
    10     9     6    1
    11     4     6   ar
    12     4     2   ar
    13     6     7   ar
    14     1     2    1
    15     2     3   ar
    16     7     8   ar
    17     3     8   ar
