@<TRIPOS>MOLECULE
3t1d_DBH_B_1.pdb
 11 11 0 0 0
SMALL
GASTEIGER

@<TRIPOS>ATOM
      1  O17       74.5500   25.9630   51.2220 O.co2 182  DBH182     -0.2404
      2  C21       75.1990   25.8330   52.2810 C.2   182  DBH182      0.3910
      3  O9        76.2690   25.1840   52.2620 O.co2 182  DBH182     -0.2404
      4  C18       74.6610   26.4650   53.5500 C.ar  182  DBH182      0.1218
      5  C15       73.2780   26.5110   53.7000 C.ar  182  DBH182      0.0100
      6  C12       72.7070   27.0920   54.8370 C.ar  182  DBH182      0.0037
      7  C3        75.4620   27.0170   54.5730 C.ar  182  DBH182      0.2405
      8  O3        76.8230   27.0240   54.5130 O.3   182  DBH182     -0.2829
      9  C6        74.8870   27.5840   55.7100 C.ar  182  DBH182      0.2345
     10  C9        73.5060   27.6260   55.8430 C.ar  182  DBH182      0.0454
     11  O6        75.6640   28.1190   56.6970 O.3   182  DBH182     -0.2831
@<TRIPOS>BOND
     1     1     2   ar
     2     3     2   ar
     3     2     4    1
     4     4     5   ar
     5     4     7   ar
     6     5     6   ar
     7     8     7    1
     8     7     9   ar
     9     6    10   ar
    10     9    10   ar
    11     9    11    1
