@<TRIPOS>MOLECULE
3t1d_TD1_A_1.pdb
 23 23 0 0 0
SMALL
GASTEIGER

@<TRIPOS>ATOM
      1  C1        52.4930   40.8760   43.2100 C.ar  186  TD1186      0.0971
      2  C2        51.1830   40.5860   43.5680 C.ar  186  TD1186      0.2386
      3  C3        50.6410   41.0010   44.7460 C.ar  186  TD1186      0.2344
      4  C4        51.4150   41.7330   45.6310 C.ar  186  TD1186      0.0454
      5  C5        52.7280   42.0430   45.3010 C.ar  186  TD1186      0.0036
      6  C6        53.2650   41.6150   44.0970 C.ar  186  TD1186      0.0080
      7  C7        53.1050   40.4290   41.9030 C.2   186  TD1186      0.2686
      8  O8        54.3180   40.3470   41.8310 O.2   186  TD1186     -0.2682
      9  N9        52.3330   40.1380   40.8510 N.am  186  TD1186     -0.1878
     10  O10       50.3230   39.8840   42.8000 O.3   186  TD1186     -0.2830
     11  O11       49.3440   40.6310   44.9770 O.3   186  TD1186     -0.2831
     12  C12       52.8240   39.6880   39.5420 C.3   186  TD1186      0.2414
     13  C13       51.8290   40.0540   38.4720 C.2   186  TD1186      0.3880
     14  C14       52.9630   38.1540   39.5830 C.3   186  TD1186      0.2415
     15  O15       54.1850   37.6990   40.1850 O.3   186  TD1186     -0.4449
     16  O16       50.8150   40.6700   38.7590 O.co2 186  TD1186     -0.2436
     17  O17       52.0550   39.6690   37.0860 O.co2 186  TD1186     -0.2436
     18  C24       54.1420   36.8680   41.3920 C.2   186  TD1186      0.3373
     19  O25       53.8610   37.3740   42.4670 O.2   186  TD1186     -0.2484
     20  C26       54.4350   35.3950   41.3370 C.3   186  TD1186      0.2227
     21  N27       54.8930   34.9710   42.6450 N.3   186  TD1186     -0.1181
     22  C28       53.1980   34.5710   40.9690 C.3   186  TD1186      0.2124
     23  O45       52.4490   35.1720   39.8990 O.3   186  TD1186     -0.2182
@<TRIPOS>BOND
     1    17    13   ar
     2    13    16   ar
     3    13    12    1
     4    12    14    1
     5    12     9    1
     6    14    15    1
     7    23    22    1
     8    15    18    1
     9     9     7   am
    10    22    20    1
    11    20    18    1
    12    20    21    1
    13    18    19    2
    14     8     7    2
    15     7     1    1
    16    10     2    1
    17     1     2   ar
    18     1     6   ar
    19     2     3   ar
    20     6     5   ar
    21     3    11    1
    22     3     4   ar
    23     5     4   ar
