@<TRIPOS>MOLECULE
3t1k_ANP_A_1.pdb
 31 33 0 0 0
SMALL
GASTEIGER

@<TRIPOS>ATOM
      1  PG       -32.3940   18.1620  -25.5780 P.3   301  ANP301      0.4884
      2  O1G      -31.4250   19.1770  -25.0280 O.3   301  ANP301     -0.1240
      3  O2G      -31.8820   17.3540  -26.7020 O.2   301  ANP301     -0.2331
      4  O3G      -33.7210   18.8050  -25.9720 O.3   301  ANP301     -0.1240
      5  PB       -32.6170   15.4510  -24.4410 P.3   301  ANP301      0.4669
      6  O1B      -31.3360   15.0830  -25.0710 O.2   301  ANP301     -0.2351
      7  O2B      -32.9270   14.9120  -23.0280 O.3   301  ANP301     -0.1253
      8  N3B      -32.7830   17.1340  -24.2320 N.3   301  ANP301     -0.0163
      9  PA       -33.7330   14.1710  -26.8200 P.3   301  ANP301      0.2220
     10  O1A      -32.5410   14.5190  -27.6110 O.2   301  ANP301     -0.5170
     11  O2A      -35.0830   14.2870  -27.4110 O.3   301  ANP301     -0.4370
     12  O3A      -33.8030   15.0030  -25.4480 O.3   301  ANP301     -0.2360
     13  O5'      -33.4750   12.6850  -26.3190 O.3   301  ANP301     -0.3111
     14  C5'      -34.4250   12.1200  -25.4220 C.3   301  ANP301      0.1813
     15  C4'      -33.8010   11.0680  -24.5520 C.3   301  ANP301      0.1821
     16  O4'      -33.4260    9.9040  -25.3160 O.3   301  ANP301     -0.3135
     17  C3'      -32.5060   11.4860  -23.8700 C.3   301  ANP301      0.2184
     18  O3'      -32.7040   12.2820  -22.6960 O.3   301  ANP301     -0.2174
     19  C2'      -31.8480   10.1530  -23.5670 C.3   301  ANP301      0.2570
     20  O2'      -32.3610    9.6270  -22.3260 O.3   301  ANP301     -0.2130
     21  C1'      -32.2770    9.2860  -24.7550 C.3   301  ANP301      0.3186
     22  N9       -31.2420    9.2300  -25.7980 N.pl3 301  ANP301     -0.1439
     23  C8       -31.2680    9.8400  -27.0150 C.3   301  ANP301      0.3377
     24  N7       -30.1640    9.5250  -27.7090 N.2   301  ANP301     -0.2095
     25  C5       -29.3810    8.7230  -26.9270 C.2   301  ANP301      0.2526
     26  C6       -28.0830    8.0770  -27.0580 C.2   301  ANP301      0.4393
     27  N6       -27.3210    8.2510  -28.1610 N.pl3 301  ANP301      0.2180
     28  N1       -27.6680    7.3350  -26.0160 N.2   301  ANP301      0.0021
     29  C2       -28.4010    7.1720  -24.8890 C.3   301  ANP301      0.5254
     30  N3       -29.6080    7.7360  -24.6950 N.2   301  ANP301     -0.0055
     31  C4       -30.1080    8.5410  -25.6840 C.2   301  ANP301      0.3518
@<TRIPOS>BOND
     1    27    26    1
     2    24    23    1
     3    24    25    2
     4    10     9    2
     5    11     9    1
     6    26    25    1
     7    26    28    2
     8    23    22    1
     9    25    31    1
    10     9    13    1
    11     9    12    1
    12     3     1    2
    13    13    14    1
    14    28    29    1
    15     4     1    1
    16    22    31    1
    17    22    21    1
    18    31    30    2
    19     1     2    1
    20     1     8    1
    21    12     5    1
    22    14    15    1
    23    16    21    1
    24    16    15    1
    25     6     5    2
    26    29    30    1
    27    21    19    1
    28    15    17    1
    29     5     8    1
    30     5     7    1
    31    17    19    1
    32    17    18    1
    33    19    20    1
