@<TRIPOS>MOLECULE
3t1l_MQT_A_1.pdb
 25 26 0 0 0
SMALL
GASTEIGER

@<TRIPOS>ATOM
      1  C1        20.5750   -8.7620   -1.5340 C.3     1  MQT1        0.2809
      2  O1        21.5150   -9.8170   -1.3540 O.3     1  MQT1       -0.3250
      3  C2        19.1550   -9.2830   -1.3740 C.3     1  MQT1        0.2668
      4  O2        19.0100   -9.8730   -0.0790 O.3     1  MQT1       -0.4430
      5  C3        18.1500   -8.1480   -1.5300 C.3     1  MQT1        0.2465
      6  O3        16.8560   -8.6510   -1.1850 O.3     1  MQT1       -0.4425
      7  C4        18.5060   -6.9590   -0.6360 C.3     1  MQT1        0.2251
      8  O4        18.1620   -7.2740    0.7170 O.3     1  MQT1       -0.2164
      9  C5        19.9900   -6.5950   -0.7610 C.3     1  MQT1        0.1846
     10  O5        20.8010   -7.7520   -0.5550 O.3     1  MQT1       -0.3248
     11  C6        20.4420   -5.5190    0.2280 C.3     1  MQT1        0.2143
     12  O6        21.8600   -5.3220    0.0940 O.3     1  MQT1       -0.2176
     13  OAA       15.8780   -7.3990   -2.8880 O.2     1  MQT1       -0.2449
     14  CAB       15.7420   -8.2700   -2.0440 C.2     1  MQT1        0.3413
     15  CAC       14.4220   -8.9660   -1.8660 C.ar    1  MQT1        0.0756
     16  CAD       14.3730  -10.2320   -1.2830 C.ar    1  MQT1        0.0061
     17  CAE       13.1490  -10.8770   -1.1130 C.ar    1  MQT1       -0.0040
     18  CAF       11.9730  -10.2600   -1.5250 C.ar    1  MQT1       -0.0218
     19  CAG       10.6520  -10.9590   -1.3430 C.3     1  MQT1        0.0310
     20  CAH       12.0200   -8.9960   -2.1050 C.ar    1  MQT1       -0.0040
     21  CAI       13.2410   -8.3500   -2.2750 C.ar    1  MQT1        0.0061
     22  CAN       18.4360  -11.2120   -0.0370 C.2     1  MQT1        0.3177
     23  OAO       18.1700  -11.8890   -1.1520 O.2     1  MQT1       -0.2501
     24  CAP       18.1770  -11.7650    1.1360 C.3     1  MQT1        0.1212
     25  CAS       22.8310   -9.4080   -1.7260 C.3     1  MQT1        0.1770
@<TRIPOS>BOND
     1    13    14    2
     2    21    20   ar
     3    21    15   ar
     4    20    18   ar
     5    14    15    1
     6    14     6    1
     7    15    16   ar
     8    25     2    1
     9     1     3    1
    10     1     2    1
    11     1    10    1
    12     5     3    1
    13     5     6    1
    14     5     7    1
    15    18    19    1
    16    18    17   ar
    17     3     4    1
    18    16    17   ar
    19    23    22    2
    20     9     7    1
    21     9    10    1
    22     9    11    1
    23     7     8    1
    24     4    22    1
    25    22    24    1
    26    12    11    1
