@<TRIPOS>MOLECULE
3t1m_DQT_A_1.pdb
 31 33 0 0 0
SMALL
GASTEIGER

@<TRIPOS>ATOM
      1  C1        20.2030   -8.7660   -1.5000 C.3     1  DQT1        0.2789
      2  O1        21.0260   -9.9140   -1.2970 O.3     1  DQT1       -0.3251
      3  C2        18.7260   -9.1380   -1.3820 C.3     1  DQT1        0.2473
      4  O2        18.5920   -9.8760   -0.1750 O.3     1  DQT1       -0.4420
      5  C3        17.7870   -7.9360   -1.3150 C.3     1  DQT1        0.1733
      6  N3        16.5370   -8.2950   -0.6750 N.am    1  DQT1       -0.1968
      7  C4        18.3630   -6.8080   -0.4590 C.3     1  DQT1        0.2051
      8  O4        18.1180   -7.1120    0.9200 O.3     1  DQT1       -0.2185
      9  C5        19.8560   -6.5790   -0.6850 C.3     1  DQT1        0.1827
     10  O5        20.5660   -7.8050   -0.5100 O.3     1  DQT1       -0.3249
     11  C6        20.4300   -5.5470    0.2810 C.3     1  DQT1        0.2142
     12  O6        21.8210   -5.3590    0.0280 O.3     1  DQT1       -0.2176
     13  CA1       18.2100  -11.2480   -0.2750 C.2     1  DQT1        0.3413
     14  OA1       18.2850  -11.8620   -1.3330 O.2     1  DQT1       -0.2449
     15  CA2       17.7230  -11.9000    0.9830 C.ar    1  DQT1        0.0756
     16  CA3       17.4350  -13.2640    1.0300 C.ar    1  DQT1        0.0061
     17  CA4       16.9860  -13.8340    2.2190 C.ar    1  DQT1       -0.0040
     18  CA5       16.8280  -13.0430    3.3550 C.ar    1  DQT1       -0.0218
     19  CA6       17.1160  -11.6860    3.3050 C.ar    1  DQT1       -0.0040
     20  CA7       17.5650  -11.1150    2.1230 C.ar    1  DQT1        0.0061
     21  CA8       16.3440  -13.6410    4.6470 C.3     1  DQT1        0.0310
     22  CB1       15.3180   -8.2210   -1.2150 C.2     1  DQT1        0.2649
     23  OB1       15.1440   -7.9690   -2.3990 O.2     1  DQT1       -0.2684
     24  CB2       14.1160   -8.3930   -0.3130 C.ar    1  DQT1        0.0550
     25  CB3       14.2060   -8.0930    1.0510 C.ar    1  DQT1        0.0042
     26  CB4       13.1040   -8.2380    1.8860 C.ar    1  DQT1       -0.0041
     27  CB5       11.8920   -8.6790    1.3730 C.ar    1  DQT1       -0.0218
     28  CB6       11.7860   -8.9760    0.0150 C.ar    1  DQT1       -0.0041
     29  CB7       12.8920   -8.8310   -0.8250 C.ar    1  DQT1        0.0042
     30  CB8       10.7100   -8.8250    2.2960 C.3     1  DQT1        0.0310
     31  CME       22.3850   -9.6440   -1.6390 C.3     1  DQT1        0.1770
@<TRIPOS>BOND
     1    23    22    2
     2    31     2    1
     3     1     3    1
     4     1     2    1
     5     1    10    1
     6     3     5    1
     7     3     4    1
     8    14    13    2
     9     5     6    1
    10     5     7    1
    11    22     6   am
    12    22    24    1
    13    29    24   ar
    14    29    28   ar
    15     9    10    1
    16     9     7    1
    17     9    11    1
    18     7     8    1
    19    24    25   ar
    20    13     4    1
    21    13    15    1
    22    28    27   ar
    23    12    11    1
    24    15    16   ar
    25    15    20   ar
    26    16    17   ar
    27    25    26   ar
    28    27    26   ar
    29    27    30    1
    30    20    19   ar
    31    17    18   ar
    32    19    18   ar
    33    18    21    1
