@<TRIPOS>MOLECULE
3t1o_GDP_A_1.pdb
 28 30 0 0 0
SMALL
GASTEIGER

@<TRIPOS>ATOM
      1  PB         7.5160    5.5600   21.3630 P.3   274  GDP274      0.5373
      2  O1B        6.3400    5.2890   20.4360 O.2   274  GDP274     -0.2221
      3  O2B        6.9340    6.2960   22.5200 O.3   274  GDP274     -0.1143
      4  O3B        8.5970    6.2860   20.6830 O.3   274  GDP274     -0.1143
      5  O3A        7.9640    4.0900   21.9110 O.3   274  GDP274     -0.2261
      6  PA         9.2950    3.2710   21.7180 P.3   274  GDP274      0.2231
      7  O1A       10.2860    3.9190   22.5710 O.3   274  GDP274     -0.4370
      8  O2A        9.7080    3.1120   20.3140 O.2   274  GDP274     -0.5169
      9  O5'        8.8360    1.7930   22.2940 O.3   274  GDP274     -0.3111
     10  C5'        8.3150    1.7130   23.6060 C.3   274  GDP274      0.1813
     11  C4'        8.7800    0.3870   24.2540 C.3   274  GDP274      0.1799
     12  O4'        8.2400   -0.5640   23.4170 O.3   274  GDP274     -0.3326
     13  C3'       10.2890    0.1250   24.1810 C.3   274  GDP274      0.2158
     14  O3'       10.6050   -0.5540   25.3900 O.3   274  GDP274     -0.2175
     15  C2'       10.4850   -0.7780   22.9760 C.3   274  GDP274      0.2310
     16  O2'       11.5540   -1.7470   23.0790 O.3   274  GDP274     -0.2158
     17  C1'        9.1860   -1.5000   22.9380 C.3   274  GDP274      0.2293
     18  N9         8.8450   -1.9580   21.5470 N.pl3 274  GDP274     -0.2354
     19  C8         8.8650   -1.2570   20.3830 C.3   274  GDP274      0.2246
     20  N7         8.5030   -2.0330   19.3420 N.2   274  GDP274     -0.2322
     21  C5         8.2490   -3.2520   19.8780 C.2   274  GDP274      0.2182
     22  C6         7.8250   -4.5410   19.3660 C.1   274  GDP274      0.2372
     23  O6         7.6170   -4.6820   18.1630 O.2   274  GDP274     -0.2069
     24  N1         7.6510   -5.5850   20.2240 N.2   274  GDP274     -0.2485
     25  C2         7.8960   -5.4400   21.5610 C.1   274  GDP274      0.2531
     26  N2         7.7310   -6.4870   22.4290 N.pl3 274  GDP274     -0.0226
     27  N3         8.3040   -4.3070   22.0920 N.2   274  GDP274     -0.3074
     28  C4         8.4440   -3.1960   21.3100 C.2   274  GDP274      0.2300
@<TRIPOS>BOND
     1    23    22    2
     2    20    21    2
     3    20    19    1
     4    22    21    1
     5    22    24    2
     6    21    28    1
     7    24    25    2
     8     8     6    2
     9    19    18    1
    10     2     1    2
    11     4     1    1
    12    28    18    1
    13    28    27    2
    14     1     5    1
    15     1     3    1
    16    18    17    1
    17    25    27    2
    18    25    26    1
    19     6     5    1
    20     6     9    1
    21     6     7    1
    22     9    10    1
    23    17    15    1
    24    17    12    1
    25    15    16    1
    26    15    13    1
    27    12    11    1
    28    10    11    1
    29    13    11    1
    30    13    14    1
