@<TRIPOS>MOLECULE
3t1q_GNP_A_1.pdb
 32 34 0 0 0
SMALL
GASTEIGER

@<TRIPOS>ATOM
      1  PG        33.6470   16.9750   -2.2750 P.3   197  GNP197      0.4884
      2  O1G       32.3440   16.6000   -2.8710 O.2   197  GNP197     -0.2331
      3  O2G       34.2140   15.7670   -1.4110 O.3   197  GNP197     -0.1240
      4  O3G       33.5280   18.2040   -1.2210 O.3   197  GNP197     -0.1240
      5  N3B       34.8530   17.3740   -3.3110 N.3   197  GNP197     -0.0163
      6  PB        34.8220   18.8410   -4.1180 P.3   197  GNP197      0.4669
      7  O1B       34.1350   18.6660   -5.4150 O.2   197  GNP197     -0.2351
      8  O2B       34.3970   19.9730   -3.2600 O.3   197  GNP197     -0.1253
      9  O3A       36.4480   18.9190   -4.5190 O.3   197  GNP197     -0.2360
     10  PA        37.4530   20.0700   -3.8750 P.3   197  GNP197      0.2220
     11  O1A       37.7880   19.9200   -2.4260 O.3   197  GNP197     -0.4370
     12  O2A       36.8760   21.3330   -4.3520 O.2   197  GNP197     -0.5170
     13  O5'       38.7980   19.7700   -4.6610 O.3   197  GNP197     -0.3111
     14  C5'       39.3490   18.4690   -4.5300 C.3   197  GNP197      0.1813
     15  C4'       40.8300   18.4750   -4.8700 C.3   197  GNP197      0.1799
     16  O4'       40.9390   18.7110   -6.2960 O.3   197  GNP197     -0.3326
     17  C3'       41.7280   19.5710   -4.2180 C.3   197  GNP197      0.2158
     18  O3'       43.0540   19.0230   -4.2140 O.3   197  GNP197     -0.2175
     19  C2'       41.6630   20.6590   -5.2600 C.3   197  GNP197      0.2310
     20  O2'       42.7640   21.5300   -5.1770 O.3   197  GNP197     -0.2158
     21  C1'       41.9110   19.8050   -6.4730 C.3   197  GNP197      0.2293
     22  N9        41.4990   20.4740   -7.6780 N.pl3 197  GNP197     -0.2354
     23  C8        40.3560   21.1600   -7.8000 C.3   197  GNP197      0.2246
     24  N7        40.2490   21.6230   -9.0390 N.2   197  GNP197     -0.2322
     25  C5        41.3250   21.2140   -9.7230 C.2   197  GNP197      0.2182
     26  C6        41.7070   21.4100  -11.0420 C.1   197  GNP197      0.2372
     27  O6        40.9870   22.0520  -11.8210 O.2   197  GNP197     -0.2069
     28  N1        42.9100   20.8280  -11.4590 N.2   197  GNP197     -0.2485
     29  C2        43.6920   20.0780  -10.5770 C.1   197  GNP197      0.2531
     30  N2        44.8390   19.5520  -11.0270 N.pl3 197  GNP197     -0.0226
     31  N3        43.2900   19.9050   -9.2860 N.2   197  GNP197     -0.3074
     32  C4        42.1310   20.4670   -8.8540 C.2   197  GNP197      0.2300
@<TRIPOS>BOND
     1    27    26    2
     2    28    26    2
     3    28    29    2
     4    26    25    1
     5    30    29    1
     6    29    31    2
     7    25    24    2
     8    25    32    1
     9    31    32    2
    10    24    23    1
    11    32    22    1
    12    23    22    1
    13    22    21    1
    14    21    16    1
    15    21    19    1
    16    16    15    1
    17     7     6    2
    18    19    20    1
    19    19    17    1
    20    15    14    1
    21    15    17    1
    22    13    14    1
    23    13    10    1
    24     9     6    1
    25     9    10    1
    26    12    10    2
    27    17    18    1
    28     6     5    1
    29     6     8    1
    30    10    11    1
    31     5     1    1
    32     2     1    2
    33     1     3    1
    34     1     4    1
