@<TRIPOS>MOLECULE
3t1t_GDP_A_1.pdb
 28 30 0 0 0
SMALL
GASTEIGER

@<TRIPOS>ATOM
      1  PB         1.1570   19.6020  -42.2130 P.3   274  GDP274      0.5373
      2  O1B        2.1450   18.5810  -41.9130 O.3   274  GDP274     -0.1143
      3  O2B        1.5720   21.0400  -42.4420 O.2   274  GDP274     -0.2221
      4  O3B       -0.1000   19.5590  -41.4390 O.3   274  GDP274     -0.1143
      5  O3A        0.5880   19.2200  -43.7760 O.3   274  GDP274     -0.2261
      6  PA        -0.9070   18.8960  -44.1570 P.3   274  GDP274      0.2231
      7  O1A       -1.6780   20.0900  -43.9710 O.2   274  GDP274     -0.5169
      8  O2A       -1.5190   17.7400  -43.4220 O.3   274  GDP274     -0.4370
      9  O5'       -0.6480   18.3900  -45.7040 O.3   274  GDP274     -0.3111
     10  C5'        0.0740   19.2160  -46.6610 C.3   274  GDP274      0.1813
     11  C4'       -0.6030   18.9860  -48.0540 C.3   274  GDP274      0.1799
     12  O4'       -0.2730   17.6820  -48.4600 O.3   274  GDP274     -0.3326
     13  C3'       -2.1410   19.0140  -48.0990 C.3   274  GDP274      0.2158
     14  O3'       -2.5310   19.4940  -49.3990 O.3   274  GDP274     -0.2175
     15  C2'       -2.5640   17.5480  -48.0850 C.3   274  GDP274      0.2310
     16  O2'       -3.8610   17.2970  -48.7110 O.3   274  GDP274     -0.2158
     17  C1'       -1.4060   16.9070  -48.8110 C.3   274  GDP274      0.2293
     18  N9        -1.1580   15.5270  -48.3780 N.pl3 274  GDP274     -0.2354
     19  C8        -1.2930   15.0290  -47.1000 C.3   274  GDP274      0.2246
     20  N7        -1.0210   13.7180  -47.0430 N.2   274  GDP274     -0.2322
     21  C5        -0.7200   13.3390  -48.3210 C.2   274  GDP274      0.2182
     22  C6        -0.3370   12.0820  -49.0600 C.1   274  GDP274      0.2372
     23  O6        -0.2200   10.9820  -48.5080 O.2   274  GDP274     -0.2069
     24  N1        -0.1600   12.1400  -50.4020 N.2   274  GDP274     -0.2485
     25  C2        -0.2430   13.2920  -51.1010 C.1   274  GDP274      0.2531
     26  N2        -0.0230   13.2780  -52.4520 N.pl3 274  GDP274     -0.0226
     27  N3        -0.6030   14.4550  -50.5210 N.2   274  GDP274     -0.3074
     28  C4        -0.8390   14.5360  -49.1800 C.2   274  GDP274      0.2300
@<TRIPOS>BOND
     1    26    25    1
     2    25    27    2
     3    25    24    2
     4    27    28    2
     5    24    22    2
     6    14    13    1
     7    28    18    1
     8    28    21    1
     9    22    23    2
    10    22    21    1
    11    17    12    1
    12    17    18    1
    13    17    15    1
    14    16    15    1
    15    12    11    1
    16    18    19    1
    17    21    20    2
    18    13    15    1
    19    13    11    1
    20    11    10    1
    21    19    20    1
    22    10     9    1
    23     9     6    1
    24     6     7    2
    25     6     5    1
    26     6     8    1
    27     5     1    1
    28     3     1    2
    29     1     2    1
    30     1     4    1
