@<TRIPOS>MOLECULE
3t1v_GDP_A_1.pdb
 28 30 0 0 0
SMALL
GASTEIGER

@<TRIPOS>ATOM
      1  PB         6.9140   -5.1530   52.4930 P.3   274  GDP274      0.5373
      2  O1B        6.7600   -3.9960   51.5650 O.2   274  GDP274     -0.2221
      3  O2B        7.2520   -4.7080   53.8710 O.3   274  GDP274     -0.1143
      4  O3B        7.8000   -6.2760   51.9750 O.3   274  GDP274     -0.1143
      5  O3A        5.3590   -5.5720   52.4940 O.3   274  GDP274     -0.2261
      6  PA         4.7930   -7.0680   52.5250 P.3   274  GDP274      0.2231
      7  O1A        5.4820   -7.7590   53.6480 O.3   274  GDP274     -0.4370
      8  O2A        4.9070   -7.6410   51.1410 O.2   274  GDP274     -0.5169
      9  O5'        3.2470   -6.7550   52.8580 O.3   274  GDP274     -0.3111
     10  C5'        2.7960   -6.2250   54.1060 C.3   274  GDP274      0.1813
     11  C4'        1.3800   -6.7200   54.3920 C.3   274  GDP274      0.1799
     12  O4'        0.5840   -6.2750   53.2890 O.3   274  GDP274     -0.3326
     13  C3'        1.3090   -8.2430   54.3870 C.3   274  GDP274      0.2158
     14  O3'        0.4540   -8.7160   55.4070 O.3   274  GDP274     -0.2175
     15  C2'        0.7280   -8.5850   53.0160 C.3   274  GDP274      0.2310
     16  O2'       -0.0370   -9.7870   52.9050 O.3   274  GDP274     -0.2158
     17  C1'       -0.1230   -7.3880   52.7120 C.3   274  GDP274      0.2293
     18  N9        -0.3020   -7.2130   51.2400 N.pl3 274  GDP274     -0.2354
     19  C8         0.6320   -7.2910   50.2670 C.3   274  GDP274      0.2246
     20  N7         0.0990   -7.0430   49.0480 N.2   274  GDP274     -0.2322
     21  C5        -1.2090   -6.7960   49.2530 C.2   274  GDP274      0.2182
     22  C6        -2.3940   -6.4840   48.4060 C.1   274  GDP274      0.2372
     23  O6        -2.2760   -6.3740   47.1720 O.2   274  GDP274     -0.2069
     24  N1        -3.5850   -6.3210   49.0030 N.2   274  GDP274     -0.2485
     25  C2        -3.7340   -6.4520   50.3350 C.1   274  GDP274      0.2531
     26  N2        -4.9480   -6.2690   50.8890 N.pl3 274  GDP274     -0.0226
     27  N3        -2.6970   -6.7590   51.1590 N.2   274  GDP274     -0.3074
     28  C4        -1.4540   -6.9160   50.6840 C.2   274  GDP274      0.2300
@<TRIPOS>BOND
     1    23    22    2
     2    22    24    2
     3    22    21    1
     4    24    25    2
     5    20    21    2
     6    20    19    1
     7    21    28    1
     8    19    18    1
     9    25    26    1
    10    25    27    2
    11    28    27    2
    12    28    18    1
    13     8     6    2
    14    18    17    1
    15     2     1    2
    16     4     1    1
    17     1     5    1
    18     1     3    1
    19     5     6    1
    20     6     9    1
    21     6     7    1
    22    17    15    1
    23    17    12    1
    24     9    10    1
    25    16    15    1
    26    15    13    1
    27    12    11    1
    28    10    11    1
    29    13    11    1
    30    13    14    1
