@<TRIPOS>MOLECULE
3t24_C8E_A_1.pdb
 18 17 0 0 0
SMALL
GASTEIGER

@<TRIPOS>ATOM
      1  C1        -5.8690   13.3690  -13.8440 C.3   401  C8E401      0.0000
      2  C2        -5.5710   13.8460  -15.2640 C.3   401  C8E401      0.0000
      3  C3        -4.3530   14.7650  -15.2720 C.3   401  C8E401      0.0000
      4  C4        -4.1980   15.5690  -16.5640 C.3   401  C8E401      0.0000
      5  C5        -2.8900   16.3740  -16.5700 C.3   401  C8E401      0.0001
      6  C6        -3.0900   17.9020  -16.5630 C.3   401  C8E401      0.0026
      7  C7        -1.9090   18.6790  -17.1650 C.3   401  C8E401      0.0321
      8  C8        -0.9690   19.3450  -16.1540 C.3   401  C8E401      0.1423
      9  O9         0.3850   19.3470  -16.6230 O.3   401  C8E401     -0.3511
     10  C10        0.7750   20.4910  -17.3950 C.3   401  C8E401      0.1741
     11  C11        0.8000   20.1630  -18.8920 C.3   401  C8E401      0.1742
     12  O12       -0.5370   20.0170  -19.3500 O.3   401  C8E401     -0.3484
     13  C13       -0.7300   20.1610  -20.7500 C.3   401  C8E401      0.1742
     14  C14       -1.9430   21.0480  -21.0690 C.3   401  C8E401      0.1742
     15  O15       -3.0330   20.3300  -21.6300 O.3   401  C8E401     -0.3483
     16  C16       -3.3940   20.7340  -22.9390 C.3   401  C8E401      0.1777
     17  C17       -4.8020   21.3360  -22.9860 C.3   401  C8E401      0.2140
     18  O18       -5.1560   21.7060  -24.3090 O.3   401  C8E401     -0.2176
@<TRIPOS>BOND
     1    18    17    1
     2    17    16    1
     3    16    15    1
     4    15    14    1
     5    14    13    1
     6    13    12    1
     7    12    11    1
     8    11    10    1
     9    10     9    1
    10     7     6    1
    11     7     8    1
    12     9     8    1
    13     5     4    1
    14     5     6    1
    15     4     3    1
    16     3     2    1
    17     2     1    1
