@<TRIPOS>MOLECULE
3t2c_13P_A_1.pdb
 10 9 0 0 0
SMALL
GASTEIGER

@<TRIPOS>ATOM
      1  P        -60.7510   28.7310   19.4270 P.3   411  13P411      0.5327
      2  O1P      -61.5690   28.2550   20.6050 O.3   411  13P411     -0.1145
      3  O2P      -59.8980   27.5850   19.0020 O.2   411  13P411     -0.2224
      4  O3P      -59.9230   29.9540   19.5420 O.3   411  13P411     -0.1145
      5  O1       -61.7640   29.3030   18.2740 O.3   411  13P411     -0.2674
      6  C1       -62.8830   28.5340   17.8000 C.3   411  13P411      0.1892
      7  C2       -63.1390   28.9800   16.3900 C.3   411  13P411      0.2147
      8  O2       -62.6370   28.2380   15.2440 O.3   411  13P411     -0.2176
      9  C3       -64.3640   29.7100   16.3350 C.3   411  13P411      0.2174
     10  O3       -64.6720   30.3160   15.1620 O.3   411  13P411     -0.2175
@<TRIPOS>BOND
     1    10     9    1
     2     8     7    1
     3     9     7    1
     4     7     6    1
     5     6     5    1
     6     5     1    1
     7     3     1    2
     8     1     4    1
     9     1     2    1
