@<TRIPOS>MOLECULE
3t2d_P6F_A_1.pdb
 20 19 0 0 0
SMALL
GASTEIGER

@<TRIPOS>ATOM
      1  P1       -60.6550   28.0850   19.5340 P.3   412  P6F412      0.5330
      2  O1P      -59.7440   26.9210   19.1650 O.2   412  P6F412     -0.2224
      3  O2P      -61.4900   27.8550   20.7440 O.3   412  P6F412     -0.1145
      4  O3P      -59.9350   29.4360   19.4340 O.3   412  P6F412     -0.1145
      5  O1       -61.5820   27.8510   18.1620 O.3   412  P6F412     -0.2621
      6  C1       -63.0630   28.5150   18.0230 C.3   412  P6F412      0.2203
      7  C2       -63.4080   28.9170   16.6520 C.2   412  P6F412      0.2137
      8  O2       -62.6580   28.6300   15.6830 O.2   412  P6F412     -0.2906
      9  C3       -64.7270   29.5850   16.5010 C.3   412  P6F412      0.2439
     10  O3       -64.7840   30.2320   15.2360 O.3   412  P6F412     -0.2122
     11  C4       -65.8960   28.5680   16.6310 C.3   412  P6F412      0.2220
     12  O4       -65.6910   27.4830   15.7310 O.3   412  P6F412     -0.2171
     13  C5       -67.2450   29.2070   16.3840 C.3   412  P6F412      0.2151
     14  O5       -67.4800   30.2420   17.2990 O.3   412  P6F412     -0.2176
     15  C6       -68.3900   28.2030   16.4540 C.3   412  P6F412      0.1892
     16  O6       -68.2920   27.6020   17.7770 O.3   412  P6F412     -0.2674
     17  P2       -69.4740   26.6190   18.2660 P.3   412  P6F412      0.5327
     18  O4P      -69.4640   25.4520   17.3220 O.2   412  P6F412     -0.2224
     19  O5P      -68.9480   26.2270   19.6810 O.3   412  P6F412     -0.1145
     20  O6P      -70.7790   27.4000   18.2850 O.3   412  P6F412     -0.1145
@<TRIPOS>BOND
     1    10     9    1
     2     8     7    2
     3    12    11    1
     4    13    15    1
     5    13    11    1
     6    13    14    1
     7    15    16    1
     8     9    11    1
     9     9     7    1
    10     7     6    1
    11    18    17    2
    12    16    17    1
    13     6     5    1
    14     5     1    1
    15    17    20    1
    16    17    19    1
    17     2     1    2
    18     4     1    1
    19     1     3    1
