@<TRIPOS>MOLECULE
3t2e_F6R_A_1.pdb
 16 15 0 0 0
SMALL
GASTEIGER

@<TRIPOS>ATOM
      1  C1       -62.5370   28.5320   15.8390 C.3   3469  F6R3469     0.2486
      2  C2       -63.3640   28.6700   16.8750 C.2   3469  F6R3469     0.2165
      3  C3       -64.6620   29.3920   16.6570 C.3   3469  F6R3469     0.2440
      4  C4       -65.8310   28.3820   16.7190 C.3   3469  F6R3469     0.2220
      5  C5       -67.1800   29.0190   16.3890 C.3   3469  F6R3469     0.2151
      6  C6       -68.4180   28.0760   16.3310 C.3   3469  F6R3469     0.1892
      7  O1       -61.3900   27.8490   16.2040 O.3   3469  F6R3469    -0.2118
      8  O2       -63.1260   28.1150   18.0030 O.2   3469  F6R3469    -0.2905
      9  O3       -64.5610   30.0950   15.3740 O.3   3469  F6R3469    -0.2122
     10  O4       -65.5860   27.2970   15.8150 O.3   3469  F6R3469    -0.2171
     11  O5       -67.3940   30.1200   17.2810 O.3   3469  F6R3469    -0.2176
     12  O6       -68.3700   27.4280   17.6370 O.3   3469  F6R3469    -0.2674
     13  P        -69.6990   26.5160   17.9170 P.3   3469  F6R3469     0.5327
     14  O1P      -69.3140   25.8140   19.2380 O.3   3469  F6R3469    -0.1145
     15  O2P      -69.8030   25.5330   16.8030 O.2   3469  F6R3469    -0.2224
     16  O3P      -70.8910   27.4050   18.1050 O.3   3469  F6R3469    -0.1145
@<TRIPOS>BOND
     1     9     3    1
     2    10     4    1
     3     1     7    1
     4     1     2    1
     5     6     5    1
     6     6    12    1
     7     5     4    1
     8     5    11    1
     9     3     4    1
    10     3     2    1
    11    15    13    2
    12     2     8    2
    13    12    13    1
    14    13    16    1
    15    13    14    1
