@<TRIPOS>MOLECULE
3t2g_13P_A_1.pdb
 10 9 0 0 0
SMALL
GASTEIGER

@<TRIPOS>ATOM
      1  P        -60.4620   28.7730   19.2080 P.3   410  13P410      0.5330
      2  O1P      -59.5150   27.8920   18.4190 O.2   410  13P410     -0.2224
      3  O2P      -59.8900   30.1450   19.4820 O.3   410  13P410     -0.1145
      4  O3P      -61.1430   28.1350   20.4080 O.3   410  13P410     -0.1145
      5  O1       -61.6420   29.0540   18.1370 O.3   410  13P410     -0.2621
      6  C1       -62.4940   27.9880   17.6940 C.3   410  13P410      0.2204
      7  C2       -63.2940   28.4170   16.4960 C.2   410  13P410      0.2140
      8  O2       -63.2390   27.7640   15.4770 O.2   410  13P410     -0.2906
      9  C3       -64.1460   29.6530   16.6040 C.3   410  13P410      0.2485
     10  O3       -64.6520   30.0530   15.3310 O.3   410  13P410     -0.2118
@<TRIPOS>BOND
     1    10     9    1
     2     8     7    2
     3     7     9    1
     4     7     6    1
     5     6     5    1
     6     5     1    1
     7     2     1    2
     8     1     3    1
     9     1     4    1
