@<TRIPOS>MOLECULE
3t2p_IPT_A_1.pdb
 15 15 0 0 0
SMALL
GASTEIGER

@<TRIPOS>ATOM
      1  C1       -14.2450  -28.2200  -26.3620 C.3   2001  IPT2001     0.1955
      2  C2       -12.9980  -27.9940  -25.5100 C.3   2001  IPT2001     0.2219
      3  O2       -13.1910  -26.8410  -24.6820 O.3   2001  IPT2001    -0.2167
      4  C3       -11.7560  -27.7990  -26.3900 C.3   2001  IPT2001     0.2181
      5  O3       -10.5790  -27.8620  -25.5740 O.3   2001  IPT2001    -0.2175
      6  C4       -11.6490  -28.8220  -27.5240 C.3   2001  IPT2001     0.2143
      7  O4       -11.2280  -30.0880  -26.9940 O.3   2001  IPT2001    -0.2176
      8  C5       -13.0010  -28.9390  -28.2340 C.3   2001  IPT2001     0.1820
      9  O5       -13.9870  -29.2940  -27.2670 O.3   2001  IPT2001    -0.3398
     10  C6       -13.0800  -29.9470  -29.3780 C.3   2001  IPT2001     0.2142
     11  O6       -11.9180  -29.9000  -30.2200 O.3   2001  IPT2001    -0.2176
     12  S1       -15.6310  -28.6300  -25.3530 S.3   2001  IPT2001    -0.1102
     13  C1'      -17.0790  -28.2580  -26.3050 C.3   2001  IPT2001     0.0500
     14  C2'      -17.2620  -29.2510  -27.4540 C.3   2001  IPT2001     0.0117
     15  C3'      -18.3000  -28.2780  -25.3860 C.3   2001  IPT2001     0.0117
@<TRIPOS>BOND
     1    11    10    1
     2    10     8    1
     3     8     6    1
     4     8     9    1
     5     6     7    1
     6     6     4    1
     7    14    13    1
     8     9     1    1
     9     4     5    1
    10     4     2    1
    11     1     2    1
    12     1    12    1
    13    13    15    1
    14    13    12    1
    15     2     3    1
