@<TRIPOS>MOLECULE
3t2q_149_A_1.pdb
 12 12 0 0 0
SMALL
GASTEIGER

@<TRIPOS>ATOM
      1  C1       -11.9280  -27.2400  -25.5050 C.2   2001  1492001     0.3505
      2  C2       -10.8350  -28.1550  -25.0040 C.3   2001  1492001     0.2823
      3  C3       -10.0170  -28.7070  -26.1670 C.3   2001  1492001     0.2270
      4  C4       -10.9060  -29.1120  -27.3420 C.3   2001  1492001     0.2276
      5  C5       -11.7940  -27.9640  -27.8250 C.3   2001  1492001     0.2344
      6  C6       -12.7100  -28.3930  -28.9700 C.3   2001  1492001     0.2281
      7  O1       -12.2640  -26.2620  -24.8630 O.2   2001  1492001    -0.2472
      8  O2        -9.9570  -27.4860  -24.0850 O.3   2001  1492001    -0.2082
      9  O3        -9.2660  -29.8330  -25.6960 O.3   2001  1492001    -0.2169
     10  O4       -11.7350  -30.2020  -26.9470 O.3   2001  1492001    -0.2163
     11  O5       -12.6280  -27.5010  -26.7590 O.3   2001  1492001    -0.4450
     12  O6       -11.9660  -28.9120  -30.0820 O.3   2001  1492001    -0.2163
@<TRIPOS>BOND
     1    12     6    1
     2     6     5    1
     3     5     4    1
     4     5    11    1
     5     4    10    1
     6     4     3    1
     7    11     1    1
     8     3     9    1
     9     3     2    1
    10     1     2    1
    11     1     7    2
    12     2     8    1
