@<TRIPOS>MOLECULE
3t2s_AGS_A_1.pdb
 31 33 0 0 0
SMALL
GASTEIGER

@<TRIPOS>ATOM
      1  PG         4.4540   12.4320   34.9900 P.3   301  AGS301      0.4340
      2  S1G        4.8460   11.9730   32.9670 S.3   301  AGS301      0.0416
      3  O2G        3.6230   13.6960   35.0740 O.2   301  AGS301     -0.2423
      4  O3G        5.7090   12.5470   35.8550 O.3   301  AGS301     -0.1305
      5  PB         3.7120    9.7320   35.2740 P.3   301  AGS301      0.2262
      6  O1B        3.4410    8.9330   36.5400 O.3   301  AGS301     -0.4369
      7  O2B        5.0480    9.5010   34.6470 O.2   301  AGS301     -0.5168
      8  O3B        3.4590   11.2660   35.5900 O.3   301  AGS301     -0.2405
      9  PA         2.7130    8.5070   32.8980 P.3   301  AGS301      0.2189
     10  O1A        3.9100    8.9760   32.1050 O.2   301  AGS301     -0.5170
     11  O2A        1.3740    8.4790   32.2370 O.3   301  AGS301     -0.4371
     12  O3A        2.5680    9.3410   34.2620 O.3   301  AGS301     -0.2701
     13  O5'        3.0280    6.9960   33.3860 O.3   301  AGS301     -0.3112
     14  C5'        2.0720    6.3660   34.2470 C.3   301  AGS301      0.1813
     15  C4'        2.6920    5.2600   35.0770 C.3   301  AGS301      0.1821
     16  O4'        3.0650    4.1710   34.2230 O.3   301  AGS301     -0.3135
     17  C3'        3.9980    5.6480   35.7490 C.3   301  AGS301      0.2184
     18  O3'        3.8560    6.4110   36.9530 O.3   301  AGS301     -0.2174
     19  C2'        4.5930    4.2660   35.9740 C.3   301  AGS301      0.2570
     20  O2'        4.0140    3.7220   37.1640 O.3   301  AGS301     -0.2130
     21  C1'        4.1360    3.4300   34.7790 C.3   301  AGS301      0.3186
     22  N9         5.1600    3.3340   33.7500 N.pl3 301  AGS301     -0.1439
     23  C8         5.1070    3.9390   32.5330 C.3   301  AGS301      0.3377
     24  N7         6.2390    3.6250   31.8320 N.2   301  AGS301     -0.2095
     25  C5         6.9970    2.8120   32.6560 C.2   301  AGS301      0.2526
     26  C6         8.3090    2.1860   32.5730 C.2   301  AGS301      0.4393
     27  N6         9.0380    2.3260   31.4510 N.pl3 301  AGS301      0.2180
     28  N1         8.7470    1.4400   33.6090 N.2   301  AGS301      0.0021
     29  C2         8.0120    1.3100   34.7350 C.3   301  AGS301      0.5254
     30  N3         6.8230    1.9060   34.8980 N.2   301  AGS301     -0.0055
     31  C4         6.2750    2.6500   33.8900 C.2   301  AGS301      0.3518
@<TRIPOS>BOND
     1    27    26    1
     2    24    23    1
     3    24    25    2
     4    10     9    2
     5    11     9    1
     6    23    22    1
     7    26    25    1
     8    26    28    2
     9    25    31    1
    10     9    13    1
    11     9    12    1
    12     2     1    1
    13    13    14    1
    14    28    29    1
    15    22    31    1
    16    22    21    1
    17    31    30    2
    18    16    21    1
    19    16    15    1
    20    14    15    1
    21    12     5    1
    22     7     5    2
    23    29    30    1
    24    21    19    1
    25     1     3    2
    26     1     8    1
    27     1     4    1
    28    15    17    1
    29     5     8    1
    30     5     6    1
    31    17    19    1
    32    17    18    1
    33    19    20    1
