@<TRIPOS>MOLECULE
3t2t_MQT_A_1.pdb
 25 26 0 0 0
SMALL
GASTEIGER

@<TRIPOS>ATOM
      1  C1        23.4040    0.6600   19.0450 C.3   135  MQT135      0.2809
      2  O1        24.3500   -0.4120   18.9810 O.3   135  MQT135     -0.3250
      3  C2        23.8970    1.7930   18.1680 C.3   135  MQT135      0.2668
      4  O2        24.0470    1.2990   16.8390 O.3   135  MQT135     -0.4430
      5  C3        22.9450    2.9830   18.1340 C.3   135  MQT135      0.2465
      6  O3        23.2580    3.6890   16.9380 O.3   135  MQT135     -0.4425
      7  C4        21.4740    2.5740   18.1050 C.3   135  MQT135      0.2251
      8  O4        21.0990    2.3900   16.7390 O.3   135  MQT135     -0.2164
      9  C5        21.1590    1.2810   18.8470 C.3   135  MQT135      0.1846
     10  O5        22.1290    0.2840   18.5310 O.3   135  MQT135     -0.3248
     11  C6        19.7780    0.7520   18.4610 C.3   135  MQT135      0.2143
     12  O6        19.4300   -0.3430   19.3170 O.3   135  MQT135     -0.2176
     13  OAA       22.4750    5.5700   18.0150 O.2   135  MQT135     -0.2449
     14  CAB       22.9670    5.1010   17.0010 C.2   135  MQT135      0.3413
     15  CAC       23.3040    5.9240   15.7950 C.ar  135  MQT135      0.0756
     16  CAD       23.3610    7.3060   15.8630 C.ar  135  MQT135      0.0061
     17  CAE       23.6840    8.0320   14.7250 C.ar  135  MQT135     -0.0040
     18  CAF       23.9540    7.3860   13.5240 C.ar  135  MQT135     -0.0218
     19  CAG       24.2990    8.1790   12.2910 C.3   135  MQT135      0.0310
     20  CAH       23.8990    6.0010   13.4590 C.ar  135  MQT135     -0.0040
     21  CAI       23.5710    5.2760   14.5940 C.ar  135  MQT135      0.0061
     22  CAN       25.3440    1.7380   16.3560 C.2   135  MQT135      0.3177
     23  OAO       25.6950    3.0130   16.5130 O.2   135  MQT135     -0.2501
     24  CAP       26.1750    0.8810   15.7940 C.3   135  MQT135      0.1212
     25  CAS       23.7810   -1.6820   19.3070 C.3   135  MQT135      0.1770
@<TRIPOS>BOND
     1    19    18    1
     2    20    18   ar
     3    20    21   ar
     4    18    17   ar
     5    21    15   ar
     6    17    16   ar
     7    24    22    1
     8    15    16   ar
     9    15    14    1
    10    22    23    2
    11    22     4    1
    12     8     7    1
    13     4     3    1
    14     6    14    1
    15     6     5    1
    16    14    13    2
    17     7     5    1
    18     7     9    1
    19     5     3    1
    20     3     1    1
    21    11     9    1
    22    11    12    1
    23    10     9    1
    24    10     1    1
    25     2     1    1
    26     2    25    1
