@<TRIPOS>MOLECULE
3t2u_GSH_A_1.pdb
 20 19 0 0 0
SMALL
GASTEIGER

@<TRIPOS>ATOM
      1  N1       -21.4550   -3.3770  -13.8600 N.3   209  GSH209     -0.1208
      2  CA1      -21.6400   -4.3540  -12.7680 C.3   209  GSH209      0.1948
      3  C1       -22.4330   -3.8920  -11.5670 C.2   209  GSH209      0.3819
      4  O11      -22.1790   -2.8200  -10.9570 O.co2 209  GSH209     -0.2441
      5  O12      -23.3830   -4.6040  -11.1840 O.co2 209  GSH209     -0.2441
      6  CB1      -20.4530   -5.3280  -12.5680 C.3   209  GSH209      0.0402
      7  CG1      -20.9760   -6.6890  -12.1210 C.3   209  GSH209      0.0889
      8  CD1      -19.7650   -7.5330  -11.8020 C.2   209  GSH209      0.2418
      9  OE1      -18.4680   -7.0160  -11.9540 O.2   209  GSH209     -0.2733
     10  N2       -20.0000   -8.7550  -11.3660 N.am  209  GSH209     -0.1968
     11  CA2      -18.9580   -9.7360  -11.1660 C.3   209  GSH209      0.1843
     12  C2       -19.4640  -11.0060  -11.7810 C.2   209  GSH209      0.2627
     13  O2       -20.8380  -11.2760  -11.7250 O.2   209  GSH209     -0.2714
     14  CB2      -18.7210   -9.9220   -9.6660 C.3   209  GSH209      0.0997
     15  SG2      -18.1820   -8.4300   -8.7690 S.3   209  GSH209     -0.0797
     16  N3       -18.6070  -11.8290  -12.3660 N.am  209  GSH209     -0.1917
     17  CA3      -18.9340  -13.2250  -12.6030 C.3   209  GSH209      0.2285
     18  C3       -18.6510  -13.6410  -14.0300 C.2   209  GSH209      0.3865
     19  O31      -17.7500  -14.4580  -14.3100 O.co2 209  GSH209     -0.2437
     20  O32      -19.3200  -13.1990  -14.9800 O.co2 209  GSH209     -0.2437
@<TRIPOS>BOND
     1    20    18   ar
     2    19    18   ar
     3    18    17    1
     4     1     2    1
     5     2     6    1
     6     2     3    1
     7    17    16    1
     8     6     7    1
     9    16    12   am
    10     7     8    1
    11     9     8    2
    12     8    10   am
    13    12    13    2
    14    12    11    1
    15     3     5   ar
    16     3     4   ar
    17    10    11    1
    18    11    14    1
    19    14    15    1
