@<TRIPOS>MOLECULE
3t2v_KKJ_D_1.pdb
 18 17 0 0 0
SMALL
GASTEIGER

@<TRIPOS>ATOM
      1  O1       -33.9510  -17.3520  -41.2190 O.3   172  KKJ172     -0.2226
      2  C2       -34.0330  -18.4540  -40.3110 C.3   172  KKJ172      0.1626
      3  C3       -34.5280  -19.7330  -41.0620 C.3   172  KKJ172      0.1336
      4  C4       -36.0100  -19.5200  -41.4330 C.2   172  KKJ172      0.3668
      5  O5       -36.6450  -18.5410  -40.9570 O.co2 172  KKJ172     -0.2456
      6  O6       -36.6040  -20.3100  -42.2120 O.co2 172  KKJ172     -0.2456
      7  C7       -32.6790  -18.6280  -39.6050 C.3   172  KKJ172      0.0335
      8  C8       -32.8450  -19.2280  -38.1980 C.3   172  KKJ172      0.0026
      9  C9       -31.7820  -20.2770  -37.8220 C.3   172  KKJ172      0.0001
     10  C10      -31.7050  -21.4470  -38.8130 C.3   172  KKJ172      0.0000
     11  C11      -31.9950  -22.7980  -38.1760 C.3   172  KKJ172      0.0000
     12  C12      -32.4830  -23.7830  -39.2280 C.3   172  KKJ172      0.0000
     13  C13      -33.5930  -20.1050  -42.2560 C.3   172  KKJ172      0.0138
     14  C14      -33.9360  -21.3460  -43.1040 C.3   172  KKJ172      0.0006
     15  C15      -34.4300  -22.6070  -42.3520 C.3   172  KKJ172      0.0000
     16  C16      -35.6900  -23.2020  -42.9770 C.3   172  KKJ172      0.0000
     17  C17      -35.8720  -24.6740  -42.6200 C.3   172  KKJ172      0.0000
     18  C18      -35.7650  -25.5280  -43.8770 C.3   172  KKJ172      0.0000
@<TRIPOS>BOND
     1    18    17    1
     2    14    15    1
     3    14    13    1
     4    16    17    1
     5    16    15    1
     6    13     3    1
     7     6     4   ar
     8     4     3    1
     9     4     5   ar
    10     1     2    1
    11     3     2    1
    12     2     7    1
    13     7     8    1
    14    12    11    1
    15    10    11    1
    16    10     9    1
    17     8     9    1
