@<TRIPOS>MOLECULE
3t2w_BTN_A_1.pdb
 16 17 0 0 0
SMALL
GASTEIGER

@<TRIPOS>ATOM
      1  C11       -6.4190  -26.4210   -3.9230 C.2   600  BTN600      0.3649
      2  O11       -6.6420  -27.6440   -3.7260 O.co2 600  BTN600     -0.2457
      3  O12       -6.9470  -25.8890   -4.9220 O.co2 600  BTN600     -0.2457
      4  C10       -5.5200  -25.6040   -3.0020 C.3   600  BTN600      0.1141
      5  C9        -5.5530  -25.9500   -1.5090 C.3   600  BTN600      0.0118
      6  C8        -6.9470  -25.8560   -0.8700 C.3   600  BTN600      0.0015
      7  C7        -6.9460  -26.2140    0.6170 C.3   600  BTN600      0.0129
      8  C2        -8.3630  -25.9720    1.2150 C.3   600  BTN600      0.0729
      9  S1        -8.8250  -24.3380    1.3950 S.3   600  BTN600     -0.1369
     10  C6       -10.3160  -24.9010    2.2590 C.3   600  BTN600      0.0848
     11  C5        -9.8080  -25.9850    3.2360 C.3   600  BTN600      0.1509
     12  N1        -9.2650  -25.4600    4.4710 N.2   600  BTN600     -0.1859
     13  C3        -7.9570  -25.7900    4.5540 C.1   600  BTN600      0.2386
     14  O3        -7.1920  -25.4290    5.6400 O.2   600  BTN600     -0.2023
     15  N2        -7.5250  -26.4390    3.4910 N.2   600  BTN600     -0.1860
     16  C4        -8.6090  -26.6730    2.5540 C.3   600  BTN600      0.1500
@<TRIPOS>BOND
     1     3     1   ar
     2     1     2   ar
     3     1     4    1
     4     4     5    1
     5     5     6    1
     6     6     7    1
     7     7     8    1
     8     8     9    1
     9     8    16    1
    10     9    10    1
    11    10    11    1
    12    16    11    1
    13    16    15    1
    14    11    12    1
    15    15    13    2
    16    12    13    2
    17    13    14    2
