@<TRIPOS>MOLECULE
3t31_DCQ_A_1.pdb
 23 23 0 0 0
SMALL
GASTEIGER

@<TRIPOS>ATOM
      1  O2        45.6390   -8.6630   10.1860 O.3   502  DCQ502     -0.2836
      2  C2        44.8720   -8.9850    9.0550 C.ar  502  DCQ502      0.2282
      3  C3        44.7170  -10.2860    8.6440 C.ar  502  DCQ502      0.2140
      4  O3        45.3390  -11.3240    9.3510 O.3   502  DCQ502     -0.4652
      5  C3M       44.5700  -12.1470   10.1740 C.3   502  DCQ502      0.2528
      6  C4        43.9410  -10.5770    7.4910 C.ar  502  DCQ502      0.2140
      7  O4        43.7390  -11.8980    7.0640 O.3   502  DCQ502     -0.4652
      8  C4M       42.5020  -12.5130    7.3100 C.3   502  DCQ502      0.2528
      9  C5        43.3180   -9.5130    6.7590 C.ar  502  DCQ502      0.2282
     10  O5        42.5420   -9.8360    5.6350 O.3   502  DCQ502     -0.2836
     11  C1        44.2290   -7.8870    8.2950 C.ar  502  DCQ502      0.0195
     12  C1M       44.3930   -6.4480    8.7820 C.3   502  DCQ502      0.0343
     13  C6        43.4740   -8.1700    7.1910 C.ar  502  DCQ502      0.0191
     14  C7        42.8840   -7.0260    6.3740 C.3   502  DCQ502      0.0295
     15  C8        41.7880   -6.1300    6.9300 C.3   502  DCQ502      0.0051
     16  C9        41.3590   -5.0230    5.9740 C.3   502  DCQ502      0.0050
     17  C10       42.4010   -4.5960    4.9410 C.3   502  DCQ502      0.0257
     18  C11       42.4850   -5.3640    3.6240 C.2   502  DCQ502     -0.0307
     19  C12       41.4510   -5.0310    2.5550 C.2   502  DCQ502     -0.0307
     20  C13       41.4350   -5.8690    1.2770 C.3   502  DCQ502      0.0257
     21  C14       42.0870   -5.2750    0.0300 C.3   502  DCQ502      0.0047
     22  C15       41.5720   -5.7510   -1.3260 C.3   502  DCQ502      0.0003
     23  C16       41.4650   -7.2590   -1.5410 C.3   502  DCQ502      0.0000
@<TRIPOS>BOND
     1    23    22    1
     2    22    21    1
     3    21    20    1
     4    20    19    1
     5    19    18    2
     6    18    17    1
     7    17    16    1
     8    10     9    1
     9    16    15    1
    10    14    15    1
    11    14    13    1
    12     9    13   ar
    13     9     6   ar
    14     7     8    1
    15     7     6    1
    16    13    11   ar
    17     6     3   ar
    18    11    12    1
    19    11     2   ar
    20     3     2   ar
    21     3     4    1
    22     2     1    1
    23     4     5    1
