@<TRIPOS>MOLECULE
3t34_GDP_A_1.pdb
 28 30 0 0 0
SMALL
GASTEIGER

@<TRIPOS>ATOM
      1  PB         4.5340   -8.4810   -1.4880 P.3   1000  GDP1000     0.5373
      2  O1B        5.5140   -8.2940   -0.3580 O.3   1000  GDP1000    -0.1143
      3  O2B        4.6330   -9.9030   -2.0270 O.3   1000  GDP1000    -0.1143
      4  O3B        4.9060   -7.4680   -2.5470 O.2   1000  GDP1000    -0.2221
      5  O3A        3.0390   -8.3900   -0.8860 O.3   1000  GDP1000    -0.2261
      6  PA         2.5100   -7.4390    0.3110 P.3   1000  GDP1000     0.2231
      7  O1A        2.6110   -8.0650    1.6690 O.3   1000  GDP1000    -0.4370
      8  O2A        3.2290   -6.1030    0.2480 O.2   1000  GDP1000    -0.5169
      9  O5'        0.9510   -7.3950   -0.1560 O.3   1000  GDP1000    -0.3111
     10  C5'        0.6210   -6.8970   -1.4700 C.3   1000  GDP1000     0.1813
     11  C4'       -0.8740   -6.5950   -1.5400 C.3   1000  GDP1000     0.1799
     12  O4'       -1.5960   -7.8100   -1.2330 O.3   1000  GDP1000    -0.3326
     13  C3'       -1.3270   -5.5890   -0.4980 C.3   1000  GDP1000     0.2158
     14  O3'       -2.2730   -4.7000   -1.0920 O.3   1000  GDP1000    -0.2175
     15  C2'       -1.9930   -6.4350    0.5770 C.3   1000  GDP1000     0.2310
     16  O2'       -3.0300   -5.7050    1.2410 O.3   1000  GDP1000    -0.2158
     17  C1'       -2.5770   -7.5850   -0.2130 C.3   1000  GDP1000     0.2293
     18  N9        -2.7610   -8.8900    0.4550 N.pl3 1000  GDP1000    -0.2354
     19  C8        -1.7740   -9.7610    0.7580 C.3   1000  GDP1000     0.2246
     20  N7        -2.2690  -10.8920    1.3130 N.2   1000  GDP1000    -0.2322
     21  C5        -3.6020  -10.7730    1.3520 C.2   1000  GDP1000     0.2182
     22  C6        -4.7160  -11.6100    1.8220 C.1   1000  GDP1000     0.2372
     23  O6        -4.4930  -12.7370    2.3160 O.2   1000  GDP1000    -0.2069
     24  N1        -5.9570  -11.1220    1.6620 N.2   1000  GDP1000    -0.2485
     25  C2        -6.1930   -9.9110    1.1190 C.1   1000  GDP1000     0.2531
     26  N2        -7.4680   -9.4630    1.0100 N.pl3 1000  GDP1000    -0.0226
     27  N3        -5.2060   -9.0880    0.6980 N.2   1000  GDP1000    -0.3074
     28  C4        -3.9220   -9.4620    0.7700 C.2   1000  GDP1000     0.2300
@<TRIPOS>BOND
     1     4     1    2
     2     3     1    1
     3    11    10    1
     4    11    12    1
     5    11    13    1
     6     1     5    1
     7     1     2    1
     8    10     9    1
     9    12    17    1
    10    14    13    1
    11     5     6    1
    12    13    15    1
    13    17    18    1
    14    17    15    1
    15     9     6    1
    16     8     6    2
    17     6     7    1
    18    18    19    1
    19    18    28    1
    20    15    16    1
    21    27    28    2
    22    27    25    2
    23    19    20    1
    24    28    21    1
    25    26    25    1
    26    25    24    2
    27    20    21    2
    28    21    22    1
    29    24    22    2
    30    22    23    2
