@<TRIPOS>MOLECULE
3t35_GDP_A_1.pdb
 28 30 0 0 0
SMALL
GASTEIGER

@<TRIPOS>ATOM
      1  PB       -33.9920   49.3050   -4.8050 P.3   9001  GDP9001     0.5373
      2  O1B      -34.0440   47.9150   -5.3860 O.3   9001  GDP9001    -0.1143
      3  O2B      -34.6020   50.2790   -5.7920 O.2   9001  GDP9001    -0.2221
      4  O3B      -32.5370   49.6510   -4.6250 O.3   9001  GDP9001    -0.1143
      5  O3A      -34.7350   49.3420   -3.3680 O.3   9001  GDP9001    -0.2261
      6  PA       -34.1320   48.5350   -2.1030 P.3   9001  GDP9001     0.2231
      7  O1A      -35.1670   47.8020   -1.2940 O.3   9001  GDP9001    -0.4370
      8  O2A      -33.0080   47.6130   -2.4840 O.2   9001  GDP9001    -0.5169
      9  O5'      -33.5790   49.6920   -1.1710 O.3   9001  GDP9001    -0.3111
     10  C5'      -32.4270   49.3630   -0.4270 C.3   9001  GDP9001     0.1813
     11  C4'      -32.1170   50.3780    0.6530 C.3   9001  GDP9001     0.1799
     12  O4'      -33.1200   51.4020    0.7270 O.3   9001  GDP9001    -0.3326
     13  C3'      -32.1700   49.6440    1.9730 C.3   9001  GDP9001     0.2158
     14  O3'      -31.4570   50.3820    2.9730 O.3   9001  GDP9001    -0.2175
     15  C2'      -33.6250   49.8070    2.2710 C.3   9001  GDP9001     0.2310
     16  O2'      -33.9290   49.4190    3.6110 O.3   9001  GDP9001    -0.2158
     17  C1'      -33.7220   51.3000    2.0150 C.3   9001  GDP9001     0.2293
     18  N9       -35.1490   51.6590    2.0350 N.pl3 9001  GDP9001    -0.2354
     19  C8       -36.0030   51.5110    1.0160 C.3   9001  GDP9001     0.2246
     20  N7       -37.2380   51.9120    1.3720 N.2   9001  GDP9001    -0.2322
     21  C5       -37.1900   52.3200    2.6520 C.2   9001  GDP9001     0.2182
     22  C6       -38.1490   52.8660    3.6310 C.1   9001  GDP9001     0.2372
     23  O6       -39.3430   53.0310    3.3130 O.2   9001  GDP9001    -0.2069
     24  N1       -37.6950   53.1700    4.8460 N.2   9001  GDP9001    -0.2485
     25  C2       -36.4230   52.9980    5.2060 C.1   9001  GDP9001     0.2531
     26  N2       -36.0720   53.3410    6.4630 N.pl3 9001  GDP9001    -0.0226
     27  N3       -35.4920   52.5010    4.3630 N.2   9001  GDP9001    -0.3074
     28  C4       -35.8050   52.1510    3.0900 C.2   9001  GDP9001     0.2300
@<TRIPOS>BOND
     1     3     1    2
     2     2     1    1
     3     1     4    1
     4     1     5    1
     5     5     6    1
     6     8     6    2
     7     6     7    1
     8     6     9    1
     9     9    10    1
    10    10    11    1
    11    11    12    1
    12    11    13    1
    13    12    17    1
    14    19    20    1
    15    19    18    1
    16    20    21    2
    17    13    15    1
    18    13    14    1
    19    17    18    1
    20    17    15    1
    21    18    28    1
    22    15    16    1
    23    21    28    1
    24    21    22    1
    25    28    27    2
    26    23    22    2
    27    22    24    2
    28    27    25    2
    29    24    25    2
    30    25    26    1
