@<TRIPOS>MOLECULE
3t39_SKM_D_1.pdb
 12 12 0 0 0
SMALL
GASTEIGER

@<TRIPOS>ATOM
      1  O12       -8.1830  -27.1420  -42.6530 O.3   6873  SKM6873    -0.2173
      2  C8        -8.8360  -28.1840  -41.8960 C.3   6873  SKM6873     0.2167
      3  C6       -10.0990  -28.8450  -42.6020 C.3   6873  SKM6873     0.1896
      4  O7       -11.1690  -27.8540  -42.8570 O.3   6873  SKM6873    -0.2200
      5  C5       -10.6650  -29.9610  -41.6940 C.3   6873  SKM6873     0.0684
      6  C4        -9.6270  -30.9760  -41.2800 C.2   6873  SKM6873     0.0584
      7  C1       -10.1050  -32.3590  -40.9810 C.2   6873  SKM6873     0.3837
      8  O2       -10.0560  -33.4870  -41.6880 O.co2 6873  SKM6873    -0.2409
      9  O3       -10.6580  -32.4130  -39.9570 O.co2 6873  SKM6873    -0.2409
     10  C10       -8.3240  -30.6620  -41.2010 C.2   6873  SKM6873     0.0111
     11  C9        -7.7340  -29.2480  -41.5750 C.3   6873  SKM6873     0.2066
     12  O11       -6.9160  -29.3870  -42.8110 O.3   6873  SKM6873    -0.2155
@<TRIPOS>BOND
     1     4     3    1
     2    12    11    1
     3     1     2    1
     4     3     2    1
     5     3     5    1
     6     2    11    1
     7     5     6    1
     8     8     7   ar
     9    11    10    1
    10     6    10    2
    11     6     7    1
    12     7     9   ar
