@<TRIPOS>MOLECULE
3t3c_017_A_1.pdb
 38 41 0 0 0
SMALL
GASTEIGER

@<TRIPOS>ATOM
      1  N1         3.3050   -4.2660  -15.0220 N.pl3 201  017201     -0.1281
      2  C2         2.6160   -4.2360  -16.1970 C.ar  201  017201      0.0892
      3  C3         2.3110   -3.0130  -16.7860 C.ar  201  017201      0.0194
      4  C4         1.5900   -2.9700  -17.9810 C.ar  201  017201      0.0213
      5  C5         1.1690   -4.1540  -18.5870 C.ar  201  017201      0.1223
      6  C6         1.5020   -5.3820  -17.9940 C.ar  201  017201      0.0213
      7  C7         2.2040   -5.4310  -16.7920 C.ar  201  017201      0.0194
      8  S8         0.3150   -4.0970  -19.9710 S.O2  201  017201      0.0634
      9  O9         0.6080   -2.8440  -20.5850 O.2   201  017201     -0.1528
     10  O10        0.6330   -5.2220  -20.7970 O.2   201  017201     -0.1528
     11  N11       -1.3030   -4.1990  -19.6640 N.3   201  017201     -0.1529
     12  C12       -1.6920   -5.4440  -18.9770 C.3   201  017201      0.0958
     13  C13       -3.1360   -5.8630  -19.2860 C.3   201  017201      0.0178
     14  C14       -3.3380   -6.1830  -20.7700 C.3   201  017201      0.0015
     15  C15       -3.4520   -7.0960  -18.4560 C.3   201  017201      0.0015
     16  C16       -1.9040   -3.0010  -19.0250 C.3   201  017201      0.1304
     17  C17       -2.9740   -2.4690  -20.0000 C.3   201  017201      0.1898
     18  O18       -3.8070   -1.5360  -19.3160 O.3   201  017201     -0.2197
     19  C19       -2.4070   -1.9000  -21.3390 C.3   201  017201      0.1347
     20  N20       -3.5550   -1.7210  -22.2370 N.am  201  017201     -0.1675
     21  C21       -3.8040   -2.5380  -23.2620 C.2   201  017201      0.4211
     22  O22       -3.1420   -3.5230  -23.6000 O.2   201  017201     -0.2246
     23  O23       -4.9850   -2.1960  -24.0060 O.3   201  017201     -0.4345
     24  C24       -5.2090   -2.7480  -25.3070 C.3   201  017201      0.2048
     25  C25       -6.7100   -2.9650  -25.3350 C.3   201  017201      0.1884
     26  O26       -7.2140   -1.6480  -25.4850 O.3   201  017201     -0.3265
     27  C27       -6.3350   -0.9210  -26.3590 C.3   201  017201      0.2388
     28  O28       -6.1010    0.3900  -25.8560 O.3   201  017201     -0.3304
     29  C29       -4.7370    0.5830  -25.4490 C.3   201  017201      0.1451
     30  C30       -3.9560   -0.6000  -26.0190 C.3   201  017201      0.0409
     31  C31       -5.0080   -1.6600  -26.3520 C.3   201  017201      0.1016
     32  C32       -1.7110   -0.5290  -21.2690 C.3   201  017201      0.0508
     33  C33       -1.7310    1.0070  -23.2960 C.ar  201  017201     -0.0042
     34  C34       -1.3160    1.3780  -24.5850 C.ar  201  017201     -0.0003
     35  C35       -0.3970    0.5930  -25.2800 C.ar  201  017201     -0.0000
     36  C36        0.1170   -0.5570  -24.6730 C.ar  201  017201     -0.0003
     37  C37       -0.2900   -0.9280  -23.3760 C.ar  201  017201     -0.0042
     38  C38       -1.2240   -0.1400  -22.6780 C.ar  201  017201     -0.0204
@<TRIPOS>BOND
     1    27    31    1
     2    27    28    1
     3    27    26    1
     4    31    30    1
     5    31    24    1
     6    30    29    1
     7    28    29    1
     8    26    25    1
     9    25    24    1
    10    24    23    1
    11    35    36   ar
    12    35    34   ar
    13    36    37   ar
    14    34    33   ar
    15    23    21    1
    16    22    21    2
    17    37    38   ar
    18    33    38   ar
    19    21    20   am
    20    38    32    1
    21    20    19    1
    22    19    32    1
    23    19    17    1
    24    10     8    2
    25    14    13    1
    26     9     8    2
    27    17    18    1
    28    17    16    1
    29     8    11    1
    30     8     5    1
    31    11    16    1
    32    11    12    1
    33    13    12    1
    34    13    15    1
    35     5     6   ar
    36     5     4   ar
    37     6     7   ar
    38     4     3   ar
    39     7     2   ar
    40     3     2   ar
    41     2     1    1
