@<TRIPOS>MOLECULE
3t3d_CJB_A_1.pdb
 19 20 0 0 0
SMALL
GASTEIGER

@<TRIPOS>ATOM
      1  N1        34.2160   23.4570   28.6970 N.am  843  CJB843     -0.1766
      2  O2        32.4240   24.1830   29.9280 O.2   843  CJB843     -0.1918
      3  C2        33.6310   24.1580   29.7470 C.1   843  CJB843      0.2845
      4  N3        34.4330   24.8720   30.6190 N.2   843  CJB843     -0.2452
      5  C4        35.8140   24.8820   30.4440 C.1   843  CJB843      0.2182
      6  O4        36.4180   25.5650   31.2620 O.2   843  CJB843     -0.2085
      7  C5        36.4450   24.1850   29.4000 C.2   843  CJB843      0.1242
      8  C6        35.6360   23.4910   28.5160 C.2   843  CJB843      0.0929
      9  C1*       33.3180   22.7340   27.7870 C.3   843  CJB843      0.2401
     10  O5*       33.2840   21.3050   28.0060 O.3   843  CJB843     -0.3318
     11  C5*       32.1950   20.7060   27.3030 C.3   843  CJB843      0.1828
     12  C6*       32.2430   19.2710   27.8060 C.3   843  CJB843      0.2142
     13  O6*       33.2610   18.5140   27.1470 O.3   843  CJB843     -0.2176
     14  C4*       32.4560   20.8860   25.7680 C.3   843  CJB843      0.2144
     15  O4*       31.4070   20.2670   24.9980 O.3   843  CJB843     -0.2176
     16  C3*       32.6280   22.3660   25.3840 C.3   843  CJB843      0.2190
     17  O3*       33.0300   22.4610   24.0630 O.3   843  CJB843     -0.2174
     18  C2*       33.7050   23.0060   26.3090 C.3   843  CJB843      0.2320
     19  O2*       33.8950   24.4130   26.0910 O.3   843  CJB843     -0.2157
@<TRIPOS>BOND
     1    17    16    1
     2    15    14    1
     3    16    14    1
     4    16    18    1
     5    14    11    1
     6    19    18    1
     7    18     9    1
     8    13    12    1
     9    11    12    1
    10    11    10    1
    11     9    10    1
    12     9     1    1
    13     8     1    1
    14     8     7    2
    15     1     3   am
    16     7     5    1
    17     3     2    2
    18     3     4    2
    19     5     4    2
    20     5     6    2
