@<TRIPOS>MOLECULE
3t3e_GPQ_A_1.pdb
 20 21 0 0 0
SMALL
GASTEIGER

@<TRIPOS>ATOM
      1  N1        34.0910   23.4150   28.7620 N.am  843  GPQ843     -0.1758
      2 CL1        37.9410   23.9470   29.6410 Cl    843  GPQ843     -0.0672
      3  C2        33.4180   24.1410   29.7510 C.1   843  GPQ843      0.2846
      4  O2        32.1990   24.1990   29.7530 O.2   843  GPQ843     -0.1918
      5  N3        34.1320   24.8450   30.6820 N.2   843  GPQ843     -0.2444
      6  C4        35.5290   24.8180   30.6560 C.1   843  GPQ843      0.2282
      7  O4        36.0900   25.4830   31.5090 O.2   843  GPQ843     -0.2076
      8  C5        36.2170   24.0770   29.6870 C.2   843  GPQ843      0.1681
      9  C6        35.4960   23.3800   28.7350 C.2   843  GPQ843      0.1037
     10  C1'       33.2680   22.7260   27.8040 C.3   843  GPQ843      0.2401
     11  C2'       33.6950   23.0390   26.3370 C.3   843  GPQ843      0.2320
     12  O2'       33.8200   24.4520   26.1690 O.3   843  GPQ843     -0.2157
     13  C3'       32.6370   22.4050   25.3900 C.3   843  GPQ843      0.2190
     14  O3'       33.0680   22.3430   24.0410 O.3   843  GPQ843     -0.2174
     15  C4'       32.3680   20.9530   25.8460 C.3   843  GPQ843      0.2144
     16  O4'       31.2900   20.4790   25.0900 O.3   843  GPQ843     -0.2176
     17  C5'       32.0650   20.7990   27.3690 C.3   843  GPQ843      0.1828
     18  O5'       33.1990   21.2880   28.0890 O.3   843  GPQ843     -0.3318
     19  C6'       32.0500   19.3520   27.8050 C.3   843  GPQ843      0.2142
     20  O6'       33.2080   18.6560   27.3040 O.3   843  GPQ843     -0.2176
@<TRIPOS>BOND
     1    14    13    1
     2    16    15    1
     3    13    15    1
     4    13    11    1
     5    15    17    1
     6    12    11    1
     7    11    10    1
     8    20    19    1
     9    17    19    1
    10    17    18    1
    11    10    18    1
    12    10     1    1
    13     9     1    1
    14     9     8    2
    15     1     3   am
    16     2     8    1
    17     8     6    1
    18     3     4    2
    19     3     5    2
    20     6     5    2
    21     6     7    2
