@<TRIPOS>MOLECULE
3t3f_N5P_A_1.pdb
 32 34 0 0 0
SMALL
GASTEIGER

@<TRIPOS>ATOM
      1  OR2       17.5970  -20.7600   -1.2170 O.2   836  N5P836     -0.1261
      2  NRO       18.2210  -19.8290   -1.6890 N.pl3 836  N5P836      0.0577
      3  OR1       18.5660  -18.8870   -0.9970 O.2   836  N5P836     -0.1261
      4  CZ3       18.5320  -19.8540   -3.0870 C.ar  836  N5P836      0.1430
      5  CE3       19.1170  -18.7320   -3.7050 C.ar  836  N5P836      0.0256
      6  CD2       19.4010  -18.7950   -5.0620 C.ar  836  N5P836      0.0190
      7  CH2       18.2350  -21.0210   -3.8220 C.ar  836  N5P836      0.0256
      8  CZ2       18.5260  -21.0690   -5.1770 C.ar  836  N5P836      0.0189
      9  CE2       19.0900  -19.9810   -5.7620 C.ar  836  N5P836      0.0619
     10  NE1       19.4550  -19.7760   -7.0900 N.ar  836  N5P836     -0.3040
     11  CD1       19.9910  -18.5120   -7.2230 C.ar  836  N5P836      0.0777
     12  CG        19.9770  -17.8600   -6.0120 C.ar  836  N5P836      0.0202
     13  C1'       19.3170  -20.7890   -8.1480 C.3   836  N5P836      0.2073
     14  O4'       20.4330  -20.6900   -8.9710 O.3   836  N5P836     -0.3327
     15  C4'       20.0470  -20.1160  -10.1720 C.3   836  N5P836      0.1775
     16  C3'       18.6650  -20.5730  -10.3900 C.3   836  N5P836      0.1859
     17  O3'       18.7110  -21.7700  -11.0790 O.3   836  N5P836     -0.2203
     18  C2'       18.0980  -20.6800   -9.0190 C.3   836  N5P836      0.0893
     19  C5'       20.0890  -18.6180  -10.0680 C.3   836  N5P836      0.1812
     20  O5'       19.9250  -18.1280  -11.3530 O.3   836  N5P836     -0.3112
     21  PA        19.8980  -16.5700  -11.5430 P.3   836  N5P836      0.2189
     22  O1A       20.8350  -15.9010  -10.5090 O.3   836  N5P836     -0.4371
     23  O2A       20.3690  -16.2160  -12.9690 O.2   836  N5P836     -0.5170
     24  O3A       18.4500  -16.0690  -11.3000 O.3   836  N5P836     -0.2700
     25  PB        17.2540  -16.5580  -12.1920 P.3   836  N5P836      0.2277
     26  O1B       16.2550  -17.2560  -11.2430 O.3   836  N5P836     -0.4368
     27  O2B       17.6980  -17.6120  -13.2450 O.2   836  N5P836     -0.5168
     28  O3B       16.6050  -15.2840  -12.8640 O.3   836  N5P836     -0.2258
     29  PG        17.4270  -14.1570  -13.5970 P.3   836  N5P836      0.5373
     30  O3G       18.6320  -14.7570  -14.3060 O.3   836  N5P836     -0.1143
     31  O2G       17.9080  -13.0780  -12.6490 O.3   836  N5P836     -0.1143
     32  O1G       16.5240  -13.4880  -14.6010 O.2   836  N5P836     -0.2221
@<TRIPOS>BOND
     1    32    29    2
     2    30    29    1
     3    29    28    1
     4    29    31    1
     5    27    25    2
     6    23    21    2
     7    28    25    1
     8    25    24    1
     9    25    26    1
    10    21    20    1
    11    21    24    1
    12    21    22    1
    13    20    19    1
    14    17    16    1
    15    16    15    1
    16    16    18    1
    17    15    19    1
    18    15    14    1
    19    18    13    1
    20    14    13    1
    21    13    10    1
    22    11    10   ar
    23    11    12   ar
    24    10     9   ar
    25    12     6   ar
    26     9     8   ar
    27     9     6   ar
    28     8     7   ar
    29     6     5   ar
    30     7     4   ar
    31     5     4   ar
    32     4     2    1
    33     2     1    2
    34     2     3    2
