@<TRIPOS>MOLECULE
3t3g_GPU_A_1.pdb
 20 21 0 0 0
SMALL
GASTEIGER

@<TRIPOS>ATOM
      1  N1        34.0340   23.5280   28.9300 N.am  843  GPU843     -0.1762
      2 BR1        38.0860   23.9480   29.9230 Br    843  GPU843     -0.0340
      3  C2        33.3570   24.3680   29.8510 C.1   843  GPU843      0.2845
      4  O2        32.1300   24.4920   29.8320 O.2   843  GPU843     -0.1918
      5  N3        34.1310   25.1020   30.8030 N.2   843  GPU843     -0.2447
      6  C4        35.5310   24.9760   30.8270 C.1   843  GPU843      0.2238
      7  O4        36.1480   25.6520   31.6370 O.2   843  GPU843     -0.2080
      8  C5        36.1830   24.1420   29.9100 C.2   843  GPU843      0.1452
      9  C6        35.4410   23.4270   28.9630 C.2   843  GPU843      0.0989
     10  C1'       33.2410   22.7710   27.9410 C.3   843  GPU843      0.2401
     11  C2'       33.6860   23.1110   26.5190 C.3   843  GPU843      0.2320
     12  O2'       33.8200   24.5510   26.3780 O.3   843  GPU843     -0.2157
     13  C3'       32.6670   22.4490   25.5770 C.3   843  GPU843      0.2190
     14  O3'       33.1710   22.4480   24.2510 O.3   843  GPU843     -0.2174
     15  C4'       32.3800   20.9790   25.9870 C.3   843  GPU843      0.2144
     16  O4'       31.2850   20.4980   25.2420 O.3   843  GPU843     -0.2176
     17  C5'       32.1340   20.7860   27.4910 C.3   843  GPU843      0.1828
     18  O5'       33.3270   21.3250   28.0360 O.3   843  GPU843     -0.3318
     19  C6'       32.1720   19.3620   28.0130 C.3   843  GPU843      0.2142
     20  O6'       33.3050   18.6850   27.4530 O.3   843  GPU843     -0.2176
@<TRIPOS>BOND
     1    14    13    1
     2    16    15    1
     3    13    15    1
     4    13    11    1
     5    15    17    1
     6    12    11    1
     7    11    10    1
     8    20    19    1
     9    17    19    1
    10    17    18    1
    11    10    18    1
    12    10     1    1
    13     1     9    1
    14     1     3   am
    15     9     8    2
    16     4     3    2
    17     3     5    2
    18     8     2    1
    19     8     6    1
    20     5     6    2
    21     6     7    2
