@<TRIPOS>MOLECULE
3t3h_GPV_A_1.pdb
 20 21 0 0 0
SMALL
GASTEIGER

@<TRIPOS>ATOM
      1  I         38.1540   23.5600   30.1550 I     843  GPV843     -0.0273
      2  N1        33.9570   23.4420   28.9090 N.am  843  GPV843     -0.1762
      3  C2        33.2990   24.3500   29.7320 C.1   843  GPV843      0.2845
      4  O2        32.0870   24.5350   29.6100 O.2   843  GPV843     -0.1918
      5  N3        34.0290   25.0860   30.6810 N.2   843  GPV843     -0.2448
      6  C4        35.4100   24.8850   30.8160 C.1   843  GPV843      0.2229
      7  O4        36.0100   25.5320   31.6600 O.2   843  GPV843     -0.2081
      8  C5        36.0700   23.9760   29.9920 C.2   843  GPV843      0.1405
      9  C6        35.3230   23.2640   29.0430 C.2   843  GPV843      0.0980
     10  C1'       33.1890   22.7020   27.8670 C.3   843  GPV843      0.2401
     11  C2'       33.6510   23.0250   26.4160 C.3   843  GPV843      0.2320
     12  O2'       33.6920   24.4600   26.1840 O.3   843  GPV843     -0.2157
     13  C3'       32.6460   22.3380   25.4780 C.3   843  GPV843      0.2190
     14  O3'       32.9630   22.4940   24.1160 O.3   843  GPV843     -0.2174
     15  C4'       32.3990   20.8900   25.8260 C.3   843  GPV843      0.2144
     16  O4'       31.2280   20.5070   25.1000 O.3   843  GPV843     -0.2176
     17  C5'       32.1260   20.7190   27.3290 C.3   843  GPV843      0.1828
     18  O5'       33.2280   21.2730   27.9590 O.3   843  GPV843     -0.3318
     19  C6'       32.1550   19.2830   27.9090 C.3   843  GPV843      0.2142
     20  O6'       33.0890   18.4730   27.2030 O.3   843  GPV843     -0.2176
@<TRIPOS>BOND
     1    14    13    1
     2    16    15    1
     3    13    15    1
     4    13    11    1
     5    15    17    1
     6    12    11    1
     7    11    10    1
     8    20    19    1
     9    17    19    1
    10    17    18    1
    11    10    18    1
    12    10     2    1
    13     2     9    1
    14     2     3   am
    15     9     8    2
    16     4     3    2
    17     3     5    2
    18     8     1    1
    19     8     6    1
    20     5     6    2
    21     6     7    2
