@<TRIPOS>MOLECULE
3t3i_GPW_A_1.pdb
 23 24 0 0 0
SMALL
GASTEIGER

@<TRIPOS>ATOM
      1  F1        38.4630   25.0800   29.9080 F     843  GPW843     -0.1650
      2  N1        34.1360   23.5760   29.0840 N.am  843  GPW843     -0.1767
      3  C2        33.4320   24.4210   29.9760 C.1   843  GPW843      0.2845
      4  F2        38.0880   23.6760   31.4960 F     843  GPW843     -0.1650
      5  O2        32.2030   24.5150   29.8800 O.2   843  GPW843     -0.1918
      6  F3        38.1470   22.9950   29.5230 F     843  GPW843     -0.1650
      7  N3        34.1260   25.1690   30.9520 N.2   843  GPW843     -0.2453
      8  C4        35.5350   25.0470   31.0260 C.1   843  GPW843      0.2215
      9  O4        36.1460   25.6910   31.8730 O.2   843  GPW843     -0.2085
     10  C5        36.2370   24.2020   30.1390 C.2   843  GPW843      0.1821
     11  C6        35.5320   23.4710   29.1690 C.2   843  GPW843      0.0961
     12  C7        37.7740   24.0210   30.2480 C.3   843  GPW843      0.4310
     13  C1'       33.3590   22.8260   28.0450 C.3   843  GPW843      0.2401
     14  C2'       33.8120   23.0720   26.5670 C.3   843  GPW843      0.2320
     15  O2'       34.0130   24.4840   26.3240 O.3   843  GPW843     -0.2157
     16  C3'       32.7760   22.4310   25.5950 C.3   843  GPW843      0.2190
     17  O3'       33.1630   22.5040   24.2090 O.3   843  GPW843     -0.2174
     18  C4'       32.5270   20.9550   25.9730 C.3   843  GPW843      0.2144
     19  O4'       31.3750   20.4920   25.2400 O.3   843  GPW843     -0.2176
     20  C5'       32.3290   20.7520   27.5130 C.3   843  GPW843      0.1828
     21  O5'       33.3170   21.4150   28.3100 O.3   843  GPW843     -0.3318
     22  C6'       32.4490   19.3460   28.0630 C.3   843  GPW843      0.2142
     23  O6'       33.0860   18.4500   27.1620 O.3   843  GPW843     -0.2176
@<TRIPOS>BOND
     1    17    16    1
     2    19    18    1
     3    16    18    1
     4    16    14    1
     5    18    20    1
     6    15    14    1
     7    14    13    1
     8    23    22    1
     9    20    22    1
    10    20    21    1
    11    13    21    1
    12    13     2    1
    13     2    11    1
    14     2     3   am
    15    11    10    2
    16     6    12    1
    17     5     3    2
    18     1    12    1
    19     3     7    2
    20    10    12    1
    21    10     8    1
    22    12     4    1
    23     7     8    2
    24     8     9    2
