@<TRIPOS>MOLECULE
3t3m_RC2_A_1.pdb
 27 30 0 0 0
SMALL
GASTEIGER

@<TRIPOS>ATOM
      1  C         55.2480  113.0120   70.8640 C.2   5000  RC25000     0.2650
      2  N         57.3840  113.9220   70.0840 N.3   5000  RC25000    -0.1209
      3  O         55.7920  112.3680   71.7470 O.2   5000  RC25000    -0.2714
      4  S         50.9200  108.7640   74.2670 S.3   5000  RC25000    -0.0174
      5  C01       51.6650  101.2730   74.8530 C.3   5000  RC25000     0.1102
      6  N01       53.8770  113.2210   70.7930 N.am  5000  RC25000    -0.1779
      7  O01       54.8870  106.3610   72.7890 O.2   5000  RC25000    -0.2722
      8  C02       49.5860  102.3450   75.5340 C.3   5000  RC25000     0.1102
      9  N02       50.5140  101.2290   75.7630 N.3   5000  RC25000    -0.2144
     10  C03       51.8010  107.2490   74.1920 C.2   5000  RC25000     0.2424
     11  N03       51.6440  103.7590   75.1770 N.pl3 5000  RC25000    -0.2836
     12  C04       53.8150  106.2500   73.3890 C.2   5000  RC25000     0.2593
     13  N04       53.0000  107.3670   73.5290 N.am  5000  RC25000    -0.1236
     14  C05       50.2980  103.6850   75.7950 C.3   5000  RC25000     0.1116
     15  N05       51.4280  106.1010   74.6860 N.2   5000  RC25000    -0.3675
     16  C06       50.9050  112.9560   72.9940 C.ar  5000  RC25000     0.0014
     17  N06       53.2300  108.6240   73.0730 N.2   5000  RC25000    -0.1622
     18  C07       53.3740  105.0210   73.9470 C.3   5000  RC25000     0.1620
     19  C08       52.2850  109.4480   73.3840 C.2   5000  RC25000     0.1322
     20  C09       52.4860  102.5500   75.1140 C.3   5000  RC25000     0.1116
     21  C10       52.1140  110.8630   73.0270 C.ar  5000  RC25000     0.0268
     22  C11       51.0360  111.6530   73.4230 C.ar  5000  RC25000     0.0021
     23  C12       55.9840  113.6730   69.7230 C.3   5000  RC25000     0.1959
     24  C13       51.8300  113.4970   72.1260 C.ar  5000  RC25000     0.0166
     25  C14       52.9040  112.7340   71.6830 C.ar  5000  RC25000     0.0735
     26  C15       53.0130  111.4260   72.1250 C.ar  5000  RC25000     0.0187
     27  C16       52.1430  104.9520   74.6190 C.2   5000  RC25000     0.1717
@<TRIPOS>BOND
     1    23     2    1
     2    23     1    1
     3     6     1   am
     4     6    25    1
     5     1     3    2
     6    25    26   ar
     7    25    24   ar
     8    26    21   ar
     9    24    16   ar
    10     7    12    2
    11    16    22   ar
    12    21    19    1
    13    21    22   ar
    14    17    19    2
    15    17    13    1
    16    19     4    1
    17    12    13   am
    18    12    18    1
    19    13    10    1
    20    18    27    1
    21    10     4    1
    22    10    15    2
    23    27    15    2
    24    27    11    1
    25     5    20    1
    26     5     9    1
    27    20    11    1
    28    11    14    1
    29     8     9    1
    30     8    14    1
