@<TRIPOS>MOLECULE
3t3q_HEM_A_1.pdb
 43 50 0 0 0
SMALL
GASTEIGER

@<TRIPOS>ATOM
      1  CHA      -39.5090   31.9120  -47.2850 C.2   500  HEM500      0.0000
      2  CHB      -40.1690   28.8700  -50.9600 C.2   500  HEM500      0.0000
      3  CHC      -38.5350   32.2340  -54.0830 C.2   500  HEM500      0.0000
      4  CHD      -37.4260   35.1190  -50.3800 C.2   500  HEM500      0.0000
      5  C1A      -39.8520   30.7860  -47.9800 C.ar  500  HEM500      0.0000
      6  C2A      -40.4510   29.5750  -47.4550 C.ar  500  HEM500      0.0000
      7  C3A      -40.6430   28.7350  -48.4800 C.ar  500  HEM500      0.0000
      8  C4A      -40.1660   29.3880  -49.6820 C.ar  500  HEM500      0.0000
      9  CMA      -41.2530   27.3180  -48.3990 C.3   500  HEM500      0.0000
     10  CAA      -40.8210   29.3280  -45.9740 C.3   500  HEM500      0.0000
     11  CBA      -42.1360   30.0540  -45.7020 C.3   500  HEM500      0.0000
     12  CGA      -42.6700   29.7970  -44.3080 C.2   500  HEM500      0.0000
     13  O1A      -43.8590   29.4040  -44.1740 O.co2 500  HEM500      0.0000
     14  O2A      -41.9280   30.0040  -43.3130 O.co2 500  HEM500      0.0000
     15  C1B      -39.8190   29.5210  -52.1280 C.2   500  HEM500      0.0000
     16  C2B      -39.9770   28.9870  -53.4680 C.2   500  HEM500      0.0000
     17  C3B      -39.5250   29.9170  -54.3340 C.2   500  HEM500      0.0000
     18  C4B      -39.0650   31.0640  -53.5670 C.2   500  HEM500      0.0000
     19  CMB      -40.5770   27.5870  -53.7720 C.3   500  HEM500      0.0000
     20  CAB      -39.4580   29.8560  -55.8830 C.2   500  HEM500      0.0000
     21  CBB      -39.9200   28.8270  -56.5910 C.2   500  HEM500      0.0000
     22  C1C      -38.1200   33.3500  -53.3760 C.ar  500  HEM500      0.0000
     23  C2C      -37.6700   34.6240  -53.9190 C.ar  500  HEM500      0.0000
     24  C3C      -37.3630   35.4290  -52.8840 C.ar  500  HEM500      0.0000
     25  C4C      -37.6100   34.6840  -51.6670 C.ar  500  HEM500      0.0000
     26  CMC      -37.5860   34.9480  -55.4340 C.3   500  HEM500      0.0000
     27  CAC      -36.8220   36.8850  -52.8930 C.2   500  HEM500      0.0000
     28  CBC      -37.3100   37.8340  -53.6960 C.2   500  HEM500      0.0000
     29  C1D      -37.8920   34.5370  -49.2190 C.2   500  HEM500      0.0000
     30  C2D      -37.8060   35.1430  -47.9160 C.2   500  HEM500      0.0000
     31  C3D      -38.4530   34.1360  -46.9530 C.2   500  HEM500      0.0000
     32  C4D      -38.8750   33.0330  -47.7740 C.2   500  HEM500      0.0000
     33  CMD      -37.1620   36.5080  -47.5900 C.3   500  HEM500      0.0000
     34  CAD      -38.6450   34.2440  -45.4250 C.3   500  HEM500      0.0000
     35  CBD      -39.8810   35.0850  -45.1100 C.3   500  HEM500      0.0000
     36  CGD      -39.9810   35.3490  -43.6260 C.2   500  HEM500      0.0000
     37  O1D      -40.7390   36.2700  -43.2410 O.co2 500  HEM500      0.0000
     38  O2D      -39.3100   34.6560  -42.8180 O.co2 500  HEM500      0.0000
     39  NA       -39.6990   30.6380  -49.3310 N.ar  500  HEM500      0.0000
     40  NB       -39.2610   30.7860  -52.2270 N.2   500  HEM500      0.0000
     41  NC       -38.0660   33.4390  -52.0000 N.ar  500  HEM500      0.0000
     42  ND       -38.5290   33.3020  -49.0970 N.2   500  HEM500      0.0000
     43 FE        -38.9600   32.0990  -50.6650 Fe    500  HEM500      0.0000
@<TRIPOS>BOND
     1    21    20    2
     2    20    17    1
     3    26    23    1
     4    17    18    1
     5    17    16    2
     6     3    18    2
     7     3    22    1
     8    23    22   ar
     9    23    24   ar
    10    19    16    1
    11    28    27    2
    12    18    40    1
    13    16    15    1
    14    22    41   ar
    15    27    24    1
    16    24    25   ar
    17    40    15    2
    18    40    43    1
    19    15     2    1
    20    41    25   ar
    21    41    43    1
    22    25     4    1
    23     2     8    2
    24    43    39    1
    25    43    42    1
    26     4    29    2
    27     8    39   ar
    28     8     7   ar
    29    39     5   ar
    30    29    42    1
    31    29    30    1
    32    42    32    2
    33     7     9    1
    34     7     6   ar
    35     5     6   ar
    36     5     1    2
    37    30    33    1
    38    30    31    2
    39    32     1    1
    40    32    31    1
    41     6    10    1
    42    31    34    1
    43    10    11    1
    44    11    12    1
    45    34    35    1
    46    35    36    1
    47    12    13   ar
    48    12    14   ar
    49    36    37   ar
    50    36    38   ar
