@<TRIPOS>MOLECULE
3t3q_9PL_A_1.pdb
 15 16 0 0 0
SMALL
GASTEIGER

@<TRIPOS>ATOM
      1  N1       -35.2800   29.3340  -50.2800 N.ar  501  9PL501     -0.3105
      2  C2       -36.2520   29.9530  -50.9510 C.ar  501  9PL501      0.1784
      3  N3       -36.8690   30.8170  -50.1200 N.ar  501  9PL501     -0.2227
      4  C4       -36.2750   30.7290  -48.9110 C.ar  501  9PL501      0.1133
      5  C5       -35.2650   29.7860  -49.0210 C.ar  501  9PL501      0.0577
      6  C6       -34.3680   28.3100  -50.8370 C.3   501  9PL501      0.1317
      7  C7       -34.3150   29.3420  -47.9300 C.3   501  9PL501      0.0497
      8  C8       -33.6790   30.5430  -47.2290 C.3   501  9PL501      0.0603
      9  C9       -33.0400   30.1640  -45.8870 C.3   501  9PL501      0.2092
     10  O10      -31.9150   31.0310  -45.7670 O.3   501  9PL501     -0.4485
     11  C11      -31.7730   31.8540  -46.9530 C.2   501  9PL501      0.3166
     12  C12      -32.7140   31.4340  -48.0310 C.3   501  9PL501      0.1030
     13  C13      -31.9600   30.7630  -49.1840 C.3   501  9PL501      0.0112
     14  C14      -30.8000   29.8800  -48.7630 C.3   501  9PL501      0.0006
     15  O15      -30.9880   32.7780  -47.0440 O.2   501  9PL501     -0.2501
@<TRIPOS>BOND
     1     2     1   ar
     2     2     3   ar
     3     6     1    1
     4     1     5   ar
     5     3     4   ar
     6    13    14    1
     7    13    12    1
     8     5     4   ar
     9     5     7    1
    10    12     8    1
    11    12    11    1
    12     7     8    1
    13     8     9    1
    14    15    11    2
    15    11    10    1
    16     9    10    1
