@<TRIPOS>MOLECULE
3t3r_9PL_A_1.pdb
 15 16 0 0 0
SMALL
GASTEIGER

@<TRIPOS>ATOM
      1  N1         2.3460   63.7480  -57.1000 N.ar  501  9PL501     -0.3105
      2  C2         1.2440   63.1370  -56.6690 C.ar  501  9PL501      0.1784
      3  N3         0.4220   62.9170  -57.7140 N.ar  501  9PL501     -0.2227
      4  C4         1.0170   63.3990  -58.8190 C.ar  501  9PL501      0.1133
      5  C5         2.2330   63.9300  -58.4320 C.ar  501  9PL501      0.0577
      6  C6         3.4700   64.1380  -56.2120 C.3   501  9PL501      0.1317
      7  C7         3.2200   64.5590  -59.3860 C.3   501  9PL501      0.0497
      8  C8         4.3000   63.5360  -59.7270 C.3   501  9PL501      0.0603
      9  C9         3.7520   62.1890  -60.2200 C.3   501  9PL501      0.2092
     10  O10        4.7930   61.6940  -61.0560 O.3   501  9PL501     -0.4485
     11  C11        5.8530   62.6710  -61.1480 C.2   501  9PL501      0.3166
     12  C12        5.4010   63.9990  -60.6830 C.3   501  9PL501      0.1030
     13  C13        4.8530   64.6720  -61.9280 C.3   501  9PL501      0.0112
     14  C14        5.2630   66.1100  -61.9910 C.3   501  9PL501      0.0006
     15  O15        6.9700   62.4170  -61.5480 O.2   501  9PL501     -0.2501
@<TRIPOS>BOND
     1    14    13    1
     2    13    12    1
     3    15    11    2
     4    11    10    1
     5    11    12    1
     6    10     9    1
     7    12     8    1
     8     9     8    1
     9     8     7    1
    10     7     5    1
    11     4     5   ar
    12     4     3   ar
    13     5     1   ar
    14     3     2   ar
    15     1     2   ar
    16     1     6    1
