@<TRIPOS>MOLECULE
3t3r_HEM_A_1.pdb
 43 50 0 0 0
SMALL
GASTEIGER

@<TRIPOS>ATOM
      1  CHA       -2.0020   62.4810  -60.9540 C.2   500  HEM500      0.0000
      2  CHB       -2.5980   65.0030  -56.7920 C.2   500  HEM500      0.0000
      3  CHC       -1.3270   61.0590  -54.2880 C.2   500  HEM500      0.0000
      4  CHD        0.3560   59.0710  -58.3580 C.2   500  HEM500      0.0000
      5  C1A       -2.3040   63.5010  -60.0550 C.2   500  HEM500      0.0000
      6  C2A       -2.8000   64.8260  -60.3860 C.2   500  HEM500      0.0000
      7  C3A       -2.9620   65.5130  -59.2390 C.2   500  HEM500      0.0000
      8  C4A       -2.5760   64.6570  -58.1360 C.2   500  HEM500      0.0000
      9  CMA       -3.4760   66.9590  -59.0660 C.3   500  HEM500      0.0000
     10  CAA       -3.0950   65.3050  -61.8310 C.3   500  HEM500      0.0000
     11  CBA       -4.4150   64.6690  -62.2790 C.3   500  HEM500      0.0000
     12  CGA       -4.9870   65.3450  -63.4970 C.2   500  HEM500      0.0000
     13  O1A       -6.2220   65.5530  -63.5620 O.co2 500  HEM500      0.0000
     14  O2A       -4.2210   65.6780  -64.4210 O.co2 500  HEM500      0.0000
     15  C1B       -2.3400   64.1690  -55.7190 C.ar  500  HEM500      0.0000
     16  C2B       -2.4710   64.4640  -54.2970 C.ar  500  HEM500      0.0000
     17  C3B       -2.1110   63.3530  -53.6140 C.ar  500  HEM500      0.0000
     18  C4B       -1.7450   62.3390  -54.5800 C.ar  500  HEM500      0.0000
     19  CMB       -2.9420   65.8150  -53.7180 C.3   500  HEM500      0.0000
     20  CAB       -2.0550   63.0740  -52.0870 C.2   500  HEM500      0.0000
     21  CBB       -2.1520   63.9990  -51.1290 C.2   500  HEM500      0.0000
     22  C1C       -0.7430   60.1630  -55.1600 C.2   500  HEM500      0.0000
     23  C2C       -0.1910   58.8630  -54.8310 C.2   500  HEM500      0.0000
     24  C3C        0.2730   58.3140  -55.9670 C.2   500  HEM500      0.0000
     25  C4C        0.0280   59.2530  -57.0360 C.2   500  HEM500      0.0000
     26  CMC       -0.1860   58.2600  -53.4000 C.3   500  HEM500      0.0000
     27  CAC        0.9730   56.9480  -56.1960 C.2   500  HEM500      0.0000
     28  CBC        0.6970   55.8690  -55.4510 C.2   500  HEM500      0.0000
     29  C1D       -0.1670   59.7280  -59.4410 C.ar  500  HEM500      0.0000
     30  C2D       -0.0290   59.2980  -60.8070 C.ar  500  HEM500      0.0000
     31  C3D       -0.7640   60.3580  -61.6420 C.ar  500  HEM500      0.0000
     32  C4D       -1.2640   61.3330  -60.6890 C.ar  500  HEM500      0.0000
     33  CMD        0.7250   58.0360  -61.2920 C.3   500  HEM500      0.0000
     34  CAD       -0.9080   60.3670  -63.1830 C.3   500  HEM500      0.0000
     35  CBD       -2.3570   60.1930  -63.6390 C.3   500  HEM500      0.0000
     36  CGD       -2.3770   60.0700  -65.1470 C.2   500  HEM500      0.0000
     37  O1D       -2.9940   59.1020  -65.6570 O.co2 500  HEM500      0.0000
     38  O2D       -1.7850   60.9280  -65.8560 O.co2 500  HEM500      0.0000
     39  NA        -2.1910   63.4490  -58.6790 N.2   500  HEM500      0.0000
     40  NB        -1.8940   62.8670  -55.8340 N.ar  500  HEM500      0.0000
     41  NC        -0.5940   60.3600  -56.5120 N.2   500  HEM500      0.0000
     42  ND        -0.9030   60.9050  -59.4240 N.ar  500  HEM500      0.0000
     43 FE         -1.3580   61.9260  -57.6260 Fe    500  HEM500      0.0000
@<TRIPOS>BOND
     1    38    36   ar
     2    37    36   ar
     3    36    35    1
     4    14    12   ar
     5    35    34    1
     6    13    12   ar
     7    12    11    1
     8    34    31    1
     9    11    10    1
    10    10     6    1
    11    31    30   ar
    12    31    32   ar
    13    33    30    1
    14     1    32    2
    15     1     5    1
    16    30    29   ar
    17    32    42   ar
    18     6     5    1
    19     6     7    2
    20     5    39    2
    21    29    42   ar
    22    29     4    2
    23    42    43    1
    24     7     9    1
    25     7     8    1
    26    39     8    1
    27    39    43    1
    28     4    25    1
    29     8     2    2
    30    43    41    1
    31    43    40    1
    32    25    41    2
    33    25    24    1
    34     2    15    1
    35    41    22    1
    36    27    24    1
    37    27    28    2
    38    24    23    2
    39    40    15   ar
    40    40    18   ar
    41    15    16   ar
    42    22    23    1
    43    22     3    2
    44    23    26    1
    45    18     3    1
    46    18    17   ar
    47    16    19    1
    48    16    17   ar
    49    17    20    1
    50    20    21    2
