@<TRIPOS>MOLECULE
3t3s_HEM_A_1.pdb
 43 50 0 0 0
SMALL
GASTEIGER

@<TRIPOS>ATOM
      1  CHA       16.3500    9.3950   43.0990 C.2   500  HEM500      0.0000
      2  CHB       15.3600    6.7970   47.0280 C.2   500  HEM500      0.0000
      3  CHC       17.2870    2.8070   44.8660 C.2   500  HEM500      0.0000
      4  CHD       18.1290    5.4430   40.9050 C.2   500  HEM500      0.0000
      5  C1A       15.8970    9.0320   44.3350 C.2   500  HEM500      0.0000
      6  C2A       15.2660    9.9230   45.2700 C.2   500  HEM500      0.0000
      7  C3A       15.0140    9.2110   46.3590 C.2   500  HEM500      0.0000
      8  C4A       15.4400    7.8490   46.1610 C.2   500  HEM500      0.0000
      9  CMA       14.3380    9.7810   47.6210 C.3   500  HEM500      0.0000
     10  CAA       14.9760   11.4420   45.0790 C.3   500  HEM500      0.0000
     11  CBA       14.0710   11.8400   43.9100 C.3   500  HEM500      0.0000
     12  CGA       13.7680   13.3230   43.8940 C.2   500  HEM500      0.0000
     13  O1A       12.7420   13.6830   44.5090 O.co2 500  HEM500      0.0000
     14  O2A       14.5010   14.1530   43.2840 O.co2 500  HEM500      0.0000
     15  C1B       15.8270    5.5230   46.7690 C.ar  500  HEM500      0.0000
     16  C2B       15.7450    4.4140   47.6950 C.ar  500  HEM500      0.0000
     17  C3B       16.2730    3.3220   47.0980 C.ar  500  HEM500      0.0000
     18  C4B       16.7130    3.6930   45.7720 C.ar  500  HEM500      0.0000
     19  CMB       15.1780    4.5050   49.1380 C.3   500  HEM500      0.0000
     20  CAB       16.4280    1.8900   47.6820 C.2   500  HEM500      0.0000
     21  CBB       15.7590    1.4400   48.7600 C.2   500  HEM500      0.0000
     22  C1C       17.6330    3.1020   43.5600 C.2   500  HEM500      0.0000
     23  C2C       18.1150    2.2360   42.5180 C.2   500  HEM500      0.0000
     24  C3C       18.3510    2.9850   41.4270 C.2   500  HEM500      0.0000
     25  C4C       18.0220    4.3500   41.7350 C.2   500  HEM500      0.0000
     26  CMC       18.3150    0.7190   42.6580 C.3   500  HEM500      0.0000
     27  CAC       18.8990    2.5250   40.0390 C.2   500  HEM500      0.0000
     28  CBC       18.1570    2.4610   38.9210 C.2   500  HEM500      0.0000
     29  C1D       17.7510    6.7520   41.1580 C.ar  500  HEM500      0.0000
     30  C2D       17.9550    7.8370   40.2230 C.ar  500  HEM500      0.0000
     31  C3D       17.3830    9.0740   40.9140 C.ar  500  HEM500      0.0000
     32  C4D       16.9360    8.6100   42.1880 C.ar  500  HEM500      0.0000
     33  CMD       18.6280    7.7720   38.8260 C.3   500  HEM500      0.0000
     34  CAD       17.3030   10.5220   40.3680 C.3   500  HEM500      0.0000
     35  CBD       15.9480   10.8060   39.6780 C.3   500  HEM500      0.0000
     36  CGD       15.8890   12.1400   38.9350 C.2   500  HEM500      0.0000
     37  O1D       15.1480   12.2130   37.9040 O.co2 500  HEM500      0.0000
     38  O2D       16.5590   13.1400   39.3520 O.co2 500  HEM500      0.0000
     39  NA        15.9690    7.7690   44.8890 N.2   500  HEM500      0.0000
     40  NB        16.4010    5.0530   45.6010 N.ar  500  HEM500      0.0000
     41  NC        17.5730    4.3860   43.0390 N.2   500  HEM500      0.0000
     42  ND        17.1340    7.2630   42.3140 N.ar  500  HEM500      0.0000
     43 FE         16.7060    6.0520   43.8780 Fe    500  HEM500      0.0000
@<TRIPOS>BOND
     1    37    36   ar
     2    33    30    1
     3    28    27    2
     4    36    38   ar
     5    36    35    1
     6    35    34    1
     7    27    24    1
     8    30    31   ar
     9    30    29   ar
    10    34    31    1
    11     4    29    2
    12     4    25    1
    13    31    32   ar
    14    29    42   ar
    15    24    25    1
    16    24    23    2
    17    25    41    2
    18    32    42   ar
    19    32     1    2
    20    42    43    1
    21    23    26    1
    22    23    22    1
    23    41    22    1
    24    41    43    1
    25     1     5    1
    26    14    12   ar
    27    22     3    2
    28    43    39    1
    29    43    40    1
    30    12    11    1
    31    12    13   ar
    32    11    10    1
    33     5    39    2
    34     5     6    1
    35     3    18    1
    36    39     8    1
    37    10     6    1
    38     6     7    2
    39    40    18   ar
    40    40    15   ar
    41    18    17   ar
    42     8     7    1
    43     8     2    2
    44     7     9    1
    45    15     2    1
    46    15    16   ar
    47    17    20    1
    48    17    16   ar
    49    20    21    2
    50    16    19    1
