@<TRIPOS>MOLECULE
3t3s_9PL_A_1.pdb
 15 16 0 0 0
SMALL
GASTEIGER

@<TRIPOS>ATOM
      1  N1        20.8750    7.2000   45.8350 N.ar    1  9PL1       -0.3105
      2  C2        19.8090    6.3670   45.6730 C.ar    1  9PL1        0.1784
      3  N3        18.8460    6.9480   44.9260 N.ar    1  9PL1       -0.2227
      4  C4        19.3240    8.1830   44.6210 C.ar    1  9PL1        0.1133
      5  C5        20.5990    8.3530   45.1830 C.ar    1  9PL1        0.0577
      6  C6        22.1210    6.8810   46.5950 C.3     1  9PL1        0.1317
      7  C7        21.5230    9.5790   45.0070 C.3     1  9PL1        0.0497
      8  C8        22.3920    9.1010   43.8180 C.3     1  9PL1        0.0603
      9  C9        21.9160    9.3710   42.3940 C.3     1  9PL1        0.2092
     10  O10       23.1400    9.2550   41.6740 O.3     1  9PL1       -0.4485
     11  C11       24.2790    9.2780   42.5430 C.2     1  9PL1        0.3166
     12  C12       23.8730    8.8000   43.9010 C.3     1  9PL1        0.1030
     13  C13       24.6160    9.5260   45.0050 C.3     1  9PL1        0.0112
     14  C14       25.3350    8.4800   45.8340 C.3     1  9PL1        0.0006
     15  O15       25.3920    9.6460   42.1810 O.2     1  9PL1       -0.2501
@<TRIPOS>BOND
     1    10     9    1
     2    10    11    1
     3    15    11    2
     4     9     8    1
     5    11    12    1
     6     8    12    1
     7     8     7    1
     8    12    13    1
     9     4     3   ar
    10     4     5   ar
    11     3     2   ar
    12    13    14    1
    13     7     5    1
    14     5     1   ar
    15     2     1   ar
    16     1     6    1
