@<TRIPOS>MOLECULE
3t3u_BK6_A_1.pdb
 29 33 0 0 0
SMALL
GASTEIGER

@<TRIPOS>ATOM
      1  N1        21.5610   12.4820   63.8090 N.2   701  BK6701     -0.0027
      2  C2        22.7250   13.1140   63.6140 C.3   701  BK6701      0.5248
      3  N3        22.7860   14.4420   63.5800 N.2   701  BK6701     -0.0088
      4  C4        21.6650   15.1730   63.7270 C.2   701  BK6701      0.3406
      5  C5        20.4330   14.5580   63.9430 C.3   701  BK6701      0.2639
      6  C6        20.4040   13.1540   63.9870 C.2   701  BK6701      0.4081
      7  CAA       11.3180   15.3120   65.6420 C.3   701  BK6701      0.2525
      8  NAB       19.2780   12.4500   64.1820 N.pl3 701  BK6701      0.2118
      9  CAC       14.4590   14.0080   67.0670 C.ar  701  BK6701      0.0369
     10  CAD       17.2700   16.3190   63.5590 C.ar  701  BK6701      0.0013
     11  CAE       15.8160   14.0710   66.7710 C.ar  701  BK6701      0.0031
     12  CAF       15.8970   16.2790   63.8460 C.ar  701  BK6701      0.0001
     13  CAH       14.0360   15.4850   65.2110 C.ar  701  BK6701      0.0369
     14  CAI       17.6670   14.8430   65.4160 C.ar  701  BK6701      0.0013
     15  CAJ       24.4330   19.0180   60.5210 C.3   701  BK6701      0.0888
     16  CAK       22.2180   18.4930   59.7240 C.3   701  BK6701      0.0888
     17  CAL       24.0460   18.7430   61.9830 C.3   701  BK6701      0.0231
     18  CAM       21.8050   17.9810   61.1280 C.3   701  BK6701      0.0231
     19  CAN       22.4990   17.4990   63.5420 C.3   701  BK6701      0.2317
     20  NAQ       20.2480   16.7590   63.9460 N.2   701  BK6701     -0.0912
     21  NAR       23.2440   19.5490   59.8300 N.3   701  BK6701     -0.2180
     22  OAS       12.2270   14.6540   66.5740 O.3   701  BK6701     -0.4714
     23  CAT       13.5600   14.7260   66.2790 C.ar  701  BK6701      0.1387
     24  CAU       18.1670   15.5720   64.3270 C.ar  701  BK6701      0.0182
     25  CAW       19.5360   15.6320   64.0730 C.2   701  BK6701      0.1226
     26  CAX       15.4050   15.5250   64.9210 C.ar  701  BK6701      0.0030
     27  CAY       16.2980   14.8110   65.7070 C.ar  701  BK6701      0.0002
     28  CBB       22.9870   17.6320   62.0540 C.3   701  BK6701      0.0522
     29  NBC       21.4410   16.4820   63.7340 N.pl3 701  BK6701     -0.0797
@<TRIPOS>BOND
     1    16    21    1
     2    16    18    1
     3    21    15    1
     4    15    17    1
     5    18    28    1
     6    17    28    1
     7    28    19    1
     8    19    29    1
     9    10    12   ar
    10    10    24   ar
    11     3     2    1
    12     3     4    2
    13     2     1    1
    14     4    29    1
    15     4     5    1
    16    29    20    1
    17     1     6    2
    18    12    26   ar
    19     5     6    1
    20     5    25    1
    21    20    25    2
    22     6     8    1
    23    25    24    1
    24    24    14   ar
    25    26    13   ar
    26    26    27   ar
    27    13    23   ar
    28    14    27   ar
    29     7    22    1
    30    27    11   ar
    31    23    22    1
    32    23     9   ar
    33    11     9   ar
