@<TRIPOS>MOLECULE
3t3v_BK4_A_1.pdb
 25 28 0 0 0
SMALL
GASTEIGER

@<TRIPOS>ATOM
      1  N1        16.6860   11.6230   62.7000 N.2   701  BK4701     -0.0027
      2  C2        17.8850   12.1170   62.3690 C.3   701  BK4701      0.5248
      3  N3        18.0170   13.4350   62.2370 N.2   701  BK4701     -0.0088
      4  C4        16.9710   14.2700   62.4460 C.2   701  BK4701      0.3405
      5  C5        15.7240   13.7780   62.8070 C.3   701  BK4701      0.2639
      6  C6        15.5970   12.3920   62.9250 C.2   701  BK4701      0.4081
      7  CAA        6.8550   14.7480   64.6840 C.3   701  BK4701      0.2525
      8  CAB       17.8850   17.8650   62.7010 C.3   701  BK4701      0.0532
      9  CAC       18.0400   16.6460   60.5130 C.3   701  BK4701      0.0532
     10  NAD       14.4590   11.7960   63.2550 N.pl3 701  BK4701      0.2118
     11  CAF        9.9480   13.5400   66.1590 C.ar  701  BK4701      0.0369
     12  CAG       12.6770   15.6350   62.5240 C.ar  701  BK4701      0.0013
     13  CAH       11.2900   13.5470   65.8390 C.ar  701  BK4701      0.0031
     14  CAI       11.3180   15.6600   62.8480 C.ar  701  BK4701      0.0001
     15  CAJ        9.4920   14.9730   64.2820 C.ar  701  BK4701      0.0369
     16  CAK       13.1130   14.2080   64.4130 C.ar  701  BK4701      0.0013
     17  NAN       15.6940   15.9700   62.6590 N.2   701  BK4701     -0.0914
     18  OAO        7.7340   14.2360   65.7280 O.3   701  BK4701     -0.4714
     19  CAP        9.0440   14.2530   65.3790 C.ar  701  BK4701      0.1387
     20  CAQ       13.5810   14.9030   63.2960 C.ar  701  BK4701      0.0182
     21  CAS       14.9310   14.9120   62.9470 C.2   701  BK4701      0.1226
     22  CAT       10.8480   14.9590   63.9550 C.ar  701  BK4701      0.0030
     23  CAU       11.7540   14.2350   64.7370 C.ar  701  BK4701      0.0002
     24  CAX       17.9820   16.4920   62.0380 C.3   701  BK4701      0.1876
     25  NAY       16.8490   15.5990   62.3930 N.pl3 701  BK4701     -0.0839
@<TRIPOS>BOND
     1     9    24    1
     2    24    25    1
     3    24     8    1
     4     3     2    1
     5     3     4    2
     6     2     1    1
     7    25     4    1
     8    25    17    1
     9     4     5    1
    10    12    14   ar
    11    12    20   ar
    12    17    21    2
    13     1     6    2
    14     5     6    1
    15     5    21    1
    16    14    22   ar
    17     6    10    1
    18    21    20    1
    19    20    16   ar
    20    22    15   ar
    21    22    23   ar
    22    15    19   ar
    23    16    23   ar
    24     7    18    1
    25    23    13   ar
    26    19    18    1
    27    19    11   ar
    28    13    11   ar
