@<TRIPOS>MOLECULE
3t3y_MD6_A_1.pdb
 14 14 0 0 0
SMALL
GASTEIGER

@<TRIPOS>ATOM
      1  C         -4.5550    2.0150   -1.0340 C.2   401  MD6401      0.3865
      2  N         -3.3510    2.3330    1.0150 N.am  401  MD6401     -0.1880
      3  O         -4.3460    3.2900   -1.3020 O.co2 401  MD6401     -0.2437
      4  CA        -4.2540    1.5010    0.3520 C.3   401  MD6401      0.2288
      5  N2        -1.5960    2.4280    4.2610 N.ar  401  MD6401     -0.2360
      6  OXT       -4.9610    1.2460   -1.8950 O.co2 401  MD6401     -0.2437
      7  C3        -2.9920    2.0360    2.3550 C.2   401  MD6401      0.2862
      8  O3        -3.4660    1.0410    2.8880 O.2   401  MD6401     -0.2666
      9  C4        -2.0390    2.8830    3.0840 C.ar  401  MD6401      0.1749
     10  O4        -2.1360    4.5090    1.3480 O.3   401  MD6401     -0.2848
     11  C5        -0.7130    3.1390    4.9650 C.ar  401  MD6401      0.0992
     12  C6        -0.2720    4.3590    4.4890 C.ar  401  MD6401      0.0240
     13  C7        -0.7400    4.8560    3.2640 C.ar  401  MD6401      0.0454
     14  C8        -1.6430    4.0900    2.5440 C.ar  401  MD6401      0.2177
@<TRIPOS>BOND
     1     6     1   ar
     2     3     1   ar
     3     1     4    1
     4     4     2    1
     5     2     7   am
     6    10    14    1
     7     7     8    2
     8     7     9    1
     9    14     9   ar
    10    14    13   ar
    11     9     5   ar
    12    13    12   ar
    13     5    11   ar
    14    12    11   ar
