@<TRIPOS>MOLECULE
3t3z_HEM_A_1.pdb
 43 50 0 0 0
SMALL
GASTEIGER

@<TRIPOS>ATOM
      1  CHA       24.8490   26.4340    7.6210 C.2   500  HEM500      0.0000
      2  CHB       24.0810   21.8250    8.7010 C.2   500  HEM500      0.0000
      3  CHC       28.8380   21.1670    9.3740 C.2   500  HEM500      0.0000
      4  CHD       29.5520   25.8880    8.6850 C.2   500  HEM500      0.0000
      5  C1A       24.2200   25.2190    7.8130 C.ar  500  HEM500      0.0000
      6  C2A       22.8060   24.9770    7.5900 C.ar  500  HEM500      0.0000
      7  C3A       22.5950   23.7330    7.8740 C.ar  500  HEM500      0.0000
      8  C4A       23.8740   23.1120    8.2810 C.ar  500  HEM500      0.0000
      9  CMA       21.2370   22.9990    7.7920 C.3   500  HEM500      0.0000
     10  CAA       21.7670   26.0250    7.1380 C.3   500  HEM500      0.0000
     11  CBA       21.6160   26.0870    5.6000 C.3   500  HEM500      0.0000
     12  CGA       20.4920   27.0170    5.1760 C.2   500  HEM500      0.0000
     13  O1A       19.8380   26.7680    4.1290 O.co2 500  HEM500      0.0000
     14  O2A       20.2310   28.0560    5.8390 O.co2 500  HEM500      0.0000
     15  C1B       25.2910   21.2550    9.0480 C.2   500  HEM500      0.0000
     16  C2B       25.4750   19.9070    9.4960 C.2   500  HEM500      0.0000
     17  C3B       26.8070   19.6960    9.6890 C.2   500  HEM500      0.0000
     18  C4B       27.4790   20.9460    9.3650 C.2   500  HEM500      0.0000
     19  CMB       24.2800   18.9520    9.6890 C.3   500  HEM500      0.0000
     20  CAB       27.5760   18.4530   10.1950 C.2   500  HEM500      0.0000
     21  CBB       26.9840   17.2650   10.2350 C.2   500  HEM500      0.0000
     22  C1C       29.4850   22.3900    9.1900 C.ar  500  HEM500      0.0000
     23  C2C       30.9140   22.6450    9.1870 C.ar  500  HEM500      0.0000
     24  C3C       31.0840   23.9720    8.9990 C.ar  500  HEM500      0.0000
     25  C4C       29.7880   24.5550    8.8970 C.ar  500  HEM500      0.0000
     26  CMC       32.0020   21.5380    9.3590 C.3   500  HEM500      0.0000
     27  CAC       32.3950   24.8270    8.9120 C.2   500  HEM500      0.0000
     28  CBC       33.5020   24.3520    8.3210 C.2   500  HEM500      0.0000
     29  C1D       28.3610   26.4570    8.3370 C.2   500  HEM500      0.0000
     30  C2D       28.1850   27.8650    8.0320 C.2   500  HEM500      0.0000
     31  C3D       26.7000   28.0590    7.7180 C.2   500  HEM500      0.0000
     32  C4D       26.1540   26.7250    7.8380 C.2   500  HEM500      0.0000
     33  CMD       29.3010   28.9370    8.0640 C.3   500  HEM500      0.0000
     34  CAD       25.9330   29.3450    7.3110 C.3   500  HEM500      0.0000
     35  CBD       25.7820   29.4240    5.7640 C.3   500  HEM500      0.0000
     36  CGD       25.0930   30.7260    5.3670 C.2   500  HEM500      0.0000
     37  O1D       25.3180   31.2630    4.2290 O.co2 500  HEM500      0.0000
     38  O2D       24.3160   31.2510    6.1930 O.co2 500  HEM500      0.0000
     39  NA        24.8560   24.0710    8.2200 N.ar  500  HEM500      0.0000
     40  NB        26.5260   21.8510    8.9720 N.2   500  HEM500      0.0000
     41  NC        28.8380   23.5730    9.0160 N.ar  500  HEM500      0.0000
     42  ND        27.1580   25.8080    8.2030 N.2   500  HEM500      0.0000
     43 FE         26.8310   23.7680    8.6000 Fe    500  HEM500      0.0000
@<TRIPOS>BOND
     1    13    12   ar
     2    37    36   ar
     3    12    11    1
     4    12    14   ar
     5    36    35    1
     6    36    38   ar
     7    11    10    1
     8    35    34    1
     9    10     6    1
    10    34    31    1
    11     6     5   ar
    12     6     7   ar
    13     1     5    2
    14     1    32    1
    15    31    32    1
    16    31    30    2
    17     9     7    1
    18     5    39   ar
    19    32    42    2
    20     7     8   ar
    21    30    33    1
    22    30    29    1
    23    42    29    1
    24    42    43    1
    25    39     8   ar
    26    39    43    1
    27     8     2    2
    28    28    27    2
    29    29     4    2
    30    43    40    1
    31    43    41    1
    32     4    25    1
    33     2    15    1
    34    25    24   ar
    35    25    41   ar
    36    27    24    1
    37    40    15    2
    38    40    18    1
    39    24    23   ar
    40    41    22   ar
    41    15    16    1
    42    23    22   ar
    43    23    26    1
    44    22     3    1
    45    18     3    2
    46    18    17    1
    47    16    19    1
    48    16    17    2
    49    17    20    1
    50    20    21    2
