@<TRIPOS>MOLECULE
3t3z_9PL_A_1.pdb
 15 16 0 0 0
SMALL
GASTEIGER

@<TRIPOS>ATOM
      1  N1        26.3750   24.3640   12.8790 N.ar  501  9PL501     -0.3105
      2  C2        26.9340   23.7470   11.7940 C.ar  501  9PL501      0.1784
      3  N3        26.4580   24.3510   10.6980 N.ar  501  9PL501     -0.2227
      4  C4        25.6120   25.3200   11.0470 C.ar  501  9PL501      0.1133
      5  C5        25.5520   25.3400   12.4330 C.ar  501  9PL501      0.0577
      6  C6        26.6300   24.0240   14.3350 C.3   501  9PL501      0.1317
      7  C7        24.7360   26.2630   13.3060 C.3   501  9PL501      0.0497
      8  C8        23.2760   25.7600   13.4270 C.3   501  9PL501      0.0603
      9  C9        23.3010   24.2780   13.8380 C.3   501  9PL501      0.2092
     10  O10       23.4670   24.3240   15.2640 O.3   501  9PL501     -0.4485
     11  C11       22.9850   25.5820   15.7410 C.2   501  9PL501      0.3166
     12  C12       22.5300   26.4390   14.5980 C.3   501  9PL501      0.1030
     13  C13       22.9020   27.9170   14.8340 C.3   501  9PL501      0.0112
     14  C14       22.0020   28.5440   15.8510 C.3   501  9PL501      0.0006
     15  O15       22.9510   25.9030   16.9180 O.2   501  9PL501     -0.2501
@<TRIPOS>BOND
     1     3     4   ar
     2     3     2   ar
     3     4     5   ar
     4     2     1   ar
     5     5     1   ar
     6     5     7    1
     7     1     6    1
     8     7     8    1
     9     8     9    1
    10     8    12    1
    11     9    10    1
    12    12    13    1
    13    12    11    1
    14    13    14    1
    15    10    11    1
    16    11    15    2
