@<TRIPOS>MOLECULE
3t40_3RG_A_1.pdb
 14 14 0 0 0
SMALL
GASTEIGER

@<TRIPOS>ATOM
      1  C         15.0030    4.3700    9.5930 C.2   273  3RG273      0.3864
      2  N         14.3910    2.1720   10.3680 N.pl3 273  3RG273     -0.2255
      3  O         13.8390    4.4640    9.3600 O.co2 273  3RG273     -0.2437
      4  CA        15.5220    3.0830   10.2390 C.3   273  3RG273      0.2257
      5  OAB       12.9510   -1.8390   11.2400 O.co2 273  3RG273     -0.2405
      6  OAD       13.3210   -0.2450    9.7070 O.co2 273  3RG273     -0.2405
      7  CAE       12.7270    2.8310   13.9890 C.ar  273  3RG273      0.0013
      8  CAF       12.1170    1.4250   14.2590 C.ar  273  3RG273      0.0003
      9  CAG       13.5040    3.1080   12.6790 C.ar  273  3RG273      0.0163
     10  CAH       12.2830    0.2970   13.2090 C.ar  273  3RG273      0.0079
     11  CAL       13.2320   -0.5250   10.8590 C.2   273  3RG273      0.3890
     12  CAM       13.6700    1.9760   11.6310 C.ar  273  3RG273      0.0723
     13  CAN       13.0570    0.5800   11.9080 C.ar  273  3RG273      0.0946
     14  OXT       15.8190    5.5110    9.6000 O.co2 273  3RG273     -0.2437
@<TRIPOS>BOND
     1     3     1   ar
     2     1    14   ar
     3     1     4    1
     4     6    11   ar
     5     4     2    1
     6     2    12    1
     7    11     5   ar
     8    11    13    1
     9    12    13   ar
    10    12     9   ar
    11    13    10   ar
    12     9     7   ar
    13    10     8   ar
    14     7     8   ar
