@<TRIPOS>MOLECULE
3t42_NAP_A_1.pdb
 48 52 0 0 0
SMALL
GASTEIGER

@<TRIPOS>ATOM
      1  PA        -8.4450    5.4970   -2.0790 P.3   316  NAP316      0.2189
      2  O1A       -7.8020    6.8310   -1.9040 O.3   316  NAP316     -0.4371
      3  O2A       -7.9520    4.5470   -3.1140 O.2   316  NAP316     -0.5170
      4  O5B      -10.0380    5.7190   -2.2380 O.3   316  NAP316     -0.3112
      5  C5B      -10.9400    4.6270   -2.4250 C.3   316  NAP316      0.1813
      6  C4B      -12.3460    5.2150   -2.3980 C.3   316  NAP316      0.1820
      7  O4B      -12.5070    6.0050   -3.5800 O.3   316  NAP316     -0.3136
      8  C3B      -13.4470    4.1670   -2.4140 C.3   316  NAP316      0.2157
      9  O3B      -14.5190    4.6620   -1.5980 O.3   316  NAP316     -0.2175
     10  C2B      -13.8570    4.1050   -3.8670 C.3   316  NAP316      0.2314
     11  O2B      -15.2250    3.7510   -4.0350 O.3   316  NAP316     -0.2630
     12  C1B      -13.6390    5.5340   -4.3210 C.3   316  NAP316      0.3158
     13  N9A      -13.3410    5.6360   -5.7660 N.pl3 316  NAP316     -0.1439
     14  C8A      -12.4690    4.8710   -6.4350 C.3   316  NAP316      0.3377
     15  N7A      -12.4280    5.2550   -7.7320 N.2   316  NAP316     -0.2095
     16  C5A      -13.2670    6.3070   -7.8610 C.2   316  NAP316      0.2526
     17  C6A      -13.6500    7.1050   -8.9340 C.2   316  NAP316      0.4393
     18  N6A      -13.1420    6.9340  -10.1780 N.pl3 316  NAP316      0.2180
     19  N1A      -14.5510    8.0850   -8.7090 N.2   316  NAP316      0.0021
     20  C2A      -15.0670    8.2800   -7.4920 C.3   316  NAP316      0.5254
     21  N3A      -14.7390    7.5280   -6.4450 N.2   316  NAP316     -0.0055
     22  C4A      -13.8350    6.5360   -6.6140 C.2   316  NAP316      0.3518
     23  O3        -8.5190    4.8130   -0.6200 O.3   316  NAP316     -0.2703
     24  PN        -7.7340    3.6040    0.1250 P.3   316  NAP316      0.2189
     25  O1N       -8.4390    2.3040   -0.0510 O.2   316  NAP316     -0.5170
     26  O2N       -7.4700    4.1080    1.5190 O.3   316  NAP316     -0.4371
     27  O5D       -6.2650    3.4970   -0.5290 O.3   316  NAP316     -0.3112
     28  C5D       -6.0130    2.6490   -1.6600 C.3   316  NAP316      0.1813
     29  C4D       -5.3040    1.3750   -1.2300 C.3   316  NAP316      0.1799
     30  O4D       -4.0500    1.6450   -0.6000 O.3   316  NAP316     -0.3327
     31  C3D       -6.0420    0.5710   -0.1730 C.3   316  NAP316      0.2158
     32  O3D       -7.2070   -0.0870   -0.6810 O.3   316  NAP316     -0.2175
     33  C2D       -4.9460   -0.3610    0.2940 C.3   316  NAP316      0.2309
     34  O2D       -4.7520   -1.3540   -0.7280 O.3   316  NAP316     -0.2158
     35  C1D       -3.7690    0.5960    0.3440 C.3   316  NAP316      0.2263
     36  N1N       -3.6160    1.2040    1.6820 N.pl3 316  NAP316     -0.2787
     37  C2N       -2.5560    0.8220    2.4100 C.3   316  NAP316      0.1244
     38  C3N       -2.3410    1.3480    3.6770 C.2   316  NAP316      0.0544
     39  C7N       -1.1470    0.9410    4.5060 C.2   316  NAP316      0.2818
     40  O7N       -1.1050    1.1950    5.7270 O.2   316  NAP316     -0.2670
     41  N7N       -0.1280    0.3060    3.9020 N.am  316  NAP316     -0.0839
     42  C4N       -3.2360    2.2790    4.1770 C.2   316  NAP316      0.0033
     43  C5N       -4.3210    2.6650    3.4060 C.2   316  NAP316      0.0157
     44  C6N       -4.4950    2.1320    2.1430 C.2   316  NAP316      0.0633
     45  P2B      -15.7010    2.3010   -4.5010 P.3   316  NAP316      0.5328
     46  O1X      -14.6410    1.3080   -4.0900 O.3   316  NAP316     -0.1145
     47  O2X      -17.0330    2.1860   -3.7870 O.3   316  NAP316     -0.1145
     48  O3X      -15.8480    2.3700   -6.0000 O.2   316  NAP316     -0.2224
@<TRIPOS>BOND
     1    18    17    1
     2    17    19    2
     3    17    16    1
     4    19    20    1
     5    16    15    2
     6    16    22    1
     7    15    14    1
     8    20    21    1
     9    22    21    2
    10    22    13    1
    11    14    13    1
    12    48    45    2
    13    13    12    1
    14    45    46    1
    15    45    11    1
    16    45    47    1
    17    12    10    1
    18    12     7    1
    19    11    10    1
    20    10     8    1
    21     7     6    1
    22     3     1    2
    23     5     6    1
    24     5     4    1
    25     8     6    1
    26     8     9    1
    27     4     1    1
    28     1     2    1
    29     1    23    1
    30    28    29    1
    31    28    27    1
    32    29    30    1
    33    29    31    1
    34    34    33    1
    35    32    31    1
    36    23    24    1
    37    30    35    1
    38    27    24    1
    39    31    33    1
    40    25    24    2
    41    24    26    1
    42    33    35    1
    43    35    36    1
    44    36    44    1
    45    36    37    1
    46    44    43    2
    47    37    38    1
    48    43    42    1
    49    38    42    2
    50    38    39    1
    51    41    39   am
    52    39    40    2
