@<TRIPOS>MOLECULE
3t42_3T4_A_1.pdb
 27 28 0 0 0
SMALL
GASTEIGER

@<TRIPOS>ATOM
      1  C1        -1.7990    3.4840   12.8740 C.ar  317  3T4317      0.1521
      2 CL1        -8.6400   -3.7130    7.6840 Cl    317  3T4317     -0.0821
      3  N2        -1.1090    4.5980   13.3900 N.pl3 317  3T4317      0.0583
      4  O3        -1.4860    5.7240   13.1020 O.2   317  3T4317     -0.1261
      5  O4        -0.0990    4.4520   14.0690 O.2   317  3T4317     -0.1261
      6  C5        -2.8820    3.7170   12.0280 C.ar  317  3T4317      0.0222
      7  C6        -3.5890    2.6570   11.4760 C.ar  317  3T4317      0.0011
      8  C7        -4.7650    2.9540   10.5670 C.3   317  3T4317      0.1419
      9  N8        -5.3110    1.7760    9.9090 N.am  317  3T4317     -0.1967
     10  C9        -6.3280    1.1030   10.4020 C.2   317  3T4317      0.2680
     11  C10       -6.8700   -0.0880    9.6830 C.ar  317  3T4317      0.0890
     12  C11       -7.5300   -1.0370   10.4460 C.ar  317  3T4317      0.0085
     13  C12       -8.0620   -2.1520    9.8270 C.ar  317  3T4317      0.0117
     14  C13       -7.9380   -2.2930    8.4530 C.ar  317  3T4317      0.0607
     15  C15       -7.2990   -1.3520    7.6770 C.ar  317  3T4317      0.0484
     16  C16       -6.7640   -0.2380    8.2990 C.ar  317  3T4317      0.1446
     17  O17       -6.1330    0.7240    7.5890 O.3   317  3T4317     -0.4635
     18  C18       -5.7040    0.4190    6.2790 C.3   317  3T4317      0.3186
     19  C19       -4.3290   -0.1680    6.4990 C.2   317  3T4317      0.4084
     20  O20       -3.7970   -0.6660    5.5230 O.co2 317  3T4317     -0.2415
     21  O21       -3.7780   -0.1240    7.6300 O.co2 317  3T4317     -0.2415
     22  O22       -6.8300    1.4280   11.4740 O.2   317  3T4317     -0.2682
     23  C23       -3.2040    1.3600   11.7770 C.ar  317  3T4317     -0.0018
     24  C24       -2.1250    1.1170   12.6140 C.ar  317  3T4317      0.0117
     25  C25       -1.4140    2.1810   13.1530 C.ar  317  3T4317      0.0908
     26  C26       -0.4260    1.9120   13.9380 C.1   317  3T4317      0.1021
     27  N27        0.4640    1.6710   14.6460 N.1   317  3T4317     -0.1908
@<TRIPOS>BOND
     1    20    19   ar
     2    18    19    1
     3    18    17    1
     4    19    21   ar
     5    17    16    1
     6    15    16   ar
     7    15    14   ar
     8     2    14    1
     9    16    11   ar
    10    14    13   ar
    11    11    10    1
    12    11    12   ar
    13    13    12   ar
    14     9    10   am
    15     9     8    1
    16    10    22    2
    17     8     7    1
    18     7    23   ar
    19     7     6   ar
    20    23    24   ar
    21     6     1   ar
    22    24    25   ar
    23     1    25   ar
    24     1     3    1
    25     4     3    2
    26    25    26    1
    27     3     5    2
    28    26    27    3
