@<TRIPOS>MOLECULE
3t44_BE2_A_1.pdb
 10 10 0 0 0
SMALL
GASTEIGER

@<TRIPOS>ATOM
      1  C        -18.6800   -2.3290   11.1420 C.2   273  BE2273      0.3891
      2  O1       -18.1940   -2.8400   10.1260 O.co2 273  BE2273     -0.2405
      3  O2       -19.8100   -2.5940   11.5920 O.co2 273  BE2273     -0.2405
      4  C1       -17.8610   -1.2900   11.9010 C.ar  273  BE2273      0.0965
      5  C2       -16.5190   -1.0450   11.5990 C.ar  273  BE2273      0.0954
      6  C3       -15.8510   -0.0800   12.3320 C.ar  273  BE2273      0.0183
      7  N2       -15.8880   -1.7100   10.6330 N.pl3 273  BE2273     -0.1278
      8  C4       -16.4860    0.6330   13.3430 C.ar  273  BE2273      0.0014
      9  C5       -17.8090    0.3810   13.6510 C.ar  273  BE2273      0.0003
     10  C6       -18.4830   -0.5780   12.9200 C.ar  273  BE2273      0.0079
@<TRIPOS>BOND
     1     2     1   ar
     2     7     5    1
     3     1     3   ar
     4     1     4    1
     5     5     4   ar
     6     5     6   ar
     7     4    10   ar
     8     6     8   ar
     9    10     9   ar
    10     8     9   ar
