@<TRIPOS>MOLECULE
3t44_IGP_A_1.pdb
 19 20 0 0 0
SMALL
GASTEIGER

@<TRIPOS>ATOM
      1  C1       -13.8780   -4.3630    5.7350 C.3   300  IGP300      0.1895
      2  P        -16.1790   -5.1670    4.8680 P.3   300  IGP300      0.5327
      3  OP1      -15.4850   -5.6700    3.5160 O.2   300  IGP300     -0.2224
      4  OP2      -16.3150   -6.2810    5.8560 O.3   300  IGP300     -0.1145
      5  OP3      -17.5040   -4.3740    4.5810 O.3   300  IGP300     -0.1145
      6  OP4      -15.2200   -4.0280    5.4350 O.3   300  IGP300     -0.2674
      7  C2       -13.1820   -3.1960    6.5060 C.3   300  IGP300      0.2163
      8  O2       -13.1570   -2.0590    5.6470 O.3   300  IGP300     -0.2173
      9  C3       -13.9080   -2.8890    7.8350 C.3   300  IGP300      0.2084
     10  O3       -13.8940   -4.1070    8.6310 O.3   300  IGP300     -0.2154
     11  CG       -13.2550   -1.7180    8.6080 C.2   300  IGP300      0.0306
     12  CD2      -12.8270   -1.7210    9.9340 C.2   300  IGP300      0.0138
     13  CE2      -12.3230   -0.4450   10.1640 C.2   300  IGP300      0.0632
     14  CE3      -12.7960   -2.6570   10.9720 C.2   300  IGP300      0.0007
     15  CD1      -13.0280   -0.4990    8.0980 C.2   300  IGP300      0.0967
     16  NE1      -12.4710    0.2730    9.0480 N.2   300  IGP300     -0.2481
     17  CZ2      -11.8200   -0.1050   11.4140 C.3   300  IGP300      0.0717
     18  CZ3      -12.2790   -2.3050   12.2130 C.2   300  IGP300     -0.0042
     19  CH2      -11.7900   -1.0280   12.4480 C.2   300  IGP300     -0.0198
@<TRIPOS>BOND
     1     3     2    2
     2     5     2    1
     3     2     6    1
     4     2     4    1
     5     6     1    1
     6     8     7    1
     7     1     7    1
     8     7     9    1
     9     9    11    1
    10     9    10    1
    11    15    11    2
    12    15    16    1
    13    11    12    1
    14    16    13    2
    15    12    13    1
    16    12    14    2
    17    13    17    1
    18    14    18    1
    19    17    19    1
    20    18    19    2
