@<TRIPOS>MOLECULE
3t45_RET_A_1.pdb
 20 20 0 0 0
SMALL
GASTEIGER

@<TRIPOS>ATOM
      1  C1        -9.6820   -7.0150   21.2300 C.3   301  RET301      0.0183
      2  C2        -9.7710   -5.9800   20.1000 C.3   301  RET301      0.0044
      3  C3       -10.4650   -4.6870   20.4890 C.3   301  RET301      0.0047
      4  C4        -9.7810   -4.0350   21.6730 C.3   301  RET301      0.0217
      5  C5        -9.6040   -5.0250   22.8030 C.2   301  RET301     -0.0479
      6  C6        -9.4910   -6.3690   22.6300 C.2   301  RET301     -0.0307
      7  C7        -9.0700   -7.1340   23.8560 C.2   301  RET301     -0.0052
      8  C8        -8.8610   -8.4520   23.9770 C.2   301  RET301     -0.0049
      9  C9        -8.4400   -9.0530   25.2720 C.2   301  RET301     -0.0258
     10  C10       -8.2530  -10.3810   25.3050 C.2   301  RET301     -0.0257
     11  C11       -7.8470  -11.2290   26.4400 C.3   301  RET301      0.0510
     12  C12       -7.7490  -12.5130   26.1000 C.2   301  RET301     -0.0299
     13  C13       -7.3780  -13.6540   26.9560 C.2   301  RET301     -0.0478
     14  C14       -7.3590  -14.8740   26.3870 C.3   301  RET301      0.0217
     15  C15       -7.0150  -16.1230   27.0630 C.3   301  RET301      0.0047
     16  C16      -10.9420   -7.8580   21.2370 C.3   301  RET301      0.0043
     17  C17       -8.4310   -7.8410   20.8260 C.3   301  RET301      0.0043
     18  C18       -9.4240   -4.4110   24.1560 C.3   301  RET301      0.0260
     19  C19       -8.2190   -8.2450   26.5230 C.3   301  RET301      0.0307
     20  C20       -7.0250  -13.4530   28.4010 C.3   301  RET301      0.0260
@<TRIPOS>BOND
     1     2     3    1
     2     2     1    1
     3     3     4    1
     4    17     1    1
     5     1    16    1
     6     1     6    1
     7     4     5    1
     8     6     5    2
     9     6     7    1
    10     5    18    1
    11     7     8    2
    12     8     9    1
    13     9    10    2
    14     9    19    1
    15    10    11    1
    16    12    11    1
    17    12    13    2
    18    14    13    1
    19    14    15    1
    20    13    20    1
