@<TRIPOS>MOLECULE
3t4e_NAD_A_1.pdb
 44 48 0 0 0
SMALL
GASTEIGER

@<TRIPOS>ATOM
      1  PA        -0.9640   26.2460   17.7910 P.3   289  NAD289      0.2189
      2  O1A       -1.4550   26.3840   19.2050 O.3   289  NAD289     -0.4371
      3  O2A       -1.5640   27.0840   16.7260 O.2   289  NAD289     -0.5170
      4  O5B       -1.0550   24.7160   17.3500 O.3   289  NAD289     -0.3112
      5  C5B       -0.7490   23.6850   18.2980 C.3   289  NAD289      0.1813
      6  C4B       -0.6300   22.3220   17.6110 C.3   289  NAD289      0.1821
      7  O4B        0.0470   21.3400   18.4170 O.3   289  NAD289     -0.3135
      8  C3B       -1.9920   21.7010   17.3370 C.3   289  NAD289      0.2184
      9  O3B       -1.9290   21.0280   16.0910 O.3   289  NAD289     -0.2174
     10  C2B       -2.2190   20.6930   18.4370 C.3   289  NAD289      0.2570
     11  O2B       -3.1220   19.6820   18.0290 O.3   289  NAD289     -0.2130
     12  C1B       -0.7940   20.2030   18.6570 C.3   289  NAD289      0.3186
     13  N9A       -0.5180   19.7070   20.0130 N.pl3 289  NAD289     -0.1439
     14  C8A       -0.5030   20.4290   21.1540 C.3   289  NAD289      0.3377
     15  N7A       -0.2010   19.6480   22.2130 N.2   289  NAD289     -0.2095
     16  C5A        0.0100   18.4040   21.7530 C.2   289  NAD289      0.2526
     17  C6A        0.3610   17.1850   22.3010 C.2   289  NAD289      0.4393
     18  N6A        0.5710   17.0500   23.6220 N.pl3 289  NAD289      0.2180
     19  N1A        0.4850   16.1180   21.4930 N.2   289  NAD289      0.0021
     20  C2A        0.2700   16.1920   20.1720 C.3   289  NAD289      0.5254
     21  N3A       -0.0610   17.3420   19.5730 N.2   289  NAD289     -0.0055
     22  C4A       -0.1930   18.4610   20.2990 C.2   289  NAD289      0.3518
     23  O3         0.6360   26.3870   17.8360 O.3   289  NAD289     -0.2703
     24  PN         1.5270   27.0350   16.6650 P.3   289  NAD289      0.2189
     25  O1N        1.4470   28.5270   16.7300 O.3   289  NAD289     -0.4371
     26  O2N        1.2920   26.3830   15.3480 O.2   289  NAD289     -0.5170
     27  O5D        2.9700   26.6520   17.2670 O.3   289  NAD289     -0.3112
     28  C5D        3.4360   25.3140   17.3050 C.3   289  NAD289      0.1813
     29  C4D        4.9350   25.3180   17.5610 C.3   289  NAD289      0.1799
     30  O4D        5.6400   25.9720   16.4900 O.3   289  NAD289     -0.3327
     31  C3D        5.2930   26.0770   18.8230 C.3   289  NAD289      0.2158
     32  O3D        6.2490   25.3060   19.5470 O.3   289  NAD289     -0.2175
     33  C2D        5.8480   27.4020   18.3390 C.3   289  NAD289      0.2309
     34  O2D        6.8260   27.9620   19.2010 O.3   289  NAD289     -0.2158
     35  C1D        6.4900   26.9810   17.0350 C.3   289  NAD289      0.2263
     36  N1N        6.5930   27.9950   16.0100 N.pl3 289  NAD289     -0.2787
     37  C2N        7.8070   28.2900   15.5500 C.3   289  NAD289      0.1244
     38  C3N        7.9770   29.2070   14.5270 C.2   289  NAD289      0.0544
     39  C7N        9.3560   29.5420   14.0040 C.2   289  NAD289      0.2818
     40  O7N        9.5420   30.6050   13.4230 O.2   289  NAD289     -0.2670
     41  N7N       10.3510   28.6580   14.1500 N.am  289  NAD289     -0.0839
     42  C4N        6.8410   29.7960   13.9790 C.2   289  NAD289      0.0033
     43  C5N        5.5770   29.4540   14.4520 C.2   289  NAD289      0.0157
     44  C6N        5.4740   28.5330   15.4820 C.2   289  NAD289      0.0633
@<TRIPOS>BOND
     1    40    39    2
     2    42    43    1
     3    42    38    2
     4    39    41   am
     5    39    38    1
     6    43    44    2
     7    38    37    1
     8    26    24    2
     9    44    36    1
    10    37    36    1
    11    36    35    1
    12     9     8    1
    13    30    35    1
    14    30    29    1
    15    24    25    1
    16    24    27    1
    17    24    23    1
    18     3     1    2
    19    35    33    1
    20    27    28    1
    21    28    29    1
    22     8     6    1
    23     8    10    1
    24     4     1    1
    25     4     5    1
    26    29    31    1
    27     6     5    1
    28     6     7    1
    29     1    23    1
    30     1     2    1
    31    11    10    1
    32    33    31    1
    33    33    34    1
    34     7    12    1
    35    10    12    1
    36    12    13    1
    37    31    32    1
    38    21    20    1
    39    21    22    2
    40    13    22    1
    41    13    14    1
    42    20    19    1
    43    22    16    1
    44    14    15    1
    45    19    17    2
    46    16    15    2
    47    16    17    1
    48    17    18    1
