@<TRIPOS>MOLECULE
3t4h_MD5_B_1.pdb
 22 22 0 0 0
SMALL
GASTEIGER

@<TRIPOS>ATOM
      1  C         -4.1580    1.3920   -0.8140 C.2   217  MD5217      0.3851
      2  N         -3.2520    0.3820    1.1900 N.am  217  MD5217     -0.1853
      3  OXT       -4.4760    2.3710   -1.5030 O.co2 217  MD5217     -0.2437
      4  CA        -3.7560    1.6610    0.6620 C.3   217  MD5217      0.2090
      5  CB        -2.5490    2.6300    0.6760 C.3   217  MD5217      0.0911
      6  CAA       -2.8990   -1.2870    2.8840 C.2   217  MD5217      0.4419
      7  CAB       -3.4690    0.0420    2.4750 C.2   217  MD5217      0.3454
      8  OAH       -4.0980    0.7110    3.2780 O.2   217  MD5217     -0.2611
      9  OAI       -3.0490   -1.6930    4.0630 O.co2 217  MD5217     -0.2354
     10  OAJ       -2.3020   -1.9900    2.0410 O.co2 217  MD5217     -0.2354
     11  SAL       -1.6770    2.9870    2.2780 S.3   217  MD5217     -0.1330
     12  CAM       -2.7150    4.0820    3.2620 C.3   217  MD5217      0.0839
     13  CAN       -2.2250    4.2980    4.5690 C.ar  217  MD5217     -0.0097
     14  CAO       -1.1060    3.6620    5.1100 C.ar  217  MD5217     -0.0033
     15  CAP       -0.7140    3.9290    6.4330 C.ar  217  MD5217      0.0014
     16  CAQ       -1.4410    4.8210    7.2370 C.ar  217  MD5217      0.0241
     17  CAR       -2.5620    5.4530    6.6850 C.ar  217  MD5217      0.1426
     18  CAS       -2.9330    5.1740    5.3790 C.ar  217  MD5217      0.0207
     19  NAT       -3.3610    6.3270    7.3040 N.pl3 217  MD5217      0.0577
     20  OAU       -3.1520    6.6820    8.5050 O.2   217  MD5217     -0.1261
     21  OAV       -4.4630    6.8510    6.5510 O.2   217  MD5217     -0.1261
     22  O         -4.1060    0.2190   -1.2520 O.co2 217  MD5217     -0.2437
@<TRIPOS>BOND
     1     3     1   ar
     2    22     1   ar
     3     1     4    1
     4     4     5    1
     5     4     2    1
     6     5    11    1
     7     2     7   am
     8    10     6   ar
     9    11    12    1
    10     7     6    1
    11     7     8    2
    12     6     9   ar
    13    12    13    1
    14    13    14   ar
    15    13    18   ar
    16    14    15   ar
    17    18    17   ar
    18    15    16   ar
    19    21    19    2
    20    17    16   ar
    21    17    19    1
    22    19    20    2
