@<TRIPOS>MOLECULE
3t4j_ZIP_A_1.pdb
 15 16 0 0 0
SMALL
GASTEIGER

@<TRIPOS>ATOM
      1  C14        4.3920   20.9240   21.3920 C.3   400  ZIP400      0.0262
      2  C13        5.4210   20.1000   22.1070 C.2   400  ZIP400     -0.0437
      3  C15        6.2570   19.1390   21.3010 C.3   400  ZIP400      0.0262
      4  C12        5.7070   20.2830   23.5420 C.2   400  ZIP400      0.0201
      5  C11        4.8430   21.1230   24.4480 C.3   400  ZIP400      0.2770
      6  N10        5.7340   21.8030   25.3490 N.pl3 400  ZIP400     -0.0246
      7  C6         5.2960   22.9230   26.1300 C.2   400  ZIP400      0.3858
      8  C5         6.1690   23.6640   26.9640 C.2   400  ZIP400      0.2255
      9  N9         7.5140   23.6450   27.2560 N.2   400  ZIP400     -0.2268
     10  C4         5.6290   24.7340   27.6990 C.1   400  ZIP400      0.0578
     11  N7         6.6460   25.3510   28.3880 N.2   400  ZIP400     -0.1914
     12  C8         7.7860   24.6900   28.1200 C.3   400  ZIP400      0.2618
     13  N3         4.3160   24.9720   27.6480 N.2   400  ZIP400     -0.1640
     14  C2         3.5140   24.2870   26.8440 C.3   400  ZIP400      0.4006
     15  N1         3.9590   23.2270   26.1420 N.2   400  ZIP400     -0.0304
@<TRIPOS>BOND
     1     3     2    1
     2     1     2    1
     3     2     4    2
     4     4     5    1
     5     5     6    1
     6     6     7    1
     7     7    15    2
     8     7     8    1
     9    15    14    1
    10    14    13    1
    11     8     9    2
    12     8    10    1
    13     9    12    1
    14    13    10    2
    15    10    11    2
    16    12    11    1
