@<TRIPOS>MOLECULE
3t4k_EMU_A_1.pdb
 17 19 0 0 0
SMALL
GASTEIGER

@<TRIPOS>ATOM
      1  N1         3.8600   23.3650   26.4600 N.2   400  EMU400     -0.0304
      2  C2         3.4730   24.5290   27.0230 C.3   400  EMU400      0.4006
      3  N3         4.3740   25.2320   27.7090 N.2   400  EMU400     -0.1640
      4  C4         5.6700   24.9270   27.6390 C.1   400  EMU400      0.0578
      5  C5         6.1130   23.7120   27.0400 C.2   400  EMU400      0.2255
      6  C6         5.1570   22.9870   26.3270 C.2   400  EMU400      0.3858
      7  C9         4.4520   21.0630   24.8920 C.3   400  EMU400      0.2778
      8  N7         7.4860   23.5810   27.2640 N.2   400  EMU400     -0.2268
      9  C8         7.8660   24.6670   27.9720 C.3   400  EMU400      0.2618
     10  N9         6.7840   25.4390   28.2770 N.2   400  EMU400     -0.1914
     11  C10        4.8560   20.6280   23.5000 C.ar  400  EMU400      0.0285
     12  C11        4.2100   21.1300   22.3920 C.ar  400  EMU400     -0.0002
     13  C12        4.5570   20.7160   21.0980 C.ar  400  EMU400     -0.0002
     14  C13        5.5530   19.7340   20.9710 C.ar  400  EMU400     -0.0000
     15  C14        6.1980   19.2180   22.0550 C.ar  400  EMU400     -0.0002
     16  C15        5.8440   19.6370   23.3470 C.ar  400  EMU400     -0.0002
     17  N10        5.4930   21.7750   25.6330 N.pl3 400  EMU400     -0.0245
@<TRIPOS>BOND
     1    14    13   ar
     2    14    15   ar
     3    13    12   ar
     4    15    16   ar
     5    12    11   ar
     6    16    11   ar
     7    11     7    1
     8     7    17    1
     9    17     6    1
    10     6     1    2
    11     6     5    1
    12     1     2    1
    13     2     3    1
    14     5     8    2
    15     5     4    1
    16     8     9    1
    17     4     3    2
    18     4    10    2
    19     9    10    1
