@<TRIPOS>MOLECULE
3t4l_ZEA_A_1.pdb
 16 17 0 0 0
SMALL
GASTEIGER

@<TRIPOS>ATOM
      1  O16        6.6100   17.9150   22.3380 O.3   400  ZEA400     -0.2155
      2  C14        5.9750   18.8670   21.5370 C.3   400  ZEA400      0.2042
      3  C13        5.3200   20.0360   22.2250 C.2   400  ZEA400     -0.0115
      4  C15        4.3810   20.8580   21.3900 C.3   400  ZEA400      0.0288
      5  C12        5.4520   20.1590   23.5820 C.2   400  ZEA400      0.0226
      6  C11        4.7270   21.1720   24.4100 C.3   400  ZEA400      0.2771
      7  N10        5.6400   21.8360   25.3020 N.pl3 400  ZEA400     -0.0246
      8  C6         5.1870   22.9560   26.0770 C.2   400  ZEA400      0.3858
      9  C5         6.0790   23.7030   26.8880 C.2   400  ZEA400      0.2255
     10  N9         7.4420   23.6460   27.1580 N.2   400  ZEA400     -0.2268
     11  C4         5.5680   24.7830   27.6040 C.1   400  ZEA400      0.0578
     12  N7         6.5880   25.3390   28.2980 N.2   400  ZEA400     -0.1914
     13  C8         7.7280   24.6920   27.9780 C.3   400  ZEA400      0.2618
     14  N3         4.2040   25.0140   27.6020 N.2   400  ZEA400     -0.1640
     15  C2         3.4250   24.3030   26.7920 C.3   400  ZEA400      0.4006
     16  N1         3.8640   23.2630   26.0570 N.2   400  ZEA400     -0.0304
@<TRIPOS>BOND
     1     4     3    1
     2     2     3    1
     3     2     1    1
     4     3     5    2
     5     5     6    1
     6     6     7    1
     7     7     8    1
     8    16     8    2
     9    16    15    1
    10     8     9    1
    11    15    14    1
    12     9    10    2
    13     9    11    1
    14    10    13    1
    15    14    11    2
    16    11    12    2
    17    13    12    1
