@<TRIPOS>MOLECULE
3t4n_ADP_C_1.pdb
 27 29 0 0 0
SMALL
GASTEIGER

@<TRIPOS>ATOM
      1  PB       -29.1960   64.4980   -0.4530 P.3   324  ADP324      0.5373
      2  O1B      -30.3820   65.1050    0.2520 O.3   324  ADP324     -0.1143
      3  O2B      -27.9540   64.3820    0.3990 O.3   324  ADP324     -0.1143
      4  O3B      -29.5270   63.2880   -1.2910 O.2   324  ADP324     -0.2221
      5  PA       -27.5150   65.4970   -2.5280 P.3   324  ADP324      0.2231
      6  O1A      -28.0350   65.7100   -3.9250 O.2   324  ADP324     -0.5169
      7  O2A      -26.6860   64.2710   -2.2520 O.3   324  ADP324     -0.4370
      8  O3A      -28.7840   65.6090   -1.5410 O.3   324  ADP324     -0.2261
      9  O5'      -26.6500   66.7880   -2.1040 O.3   324  ADP324     -0.3111
     10  C5'      -26.1000   66.9940   -0.7990 C.3   324  ADP324      0.1813
     11  C4'      -25.7910   68.4850   -0.6070 C.3   324  ADP324      0.1821
     12  O4'      -25.2160   69.0370   -1.8000 O.3   324  ADP324     -0.3135
     13  C3'      -27.0240   69.3280   -0.3150 C.3   324  ADP324      0.2184
     14  O3'      -26.6700   70.3960    0.5710 O.3   324  ADP324     -0.2174
     15  C2'      -27.4140   69.9030   -1.6630 C.3   324  ADP324      0.2570
     16  O2'      -28.0380   71.1860   -1.5620 O.3   324  ADP324     -0.2130
     17  C1'      -26.0870   70.0000   -2.4020 C.3   324  ADP324      0.3186
     18  N9       -26.2120   69.7010   -3.8520 N.pl3 324  ADP324     -0.1439
     19  C8       -27.0320   68.8070   -4.4520 C.3   324  ADP324      0.3377
     20  N7       -26.8590   68.8150   -5.7970 N.2   324  ADP324     -0.2095
     21  C5       -25.9090   69.7300   -6.0670 C.2   324  ADP324      0.2526
     22  C6       -25.2310   70.2450   -7.2770 C.2   324  ADP324      0.4393
     23  N6       -25.5590   69.7650   -8.4970 N.pl3 324  ADP324      0.2180
     24  N1       -24.2830   71.2030   -7.1180 N.2   324  ADP324      0.0021
     25  C2       -23.9510   71.6960   -5.9070 C.3   324  ADP324      0.5254
     26  N3       -24.5190   71.2710   -4.7630 N.2   324  ADP324     -0.0055
     27  C4       -25.4830   70.3110   -4.7840 C.2   324  ADP324      0.3518
@<TRIPOS>BOND
     1    23    22    1
     2    22    24    2
     3    22    21    1
     4    24    25    1
     5    21    20    2
     6    21    27    1
     7    25    26    1
     8    20    19    1
     9    27    26    2
    10    27    18    1
    11    19    18    1
    12     6     5    2
    13    18    17    1
    14     5     7    1
    15     5     9    1
    16     5     8    1
    17    17    12    1
    18    17    15    1
    19     9    10    1
    20    12    11    1
    21    15    16    1
    22    15    13    1
    23     8     1    1
    24     4     1    2
    25    10    11    1
    26    11    13    1
    27     1     2    1
    28     1     3    1
    29    13    14    1
