@<TRIPOS>MOLECULE
3t4o_WA2_A_1.pdb
 16 17 0 0 0
SMALL
GASTEIGER

@<TRIPOS>ATOM
      1  N1         3.8390   23.1640   26.1910 N.2   400  WA2400     -0.0304
      2  C2         3.3660   24.2200   26.9100 C.3   400  WA2400      0.4006
      3  N3         4.1670   24.9670   27.6720 N.2   400  WA2400     -0.1640
      4  C4         5.4790   24.7150   27.7140 C.1   400  WA2400      0.0578
      5  C5         6.0260   23.6200   26.9880 C.2   400  WA2400      0.2255
      6  C6         5.1560   22.8460   26.2130 C.2   400  WA2400      0.3854
      7  N6         5.6190   21.7560   25.4390 N.pl3 400  WA2400     -0.0297
      8  N7         7.3950   23.6120   27.2610 N.2   400  WA2400     -0.2268
      9  C8         7.6630   24.6660   28.1210 C.3   400  WA2400      0.2618
     10  N9         6.5210   25.3140   28.3790 N.2   400  WA2400     -0.1914
     11  CAA        4.2470   20.9380   21.5670 C.3   400  WA2400      0.0028
     12  OAB        6.3360   17.9980   22.0660 O.3   400  WA2400     -0.2204
     13  CAE        6.0190   19.1990   21.4610 C.3   400  WA2400      0.1822
     14  CAF        4.7440   21.0520   24.5490 C.3   400  WA2400      0.2513
     15  CAG        5.6310   20.2810   23.6200 C.3   400  WA2400      0.0580
     16  CAP        4.9960   19.8660   22.3400 C.3   400  WA2400      0.0373
@<TRIPOS>BOND
     1    13    12    1
     2    13    16    1
     3    11    16    1
     4    16    15    1
     5    15    14    1
     6    14     7    1
     7     7     6    1
     8     1     6    2
     9     1     2    1
    10     6     5    1
    11     2     3    1
    12     5     8    2
    13     5     4    1
    14     8     9    1
    15     3     4    2
    16     4    10    2
    17     9    10    1
