@<TRIPOS>MOLECULE
3t4p_III_B_1.pdb
 37 38 0 0 0
SMALL
GASTEIGER

@<TRIPOS>ATOM
      1  N        -20.2060   -0.2040   13.0130 N.3     1  ASP1       -0.1225
      2  CA       -20.6690   -0.0310   11.5950 C.3     1  ASP1        0.1805
      3  C        -19.6890    0.9030   10.8080 C.2     1  ASP1        0.2598
      4  O        -18.4360    0.8270   10.9610 O.2     1  ASP1       -0.2718
      5  CB       -22.1190    0.5660   11.5530 C.3     1  ASP1        0.1424
      6  CG       -22.9120    0.1590   10.2830 C.2     1  ASP1        0.3668
      7  OD1      -22.3780    0.1710    9.1500 O.co2   1  ASP1       -0.2456
      8  OD2      -24.0920   -0.1970   10.4150 O.co2   1  ASP1       -0.2456
      9  N        -20.2680    1.7820    9.9710 N.am    2  TRP2       -0.1962
     10  CA       -19.7180    1.8400    8.6190 C.3     2  TRP2        0.1768
     11  C        -18.5530    2.7490    8.4690 C.2     2  TRP2        0.2620
     12  O        -18.3730    3.7290    9.2360 O.2     2  TRP2       -0.2715
     13  CB       -20.7520    1.9940    7.5130 C.3     2  TRP2        0.0553
     14  CG       -21.5630    3.1130    7.7690 C.2     2  TRP2       -0.0136
     15  CD1      -22.6790    3.1800    8.6210 C.2     2  TRP2        0.0907
     16  CD2      -21.3330    4.4180    7.2910 C.3     2  TRP2        0.0819
     17  NE1      -23.1570    4.4610    8.6360 N.2     2  TRP2       -0.2482
     18  CE2      -22.3540    5.2440    7.8330 C.2     2  TRP2        0.0665
     19  CE3      -20.3870    4.9770    6.4190 C.2     2  TRP2       -0.0164
     20  CZ2      -22.4350    6.5980    7.5510 C.2     2  TRP2        0.0153
     21  CZ3      -20.4700    6.3090    6.1440 C.2     2  TRP2       -0.0038
     22  CH2      -21.4950    7.1120    6.6900 C.2     2  TRP2        0.0009
     23  N        -17.7020    2.3240    7.5440 N.am    3  SER3       -0.1936
     24  CA       -16.4540    2.9560    7.3910 C.3     3  SER3        0.2055
     25  C        -16.2440    3.0210    5.8820 C.2     3  SER3        0.2644
     26  O        -15.9120    1.9950    5.2580 O.2     3  SER3       -0.2714
     27  CB       -15.3660    2.1130    8.0410 C.3     3  SER3        0.2130
     28  OG       -14.1560    2.8130    7.9080 O.3     3  SER3       -0.2179
     29  N        -16.5130    4.1920    5.3140 N.am    4  ILE4       -0.1941
     30  CA       -16.5600    4.2950    3.8020 C.3     4  ILE4        0.1977
     31  C        -15.8560    5.6430    3.3970 C.2     4  ILE4        0.3842
     32  O        -16.3460    6.7480    3.8180 O.co2   4  ILE4       -0.2437
     33  CB       -18.0570    4.2330    3.2670 C.3     4  ILE4        0.0311
     34  CG1      -18.6850    2.8400    3.5400 C.3     4  ILE4        0.0023
     35  CG2      -18.0840    4.5690    1.6980 C.3     4  ILE4        0.0023
     36  CD1      -20.2490    2.7180    3.1590 C.3     4  ILE4        0.0001
     37  OXT      -14.8440    5.5730    2.6160 O.co2   4  ILE4       -0.2437
@<TRIPOS>BOND
     1    35    33    1
     2    37    31   ar
     3    36    34    1
     4    33    34    1
     5    33    30    1
     6    31    30    1
     7    31    32   ar
     8    30    29    1
     9    26    25    2
    10    29    25   am
    11    25    24    1
    12    21    19    2
    13    21    22    1
    14    19    16    1
    15    22    20    2
    16    16    14    1
    17    16    18    1
    18    24    23    1
    19    24    27    1
    20    13    14    1
    21    13    10    1
    22    23    11   am
    23    20    18    1
    24    14    15    2
    25    18    17    2
    26    28    27    1
    27    11    10    1
    28    11    12    2
    29    10     9    1
    30    15    17    1
    31     7     6   ar
    32     9     3   am
    33     6     8   ar
    34     6     5    1
    35     3     4    2
    36     3     2    1
    37     5     2    1
    38     2     1    1
