@<TRIPOS>MOLECULE
3t4q_ZEA_A_1.pdb
 16 17 0 0 0
SMALL
GASTEIGER

@<TRIPOS>ATOM
      1  O16        6.5470   17.8500   22.2420 O.2   400  ZEA400     -0.2838
      2  C14        5.7540   18.7160   21.5070 C.2   400  ZEA400      0.2258
      3  C13        5.0490   19.8210   22.2570 C.2   400  ZEA400      0.0025
      4  C15        4.4120   20.9210   21.4870 C.3   400  ZEA400      0.0299
      5  C12        5.3520   20.0270   23.6020 C.3   400  ZEA400      0.0807
      6  C11        4.6100   21.0900   24.3870 C.3   400  ZEA400      0.2557
      7  N10        5.5010   21.6660   25.3830 N.pl3 400  ZEA400     -0.0293
      8  C6         5.0710   22.8280   26.1570 C.2   400  ZEA400      0.3854
      9  C5         6.0180   23.5760   26.9220 C.2   400  ZEA400      0.2255
     10  N9         7.3810   23.4630   27.1350 N.2   400  ZEA400     -0.2268
     11  C4         5.5860   24.6650   27.6360 C.1   400  ZEA400      0.0578
     12  N7         6.6870   25.2070   28.2790 N.2   400  ZEA400     -0.1914
     13  C8         7.7640   24.4630   27.9620 C.3   400  ZEA400      0.2618
     14  N3         4.2450   25.0060   27.5970 N.2   400  ZEA400     -0.1640
     15  C2         3.3660   24.2830   26.8670 C.3   400  ZEA400      0.4006
     16  N1         3.7730   23.2040   26.1540 N.2   400  ZEA400     -0.0304
@<TRIPOS>BOND
     1     4     3    1
     2     2     1    1
     3     2     3    2
     4     3     5    1
     5     5     6    1
     6     6     7    1
     7     7     8    1
     8    16     8    2
     9    16    15    1
    10     8     9    1
    11    15    14    1
    12     9    10    2
    13     9    11    1
    14    10    13    1
    15    14    11    2
    16    11    12    2
    17    13    12    1
