@<TRIPOS>MOLECULE
3t4s_H35_A_1.pdb
 16 18 0 0 0
SMALL
GASTEIGER

@<TRIPOS>ATOM
      1  CAM        4.3750   20.5770   22.0310 C.ar  400  H35400      0.0406
      2  CAO        5.1220   19.8580   21.1440 C.ar  400  H35400      0.0436
      3  CAN        6.0980   19.2050   21.8110 C.ar  400  H35400      0.1793
      4  OAL        5.9490   19.5190   23.1840 O.2   400  H35400     -0.4504
      5  CAK        4.9490   20.4440   23.2620 C.ar  400  H35400      0.1743
      6  CAP        4.4400   20.9340   24.6120 C.3   400  H35400      0.3147
      7  N6         5.4370   21.6730   25.3440 N.pl3 400  H35400     -0.0211
      8  C6         5.0610   22.7340   26.1500 C.2   400  H35400      0.3859
      9  N1         3.7270   23.0570   26.1650 N.2   400  H35400     -0.0304
     10  C2         3.3290   24.1060   26.9070 C.3   400  H35400      0.4006
     11  N3         4.1550   24.8340   27.6470 N.2   400  H35400     -0.1640
     12  C4         5.4710   24.5960   27.6550 C.1   400  H35400      0.0578
     13  C5         5.9630   23.4910   26.8920 C.2   400  H35400      0.2255
     14  N7         7.3420   23.4510   27.1170 N.2   400  H35400     -0.2268
     15  C8         7.6490   24.4830   27.9750 C.3   400  H35400      0.2618
     16  N9         6.5250   25.1600   28.2920 N.2   400  H35400     -0.1914
@<TRIPOS>BOND
     1     2     3   ar
     2     2     1   ar
     3     3     4   ar
     4     1     5   ar
     5     4     5   ar
     6     5     6    1
     7     6     7    1
     8     7     8    1
     9     8     9    2
    10     8    13    1
    11     9    10    1
    12    13    14    2
    13    13    12    1
    14    10    11    1
    15    14    15    1
    16    11    12    2
    17    12    16    2
    18    15    16    1
