@<TRIPOS>MOLECULE
3t4t_WA1_A_1.pdb
 15 16 0 0 0
SMALL
GASTEIGER

@<TRIPOS>ATOM
      1  OAA        4.3530   22.7500   24.7570 O.2   400  WA1400     -0.2484
      2  CAB        4.9320   19.6120   20.6090 C.ar  400  WA1400      0.0001
      3  CAC        4.3020   20.7390   21.0560 C.ar  400  WA1400      0.0013
      4  CAD        5.9400   19.0320   21.3770 C.ar  400  WA1400      0.0013
      5  CAE        4.6590   21.3270   22.2480 C.ar  400  WA1400      0.0167
      6  CAF        6.2800   19.5960   22.5510 C.ar  400  WA1400      0.0167
      7  CAG        6.7970   24.3860   27.8260 C.ar  400  WA1400      0.1474
      8  NAH        6.1320   25.3600   28.4080 N.ar  400  WA1400     -0.1374
      9  NAI        4.7860   25.3940   28.0950 N.ar  400  WA1400     -0.1080
     10  NAJ        6.1180   21.3130   24.2110 N.am  400  WA1400     -0.1607
     11  NAK        6.3860   22.7620   25.9790 N.am  400  WA1400     -0.1509
     12  SAL        4.3810   24.3500   26.9000 S.2   400  WA1400      0.0542
     13  CAM        5.5150   22.3370   24.9540 C.2   400  WA1400      0.3483
     14  CAN        5.6560   20.7180   23.0410 C.ar  400  WA1400      0.0750
     15  CAO        6.0460   23.7520   26.8740 C.ar  400  WA1400      0.1445
@<TRIPOS>BOND
     1     2     3   ar
     2     2     4   ar
     3     3     5   ar
     4     4     6   ar
     5     5    14   ar
     6     6    14   ar
     7    14    10    1
     8    10    13   am
     9     1    13    2
    10    13    11   am
    11    11    15    1
    12    15    12   ar
    13    15     7   ar
    14    12     9   ar
    15     7     8   ar
    16     9     8   ar
