@<TRIPOS>MOLECULE
3t4v_MD3_A_1.pdb
 23 24 0 0 0
SMALL
GASTEIGER

@<TRIPOS>ATOM
      1  C16       -1.7340    5.2050    6.3600 C.ar  401  MD3401     -0.0000
      2  N         -3.3650    0.5850    1.0330 N.am  401  MD3401     -0.1853
      3  O05       -1.5000   -1.2090    1.8320 O.co2 401  MD3401     -0.2354
      4  SG        -3.0860    3.9080    0.1400 S.3   401  MD3401     -0.1330
      5  C01       -2.1510   -0.6860    2.7790 C.2   401  MD3401      0.4419
      6  OXT       -4.1270    0.0620   -1.4300 O.co2 401  MD3401     -0.2437
      7  C02       -3.2460    0.2300    2.4010 C.2   401  MD3401      0.3454
      8  O         -4.7060    2.1220   -1.7700 O.co2 401  MD3401     -0.2437
      9  CA        -4.3950    1.4060    0.4960 C.3   401  MD3401      0.2090
     10  O03       -4.0120    0.6340    3.2280 O.2   401  MD3401     -0.2611
     11  C         -4.4070    1.1960   -0.9840 C.2   401  MD3401      0.3851
     12  O04       -1.9180   -0.9550    3.9970 O.co2 401  MD3401     -0.2354
     13  CB        -4.3410    2.8650    0.8490 C.3   401  MD3401      0.0911
     14  C06       -2.6680    4.9440    1.5220 C.3   401  MD3401      0.0838
     15  C07       -2.0630    4.3640    2.7620 C.ar  401  MD3401     -0.0113
     16  C08       -1.3280    3.1830    2.7080 C.ar  401  MD3401     -0.0034
     17  C09       -0.7400    2.6940    3.8680 C.ar  401  MD3401     -0.0003
     18  C10       -0.8740    3.3530    5.0910 C.ar  401  MD3401     -0.0000
     19  C11       -2.1910    5.0380    3.9700 C.ar  401  MD3401     -0.0034
     20  C12       -1.5940    4.5390    5.1390 C.ar  401  MD3401     -0.0003
     21  C13       -0.2890    2.8320    6.2630 C.ar  401  MD3401     -0.0000
     22  C14       -0.4140    3.5120    7.4730 C.ar  401  MD3401     -0.0000
     23  C15       -1.1550    4.7010    7.5180 C.ar  401  MD3401     -0.0000
@<TRIPOS>BOND
     1     8    11   ar
     2     6    11   ar
     3    11     9    1
     4     4    13    1
     5     4    14    1
     6     9    13    1
     7     9     2    1
     8     2     7   am
     9    14    15    1
    10     3     5   ar
    11     7     5    1
    12     7    10    2
    13    16    15   ar
    14    16    17   ar
    15    15    19   ar
    16     5    12   ar
    17    17    18   ar
    18    19    20   ar
    19    18    20   ar
    20    18    21   ar
    21    20     1   ar
    22    21    22   ar
    23     1    23   ar
    24    22    23   ar
