@<TRIPOS>MOLECULE
3t50_FMN_A_1.pdb
 31 33 0 0 0
SMALL
GASTEIGER

@<TRIPOS>ATOM
      1  N1         3.6350  -11.9300  -24.8590 N.2   200  FMN200     -0.2887
      2  C2         3.2930  -10.6140  -24.6400 C.1   200  FMN200      0.3669
      3  O2         2.6870  -10.0010  -25.4850 O.2   200  FMN200     -0.1744
      4  N3         3.6250   -9.9730  -23.4560 N.2   200  FMN200     -0.2300
      5  C4         4.3190  -10.6010  -22.4640 C.1   200  FMN200      0.2513
      6  O4         4.5530   -9.9590  -21.4410 O.2   200  FMN200     -0.2057
      7  C4A        4.6720  -11.9290  -22.6700 C.2   200  FMN200      0.2706
      8  N5         5.3750  -12.6060  -21.6930 N.2   200  FMN200     -0.3841
      9  C5A        5.7280  -13.9060  -21.9420 C.2   200  FMN200      0.1452
     10  C6         6.4500  -14.5620  -20.9480 C.2   200  FMN200      0.0252
     11  C7         6.8040  -15.8900  -21.1590 C.2   200  FMN200     -0.0375
     12  C7M        7.5800  -16.6180  -20.0760 C.3   200  FMN200      0.0268
     13  C8         6.4470  -16.5530  -22.3480 C.3   200  FMN200      0.0417
     14  C8M        6.8550  -17.9970  -22.5780 C.3   200  FMN200      0.0091
     15  C9         5.7280  -15.8890  -23.3570 C.2   200  FMN200     -0.0049
     16  C9A        5.3660  -14.5520  -23.1440 C.2   200  FMN200      0.0795
     17  N10        4.6500  -13.8710  -24.1150 N.pl3 200  FMN200     -0.2545
     18  C10        4.3050  -12.5620  -23.8640 C.2   200  FMN200      0.2449
     19  C1'        4.3070  -14.4520  -25.4620 C.3   200  FMN200      0.1336
     20  C2'        2.9910  -15.1630  -25.6650 C.3   200  FMN200      0.2048
     21  O2'        2.7820  -15.9880  -24.5440 O.3   200  FMN200     -0.2185
     22  C3'        3.1180  -16.0250  -26.9470 C.3   200  FMN200      0.2165
     23  O3'        4.2940  -16.8640  -26.8570 O.3   200  FMN200     -0.2175
     24  C4'        3.2580  -15.1740  -28.2050 C.3   200  FMN200      0.2147
     25  O4'        2.0680  -14.4000  -28.3360 O.3   200  FMN200     -0.2176
     26  C5'        3.5270  -16.0300  -29.4720 C.3   200  FMN200      0.1892
     27  O5'        2.6220  -17.1120  -29.5370 O.3   200  FMN200     -0.2674
     28  P          1.1580  -17.1000  -30.1900 P.3   200  FMN200      0.5327
     29  O1P        1.3440  -16.8180  -31.6810 O.2   200  FMN200     -0.2224
     30  O2P        0.5440  -18.4390  -29.9250 O.3   200  FMN200     -0.1145
     31  O3P        0.3020  -16.0020  -29.5850 O.3   200  FMN200     -0.1145
@<TRIPOS>BOND
     1    29    28    2
     2    28    30    1
     3    28    31    1
     4    28    27    1
     5    27    26    1
     6    26    24    1
     7    25    24    1
     8    24    22    1
     9    22    23    1
    10    22    20    1
    11    20    19    1
    12    20    21    1
    13     3     2    2
    14    19    17    1
    15     1     2    2
    16     1    18    2
    17     2     4    2
    18    17    18    1
    19    17    16    1
    20    18     7    1
    21     4     5    2
    22    15    16    2
    23    15    13    1
    24    16     9    1
    25     7     5    1
    26     7     8    2
    27    14    13    1
    28     5     6    2
    29    13    11    1
    30     9     8    2
    31     9    10    1
    32    11    10    2
    33    11    12    1
