@<TRIPOS>MOLECULE
3t54_ATP_A_1.pdb
 31 33 0 0 0
SMALL
GASTEIGER

@<TRIPOS>ATOM
      1  PG         2.4290   13.4300    9.3680 P.3   401  ATP401      0.5373
      2  O1G        3.6620   13.8170    8.4080 O.2   401  ATP401     -0.2221
      3  O2G        2.2870   14.4350   10.4530 O.3   401  ATP401     -0.1143
      4  O3G        1.0630   13.3570    8.5060 O.3   401  ATP401     -0.1143
      5  PB         1.9370   10.5570    9.8560 P.3   401  ATP401      0.2277
      6  O1B        1.1600   10.2610   11.0770 O.3   401  ATP401     -0.4368
      7  O2B        1.2390   10.5060    8.5470 O.2   401  ATP401     -0.5168
      8  O3B        2.7740   11.9140   10.0290 O.3   401  ATP401     -0.2258
      9  PA         4.2930    9.0500    8.9540 P.3   401  ATP401      0.2189
     10  O1A        3.9170    8.0370    7.9640 O.2   401  ATP401     -0.5170
     11  O2A        4.8870   10.3230    8.5150 O.3   401  ATP401     -0.4371
     12  O3A        3.0220    9.3420    9.9170 O.3   401  ATP401     -0.2700
     13  O5'        5.2580    8.4480   10.0450 O.3   401  ATP401     -0.3112
     14  C5'        5.7720    9.2940   11.1140 C.3   401  ATP401      0.1813
     15  C4'        7.2970    9.2750   11.1770 C.3   401  ATP401      0.1821
     16  O4'        7.6750    7.8960   11.3640 O.3   401  ATP401     -0.3135
     17  C3'        7.9570    9.6550    9.8540 C.3   401  ATP401      0.2184
     18  O3'        8.0870   11.0540    9.7450 O.3   401  ATP401     -0.2174
     19  C2'        9.3220    8.9890   10.0080 C.3   401  ATP401      0.2570
     20  O2'       10.2100    9.7140   10.8980 O.3   401  ATP401     -0.2130
     21  C1'        8.9360    7.6830   10.6850 C.3   401  ATP401      0.3186
     22  N9         8.7370    6.6270    9.6680 N.pl3 401  ATP401     -0.1439
     23  C8         7.4600    6.3370    9.0140 C.3   401  ATP401      0.3377
     24  N7         7.7440    5.0980    8.3050 N.2   401  ATP401     -0.2095
     25  C5         9.0460    4.8430    8.4040 C.2   401  ATP401      0.2526
     26  C6         9.8340    3.8400    7.8700 C.2   401  ATP401      0.4393
     27  N6         9.2960    2.9210    7.0750 N.pl3 401  ATP401      0.2180
     28  N1        11.1470    3.8050    8.1760 N.2   401  ATP401      0.0021
     29  C2        11.7050    4.7230    8.9600 C.3   401  ATP401      0.5254
     30  N3        10.9810    5.6910    9.5100 N.2   401  ATP401     -0.0055
     31  C4         9.6560    5.7760    9.2440 C.2   401  ATP401      0.3518
@<TRIPOS>BOND
     1    27    26    1
     2    26    28    2
     3    26    25    1
     4    10     9    2
     5    28    29    1
     6    24    25    2
     7    24    23    1
     8    25    31    1
     9     2     1    2
    10     4     1    1
    11    11     9    1
    12     7     5    2
    13     9    12    1
    14     9    13    1
    15    29    30    1
    16    23    22    1
    17    31    30    2
    18    31    22    1
    19     1     8    1
    20     1     3    1
    21    22    21    1
    22    18    17    1
    23    17    19    1
    24    17    15    1
    25     5    12    1
    26     5     8    1
    27     5     6    1
    28    19    21    1
    29    19    20    1
    30    13    14    1
    31    21    16    1
    32    14    15    1
    33    15    16    1
