@<TRIPOS>MOLECULE
3t55_4RG_A_1.pdb
 17 18 0 0 0
SMALL
GASTEIGER

@<TRIPOS>ATOM
      1  CAA      -19.1020    2.6020  -11.4470 C.2   273  4RG273      0.3877
      2  CAB      -17.9690    1.6320  -11.7960 C.ar  273  4RG273      0.0796
      3  CAC      -16.8220    1.6410  -11.0130 C.ar  273  4RG273      0.0059
      4  CAD      -15.7660    0.7870  -11.3110 C.ar  273  4RG273      0.0214
      5  CAE      -15.8390   -0.0700  -12.3980 C.ar  273  4RG273     -0.0007
      6  CAF      -16.9900   -0.1010  -13.1930 C.ar  273  4RG273      0.0000
      7  CAG      -18.0480    0.7590  -12.8870 C.ar  273  4RG273      0.0066
      8  OAH      -18.9480    3.3820  -10.4650 O.co2 273  4RG273     -0.2406
      9  OAI      -20.0720    2.6540  -12.2310 O.co2 273  4RG273     -0.2406
     10  CAJ      -14.6150    0.8410  -10.5140 C.3   273  4RG273      0.2320
     11  OAK      -13.3650    0.2530  -10.9760 O.3   273  4RG273     -0.4706
     12  CAL      -12.6530    0.9580  -11.8790 C.ar  273  4RG273      0.1391
     13  CAM      -12.9310    2.2730  -12.1490 C.ar  273  4RG273      0.0369
     14  CAN      -12.1700    2.9710  -13.0540 C.ar  273  4RG273      0.0031
     15  CAO      -11.1120    2.3500  -13.7000 C.ar  273  4RG273      0.0002
     16  CAP      -10.8420    1.0140  -13.4140 C.ar  273  4RG273      0.0031
     17  CAQ      -11.5950    0.3290  -12.4850 C.ar  273  4RG273      0.0369
@<TRIPOS>BOND
     1    15    16   ar
     2    15    14   ar
     3    16    17   ar
     4     6     7   ar
     5     6     5   ar
     6    14    13   ar
     7     7     2   ar
     8    17    12   ar
     9     5     4   ar
    10     9     1   ar
    11    13    12   ar
    12    12    11    1
    13     2     1    1
    14     2     3   ar
    15     1     8   ar
    16     4     3   ar
    17     4    10    1
    18    11    10    1
