@<TRIPOS>MOLECULE
3t5d_GDP_A_1.pdb
 28 30 0 0 0
SMALL
GASTEIGER

@<TRIPOS>ATOM
      1  PB        31.1830  -26.0030   -8.2470 P.3     1  GDP1        0.5373
      2  O1B       30.6030  -27.2820   -8.8020 O.3     1  GDP1       -0.1143
      3  O2B       30.6550  -24.8250   -9.0290 O.2     1  GDP1       -0.2221
      4  O3B       30.7870  -25.8560   -6.7990 O.3     1  GDP1       -0.1143
      5  O3A       32.7880  -26.0380   -8.3490 O.3     1  GDP1       -0.2261
      6  PA        33.5290  -26.6940   -9.6180 P.3     1  GDP1        0.2231
      7  O1A       33.3380  -28.1910   -9.6330 O.3     1  GDP1       -0.4370
      8  O2A       33.0170  -26.0830  -10.9010 O.2     1  GDP1       -0.5169
      9  O5'       35.0750  -26.3160   -9.3700 O.3     1  GDP1       -0.3111
     10  C5'       35.5380  -24.9860   -9.6090 C.3     1  GDP1        0.1813
     11  C4'       37.0640  -24.9260   -9.6010 C.3     1  GDP1        0.1799
     12  O4'       37.5710  -25.4070   -8.3520 O.3     1  GDP1       -0.3326
     13  C3'       37.6900  -25.7670  -10.7050 C.3     1  GDP1        0.2158
     14  O3'       38.6440  -24.9750  -11.4200 O.3     1  GDP1       -0.2175
     15  C2'       38.3730  -26.9210   -9.9940 C.3     1  GDP1        0.2310
     16  O2'       39.6390  -27.2360  -10.5790 O.3     1  GDP1       -0.2158
     17  C1'       38.5370  -26.4410   -8.5590 C.3     1  GDP1        0.2293
     18  N9        38.3170  -27.5380   -7.5790 N.pl3   1  GDP1       -0.2354
     19  C8        37.4220  -28.5410   -7.6780 C.3     1  GDP1        0.2246
     20  N7        37.4870  -29.3670   -6.6030 N.2     1  GDP1       -0.2322
     21  C5        38.4440  -28.8880   -5.7880 C.2     1  GDP1        0.2182
     22  C6        39.0310  -29.2750   -4.4830 C.1     1  GDP1        0.2372
     23  O6        38.6230  -30.2820   -3.8720 O.2     1  GDP1       -0.2069
     24  N1        40.0080  -28.5080   -3.9750 N.2     1  GDP1       -0.2485
     25  C2        40.4690  -27.4110   -4.6100 C.1     1  GDP1        0.2531
     26  N2        41.4600  -26.6920   -4.0320 N.pl3   1  GDP1       -0.0226
     27  N3        39.9780  -26.9990   -5.8100 N.2     1  GDP1       -0.3074
     28  C4        38.9860  -27.6830   -6.4340 C.2     1  GDP1        0.2300
@<TRIPOS>BOND
     1    14    13    1
     2     8     6    2
     3    13    15    1
     4    13    11    1
     5    16    15    1
     6    15    17    1
     7     7     6    1
     8     6     9    1
     9     6     5    1
    10    10    11    1
    11    10     9    1
    12    11    12    1
    13     3     1    2
    14     2     1    1
    15    17    12    1
    16    17    18    1
    17     5     1    1
    18     1     4    1
    19    19    18    1
    20    19    20    1
    21    18    28    1
    22    20    21    2
    23    28    27    2
    24    28    21    1
    25    27    25    2
    26    21    22    1
    27    25    26    1
    28    25    24    2
    29    22    24    2
    30    22    23    2
