@<TRIPOS>MOLECULE
3t5f_M34_H_1.pdb
 36 38 0 0 0
SMALL
GASTEIGER

@<TRIPOS>ATOM
      1  C7        16.2800  -17.9220   22.1700 C.3     1  M341        0.1969
      2  S8        15.7990  -16.3270   22.0500 S.O2    1  M341        0.0620
      3  C4        15.6400  -18.5650   23.3820 C.ar    1  M341        0.0030
      4  C5        14.3690  -19.1240   23.2810 C.ar    1  M341       -0.0025
      5  C6        13.7740  -19.7130   24.3940 C.ar    1  M341       -0.0003
      6  C1        14.4500  -19.7380   25.6110 C.ar    1  M341       -0.0000
      7  C2        15.7210  -19.1810   25.7130 C.ar    1  M341       -0.0003
      8  C34       16.3130  -18.5920   24.5990 C.ar    1  M341       -0.0025
      9  O7        14.3670  -16.2530   22.1550 O.2     1  M341       -0.1558
     10  O19       16.2160  -15.8120   20.7790 O.2     1  M341       -0.1558
     11  N9        16.4600  -15.4670   23.2390 N.3     1  M341       -0.0739
     12  C10       17.6130  -14.6180   23.0080 C.3     1  M341        0.1733
     13  C20       18.2970  -14.3100   24.3330 C.3     1  M341        0.0287
     14  C21       19.2320  -15.4260   24.7700 C.3     1  M341        0.0019
     15  C22       19.6070  -15.2470   26.2350 C.3     1  M341        0.0001
     16  C23       20.4760  -15.4640   23.8900 C.3     1  M341        0.0001
     17  C11       17.2130  -13.3170   22.3870 C.2     1  M341        0.2437
     18  O24       16.2540  -12.7010   22.8270 O.2     1  M341       -0.2733
     19  N12       17.9450  -12.8710   21.3690 N.am    1  M341       -0.2718
     20  C13       17.5920  -11.6020   20.7340 C.3     1  M341        0.1535
     21  C14       16.1330  -11.4820   20.3970 C.2     1  M341        0.2598
     22  O28       15.5310  -12.4090   19.8700 O.2     1  M341       -0.2715
     23  C27       18.4140  -11.5990   19.4510 C.3     1  M341        0.0310
     24  C26       19.5960  -12.5080   19.7280 C.3     1  M341        0.0237
     25  C25       19.1100  -13.5200   20.7590 C.3     1  M341        0.0939
     26  N15       15.5310  -10.3350   20.7050 N.am    1  M341       -0.1992
     27  C16       14.1330  -10.0560   20.4160 C.3     1  M341        0.1413
     28  C17       13.2420  -10.0740   21.6360 C.ar    1  M341       -0.0023
     29  C29       12.4600  -11.1830   21.9310 C.ar    1  M341       -0.0054
     30  C35       12.4840  -12.4240   21.0680 C.3     1  M341        0.1354
     31  N36       13.2290  -13.4660   21.7560 N.3     1  M341       -0.1262
     32  C33       11.6380  -11.1800   23.0510 C.ar    1  M341       -0.0022
     33  C32       11.5730  -10.0660   23.8730 C.ar    1  M341        0.0111
     34  C31       12.3680   -8.9690   23.5740 C.ar    1  M341        0.0574
     35 CL28       12.3170   -7.5310   24.6140 Cl      1  M341       -0.0823
     36  C30       13.1970   -8.9650   22.4630 C.ar    1  M341        0.0086
@<TRIPOS>BOND
     1    23    24    1
     2    23    20    1
     3    24    25    1
     4    22    21    2
     5    21    26   am
     6    21    20    1
     7    27    26    1
     8    27    28    1
     9    20    19    1
    10    25    19    1
    11    10     2    2
    12    30    31    1
    13    30    29    1
    14    19    17   am
    15    28    29   ar
    16    28    36   ar
    17    29    32   ar
    18     2     9    2
    19     2     1    1
    20     2    11    1
    21     1     3    1
    22    17    18    2
    23    17    12    1
    24    36    34   ar
    25    12    11    1
    26    12    13    1
    27    32    33   ar
    28     4     3   ar
    29     4     5   ar
    30     3     8   ar
    31    34    33   ar
    32    34    35    1
    33    16    14    1
    34    13    14    1
    35     5     6   ar
    36     8     7   ar
    37    14    15    1
    38     6     7   ar
