@<TRIPOS>MOLECULE
3t5g_GDP_A_1.pdb
 28 30 0 0 0
SMALL
GASTEIGER

@<TRIPOS>ATOM
      1  PB         0.5700  -18.5990   17.0320 P.3   201  GDP201      0.5373
      2  O1B       -0.7480  -18.5870   17.7550 O.3   201  GDP201     -0.1143
      3  O2B        0.6320  -17.5000   15.9910 O.2   201  GDP201     -0.2221
      4  O3B        1.7040  -18.4520   18.0330 O.3   201  GDP201     -0.1143
      5  O3A        0.6730  -19.9860   16.2290 O.3   201  GDP201     -0.2261
      6  PA         1.4270  -21.3320   16.6860 P.3   201  GDP201      0.2231
      7  O1A        1.0080  -21.6710   18.0900 O.3   201  GDP201     -0.4370
      8  O2A        2.9030  -21.2520   16.4490 O.2   201  GDP201     -0.5169
      9  O5'        0.8730  -22.3730   15.5950 O.3   201  GDP201     -0.3111
     10  C5'       -0.5160  -22.7010   15.5540 C.3   201  GDP201      0.1813
     11  C4'       -0.6840  -24.1080   14.9910 C.3   201  GDP201      0.1799
     12  O4'       -0.2010  -24.1620   13.6450 O.3   201  GDP201     -0.3326
     13  C3'        0.1360  -25.1360   15.7700 C.3   201  GDP201      0.2158
     14  O3'       -0.6160  -26.3530   15.8580 O.3   201  GDP201     -0.2175
     15  C2'        1.3970  -25.3200   14.9390 C.3   201  GDP201      0.2310
     16  O2'        2.0240  -26.6110   15.0390 O.3   201  GDP201     -0.2158
     17  C1'        0.9010  -25.0600   13.5270 C.3   201  GDP201      0.2293
     18  N9         1.8820  -24.3910   12.6550 N.pl3 201  GDP201     -0.2354
     19  C8         2.5120  -23.2220   12.8830 C.3   201  GDP201      0.2246
     20  N7         3.3180  -22.9010   11.8450 N.2   201  GDP201     -0.2322
     21  C5         3.1990  -23.8750   10.9220 C.2   201  GDP201      0.2182
     22  C6         3.7460  -24.1690    9.5780 C.1   201  GDP201      0.2372
     23  O6         4.5550  -23.4050    9.0060 O.2   201  GDP201     -0.2069
     24  N1         3.3400  -25.2990    8.9740 N.2   201  GDP201     -0.2485
     25  C2         2.4620  -26.1560    9.5300 C.1   201  GDP201      0.2531
     26  N2         2.1100  -27.2730    8.8440 N.pl3 201  GDP201     -0.0226
     27  N3         1.9100  -25.9460   10.7410 N.2   201  GDP201     -0.3074
     28  C4         2.2380  -24.8460   11.4650 C.2   201  GDP201      0.2300
@<TRIPOS>BOND
     1    26    25    1
     2    24    25    2
     3    24    22    2
     4    23    22    2
     5    25    27    2
     6    22    21    1
     7    27    28    2
     8    21    28    1
     9    21    20    2
    10    28    18    1
    11    20    19    1
    12    18    19    1
    13    18    17    1
    14    17    12    1
    15    17    15    1
    16    12    11    1
    17    15    16    1
    18    15    13    1
    19    11    10    1
    20    11    13    1
    21    10     9    1
    22     9     6    1
    23    13    14    1
    24     3     1    2
    25     5     6    1
    26     5     1    1
    27     8     6    2
    28     6     7    1
    29     1     2    1
    30     1     4    1
