@<TRIPOS>MOLECULE
3t5g_FAR_A_1.pdb
 15 14 0 0 0
SMALL
GASTEIGER

@<TRIPOS>ATOM
      1  C1        27.6240    8.3320   31.9540 C.3   2010  FAR2010     0.0300
      2  C2        28.9480    8.5580   31.2730 C.2   2010  FAR2010    -0.0342
      3  C3        29.9240    7.6410   31.3050 C.2   2010  FAR2010    -0.0478
      4  C5        31.2310    7.9230   30.6040 C.3   2010  FAR2010     0.0263
      5  C6        31.4140    9.4080   30.3050 C.3   2010  FAR2010     0.0297
      6  C7        32.7180    9.5890   29.5610 C.2   2010  FAR2010    -0.0342
      7  C8        33.9140    9.7900   30.1530 C.2   2010  FAR2010    -0.0478
      8  C9        35.1410    9.9520   29.2870 C.3   2010  FAR2010     0.0263
      9  C11       35.0610   11.2330   28.4640 C.3   2010  FAR2010     0.0297
     10  C12       36.4320   11.4790   27.8820 C.2   2010  FAR2010    -0.0342
     11  C13       36.7080   12.4460   26.9950 C.2   2010  FAR2010    -0.0478
     12  C14       35.6600   13.4010   26.4950 C.3   2010  FAR2010     0.0260
     13  C15       38.1160   12.5780   26.4990 C.3   2010  FAR2010     0.0260
     14  C4        29.7370    6.3260   32.0070 C.3   2010  FAR2010     0.0260
     15  C10       34.0820    9.8590   31.6440 C.3   2010  FAR2010     0.0260
@<TRIPOS>BOND
     1    12    11    1
     2    13    11    1
     3    11    10    2
     4    10     9    1
     5     9     8    1
     6     8     7    1
     7     6     7    2
     8     6     5    1
     9     7    15    1
    10     5     4    1
    11     4     3    1
    12     2     3    2
    13     2     1    1
    14     3    14    1
