@<TRIPOS>MOLECULE
3t5h_DGT_A_1.pdb
 31 33 0 0 0
SMALL
GASTEIGER

@<TRIPOS>ATOM
      1  PG       -23.6060   39.7770    2.4200 P.3   600  DGT600      0.5373
      2  O1G      -24.5740   38.6770    2.3020 O.3   600  DGT600     -0.1143
      3  O2G      -24.3190   40.9590    3.1490 O.3   600  DGT600     -0.1143
      4  O3G      -23.1970   40.4740    1.0350 O.2   600  DGT600     -0.2221
      5  O3B      -22.3290   39.3290    3.2270 O.3   600  DGT600     -0.2258
      6  PB       -21.6940   39.8910    4.5580 P.3   600  DGT600      0.2277
      7  O1B      -20.2540   40.0220    4.5670 O.2   600  DGT600     -0.5168
      8  O2B      -22.4140   41.1010    5.0460 O.3   600  DGT600     -0.4368
      9  O3A      -22.5080   38.7890    5.4100 O.3   600  DGT600     -0.2700
     10  PA       -22.1380   37.6590    6.3190 P.3   600  DGT600      0.2189
     11  O1A      -20.7200   37.5010    6.7010 O.2   600  DGT600     -0.5170
     12  O2A      -23.2450   36.9380    6.9400 O.3   600  DGT600     -0.4371
     13  O5'      -22.2780   38.8270    7.5260 O.3   600  DGT600     -0.3112
     14  C5'      -21.2790   38.6980    8.4920 C.3   600  DGT600      0.1812
     15  C4'      -20.4140   39.8550    9.0430 C.3   600  DGT600      0.1772
     16  O4'      -19.6750   38.7860    9.7770 O.3   600  DGT600     -0.3347
     17  C3'      -19.6520   40.3700    7.8350 C.3   600  DGT600      0.1857
     18  O3'      -19.2520   41.7350    7.9140 O.3   600  DGT600     -0.2203
     19  C2'      -18.5580   39.4140    7.7930 C.3   600  DGT600      0.0865
     20  C1'      -18.3590   38.9460    9.2570 C.3   600  DGT600      0.1981
     21  N9       -17.4960   37.8380    8.9750 N.pl3 600  DGT600     -0.2374
     22  C8       -17.9900   36.7820    8.1770 C.3   600  DGT600      0.2245
     23  N7       -17.1730   35.8340    7.9390 N.2   600  DGT600     -0.2322
     24  C5       -16.0300   36.2230    8.6050 C.2   600  DGT600      0.2182
     25  C6       -14.7940   35.5600    8.6800 C.1   600  DGT600      0.2372
     26  O6       -14.4880   34.4850    8.1620 O.2   600  DGT600     -0.2069
     27  N1       -13.8480   36.2780    9.4690 N.2   600  DGT600     -0.2485
     28  C2       -14.0920   37.4960   10.0930 C.1   600  DGT600      0.2531
     29  N2       -13.0750   38.0130   10.7890 N.pl3 600  DGT600     -0.0226
     30  N3       -15.2830   38.1420   10.0140 N.2   600  DGT600     -0.3074
     31  C4       -16.2040   37.4620    9.2580 C.2   600  DGT600      0.2299
@<TRIPOS>BOND
     1     4     1    2
     2     2     1    1
     3     1     3    1
     4     1     5    1
     5     5     6    1
     6     6     7    2
     7     6     8    1
     8     6     9    1
     9     9    10    1
    10    10    11    2
    11    10    12    1
    12    10    13    1
    13    13    14    1
    14    19    17    1
    15    19    20    1
    16    17    18    1
    17    17    15    1
    18    23    22    1
    19    23    24    2
    20    26    25    2
    21    22    21    1
    22    14    15    1
    23    24    25    1
    24    24    31    1
    25    25    27    2
    26    21    20    1
    27    21    31    1
    28    15    16    1
    29    20    16    1
    30    31    30    2
    31    27    28    2
    32    30    28    2
    33    28    29    1
