@<TRIPOS>MOLECULE
3t5i_FAR_A_1.pdb
 15 14 0 0 0
SMALL
GASTEIGER

@<TRIPOS>ATOM
      1  C1        38.4950  -11.8940   20.4440 C.3   2010  FAR2010     0.0300
      2  C2        39.2170  -12.9820   19.6840 C.2   2010  FAR2010    -0.0342
      3  C3        38.6660  -14.1710   19.4200 C.2   2010  FAR2010    -0.0478
      4  C5        39.5180  -15.1650   18.6810 C.3   2010  FAR2010     0.0263
      5  C6        40.5550  -15.6870   19.6690 C.3   2010  FAR2010     0.0297
      6  C7        41.4330  -16.7490   19.0420 C.2   2010  FAR2010    -0.0342
      7  C8        41.5570  -17.9920   19.5550 C.2   2010  FAR2010    -0.0478
      8  C9        42.4640  -18.9990   18.8840 C.3   2010  FAR2010     0.0263
      9  C11       43.7880  -18.3290   18.5120 C.3   2010  FAR2010     0.0297
     10  C12       44.6880  -19.3890   17.9320 C.2   2010  FAR2010    -0.0342
     11  C13       46.0250  -19.3430   17.9750 C.2   2010  FAR2010    -0.0478
     12  C14       46.7570  -18.1940   18.6130 C.3   2010  FAR2010     0.0260
     13  C15       46.7810  -20.4810   17.3420 C.3   2010  FAR2010     0.0260
     14  C4        37.2690  -14.5370   19.8450 C.3   2010  FAR2010     0.0260
     15  C10       40.8130  -18.4250   20.7870 C.3   2010  FAR2010     0.0260
@<TRIPOS>BOND
     1    13    11    1
     2    10    11    2
     3    10     9    1
     4    11    12    1
     5     9     8    1
     6     4     3    1
     7     4     5    1
     8     8     7    1
     9     6     7    2
    10     6     5    1
    11     3     2    2
    12     3    14    1
    13     7    15    1
    14     2     1    1
