@<TRIPOS>MOLECULE
3t5i_III_Q_1.pdb
 20 19 0 0 0
SMALL
GASTEIGER

@<TRIPOS>ATOM
      1  N         43.0890  -18.1970   57.1000 N.3    12  SER12      -0.1202
      2  CA        41.9360  -17.4380   57.6420 C.3    12  SER12       0.2020
      3  C         41.5560  -16.2830   56.7040 C.2    12  SER12       0.2619
      4  O         40.3920  -16.1700   56.3320 O.2    12  SER12      -0.2717
      5  CB        42.1990  -16.9340   59.0740 C.3    12  SER12       0.2103
      6  OG        42.8910  -17.8870   59.8800 O.3    12  SER12      -0.2182
      7  N         42.5110  -15.4730   56.2810 N.am   13  SER13      -0.1937
      8  CA        42.2230  -14.3710   55.3850 C.3    13  SER13       0.2055
      9  C         42.1080  -14.8650   53.9610 C.2    13  SER13       0.2644
     10  O         41.5390  -14.2600   53.0900 O.2    13  SER13      -0.2714
     11  CB        43.3450  -13.3830   55.4290 C.3    13  SER13       0.2130
     12  OG        44.4280  -13.8320   54.6930 O.3    13  SER13      -0.2179
     13  N         42.5890  -16.1900   53.4790 N.am   14  CYS14      -0.1933
     14  CA        42.9960  -16.8580   52.2290 C.3    14  CYS14       0.2050
     15  C         42.2340  -18.1480   52.1190 C.2    14  CYS14       0.3380
     16  O         42.4690  -19.0880   52.8190 O.2    14  CYS14      -0.2482
     17  CB        44.4880  -17.1410   52.0550 C.3    14  CYS14       0.1017
     18  SG        44.9870  -17.5340   50.3190 S.3    14  CYS14      -0.0797
     19  OXT       41.3690  -18.1980   51.1670 O.3    14  CYS14      -0.4432
     20  C1        41.5500  -19.4880   50.7510 C.3    14  CYS14       0.2557
@<TRIPOS>BOND
     1    18    17    1
     2    20    19    1
     3    19    15    1
     4    17    14    1
     5    15    14    1
     6    15    16    2
     7    14    13    1
     8    10     9    2
     9    13     9   am
    10     9     8    1
    11    12    11    1
    12     8    11    1
    13     8     7    1
    14     7     3   am
    15     4     3    2
    16     3     2    1
    17     1     2    1
    18     2     5    1
    19     5     6    1
