@<TRIPOS>MOLECULE
3t5j_DTP_A_1.pdb
 30 32 0 0 0
SMALL
GASTEIGER

@<TRIPOS>ATOM
      1  PG        71.1950   11.7540   29.1750 P.3   600  DTP600      0.5373
      2  O1G       72.1480   12.8720   29.0550 O.3   600  DTP600     -0.1143
      3  O2G       71.9320   10.5620   29.8700 O.3   600  DTP600     -0.1143
      4  O3G       70.7740   11.0810   27.7760 O.2   600  DTP600     -0.2221
      5  PB        69.2820   11.5540   31.3670 P.3   600  DTP600      0.2277
      6  O1B       67.8390   11.4310   31.3850 O.2   600  DTP600     -0.5168
      7  O2B       70.0050   10.3290   31.8160 O.3   600  DTP600     -0.4368
      8  O3B       69.9140   12.1580   30.0300 O.3   600  DTP600     -0.2258
      9  PA        69.7870   13.8200   33.1140 P.3   600  DTP600      0.2189
     10  O1A       68.3830   14.0170   33.5410 O.2   600  DTP600     -0.5170
     11  O2A       70.9330   14.5310   33.6940 O.3   600  DTP600     -0.4371
     12  O3A       70.1130   12.6610   32.2050 O.3   600  DTP600     -0.2700
     13  O5'       69.9610   12.6630   34.3320 O.3   600  DTP600     -0.3112
     14  C5'       68.9390   12.7270   35.2800 C.3   600  DTP600      0.1813
     15  C4'       68.0790   11.5320   35.7510 C.3   600  DTP600      0.1795
     16  O4'       67.3230   12.5580   36.5190 O.3   600  DTP600     -0.3155
     17  C3'       67.3320   11.0580   34.5020 C.3   600  DTP600      0.1883
     18  O3'       66.9690    9.6700   34.4640 O.3   600  DTP600     -0.2202
     19  C2'       66.2090   11.9960   34.4940 C.3   600  DTP600      0.1151
     20  C1'       66.0150   12.4100   35.9760 C.3   600  DTP600      0.2873
     21  N9        65.1150   13.5190   35.7550 N.pl3 600  DTP600     -0.1460
     22  C8        65.5450   14.6100   34.9950 C.3   600  DTP600      0.3377
     23  N7        64.6820   15.5350   34.8270 N.2   600  DTP600     -0.2095
     24  C5        63.5940   15.0670   35.5100 C.2   600  DTP600      0.2526
     25  C6        62.3120   15.6200   35.7000 C.2   600  DTP600      0.4393
     26  N6        61.9700   16.8090   35.1680 N.pl3 600  DTP600      0.2180
     27  N1        61.4120   14.9130   36.4470 N.2   600  DTP600      0.0021
     28  C2        61.7810   13.7210   36.9660 C.3   600  DTP600      0.5254
     29  N3        62.9610   13.0940   36.8490 N.2   600  DTP600     -0.0055
     30  C4        63.8280   13.8260   36.1010 C.2   600  DTP600      0.3518
@<TRIPOS>BOND
     1     4     1    2
     2     2     1    1
     3     1     3    1
     4     1     8    1
     5     8     5    1
     6     5     6    2
     7     5     7    1
     8     5    12    1
     9    12     9    1
    10     9    10    2
    11     9    11    1
    12     9    13    1
    13    13    14    1
    14    18    17    1
    15    19    17    1
    16    19    20    1
    17    17    15    1
    18    23    22    1
    19    23    24    2
    20    22    21    1
    21    26    25    1
    22    14    15    1
    23    24    25    1
    24    24    30    1
    25    25    27    2
    26    15    16    1
    27    21    20    1
    28    21    30    1
    29    20    16    1
    30    30    29    2
    31    27    28    1
    32    29    28    1
