@<TRIPOS>MOLECULE
3t5k_DTP_A_1.pdb
 30 32 0 0 0
SMALL
GASTEIGER

@<TRIPOS>ATOM
      1  PG        24.0330  -40.2150    2.2460 P.3   600  DTP600      0.5373
      2  O1G       25.0580  -39.1400    2.2830 O.3   600  DTP600     -0.1143
      3  O2G       24.6440  -41.4660    2.9440 O.3   600  DTP600     -0.1143
      4  O3G       23.7010  -40.7940    0.7820 O.2   600  DTP600     -0.2221
      5  PB        21.9650  -40.4350    4.2660 P.3   600  DTP600      0.2277
      6  O1B       20.5170  -40.6000    4.1080 O.2   600  DTP600     -0.5168
      7  O2B       22.6670  -41.6700    4.7430 O.3   600  DTP600     -0.4368
      8  O3B       22.7030  -39.7910    3.0060 O.3   600  DTP600     -0.2258
      9  PA        21.8420  -38.4110    6.2090 P.3   600  DTP600      0.2189
     10  O1A       20.3590  -38.5480    6.2350 O.2   600  DTP600     -0.5170
     11  O2A       22.6590  -37.5860    7.1340 O.3   600  DTP600     -0.4371
     12  O3A       22.5700  -39.3770    5.3180 O.3   600  DTP600     -0.2700
     13  O5'       21.8960  -39.6320    7.3370 O.3   600  DTP600     -0.3112
     14  C5'       20.9770  -39.3750    8.3450 C.3   600  DTP600      0.1813
     15  C4'       20.0860  -40.4280    8.9820 C.3   600  DTP600      0.1795
     16  O4'       19.4420  -39.3310    9.7550 O.3   600  DTP600     -0.3155
     17  C3'       19.2030  -40.9370    7.8690 C.3   600  DTP600      0.1883
     18  O3'       18.8430  -42.3050    7.9890 O.3   600  DTP600     -0.2202
     19  C2'       18.0960  -39.9820    7.9540 C.3   600  DTP600      0.1151
     20  C1'       18.0940  -39.5400    9.4300 C.3   600  DTP600      0.2873
     21  N9        17.1590  -38.4730    9.3360 N.pl3 600  DTP600     -0.1460
     22  C8        17.4800  -37.3130    8.6310 C.3   600  DTP600      0.3377
     23  N7        16.5430  -36.4330    8.5940 N.2   600  DTP600     -0.2095
     24  C5        15.5330  -37.0190    9.3130 C.2   600  DTP600      0.2526
     25  C6        14.2320  -36.5760    9.6330 C.2   600  DTP600      0.4393
     26  N6        13.7650  -35.3780    9.2230 N.pl3 600  DTP600      0.2180
     27  N1        13.4370  -37.4060   10.3870 N.2   600  DTP600      0.0021
     28  C2        13.9220  -38.6030   10.7860 C.3   600  DTP600      0.5254
     29  N3        15.1280  -39.1320   10.5410 N.2   600  DTP600     -0.0055
     30  C4        15.8860  -38.2790    9.7880 C.2   600  DTP600      0.3518
@<TRIPOS>BOND
     1     4     1    2
     2     1     2    1
     3     1     3    1
     4     1     8    1
     5     8     5    1
     6     6     5    2
     7     5     7    1
     8     5    12    1
     9    12     9    1
    10     9    10    2
    11     9    11    1
    12     9    13    1
    13    13    14    1
    14    17    19    1
    15    17    18    1
    16    17    15    1
    17    19    20    1
    18    14    15    1
    19    23    22    1
    20    23    24    2
    21    22    21    1
    22    15    16    1
    23    26    25    1
    24    24    25    1
    25    24    30    1
    26    21    20    1
    27    21    30    1
    28    20    16    1
    29    25    27    2
    30    30    29    2
    31    27    28    1
    32    29    28    1
