@<TRIPOS>MOLECULE
3t5l_DGT_A_1.pdb
 31 33 0 0 0
SMALL
GASTEIGER

@<TRIPOS>ATOM
      1  PG        23.7050   11.7270   28.8470 P.3   600  DGT600      0.5373
      2  O1G       24.8320   12.6750   28.9330 O.3   600  DGT600     -0.1143
      3  O2G       24.2070   10.3920   29.4790 O.3   600  DGT600     -0.1143
      4  O3G       23.3050   11.2680   27.3570 O.2   600  DGT600     -0.2221
      5  O3B       22.4400   12.2510   29.6580 O.3   600  DGT600     -0.2258
      6  PB        21.6860   11.6220   30.9020 P.3   600  DGT600      0.2277
      7  O1B       20.2460   11.6720   30.8890 O.2   600  DGT600     -0.5168
      8  O2B       22.2430   10.2910   31.2630 O.3   600  DGT600     -0.4368
      9  O3A       22.5880   12.5100   31.8530 O.3   600  DGT600     -0.2700
     10  PA        22.3550   13.5700   32.8560 P.3   600  DGT600      0.2189
     11  O1A       20.9760   13.8660   33.2690 O.2   600  DGT600     -0.5170
     12  O2A       23.5650   14.0570   33.5440 O.3   600  DGT600     -0.4371
     13  O5'       22.3300   12.2460   33.9150 O.3   600  DGT600     -0.3112
     14  C5'       21.3100   12.3250   34.8660 C.3   600  DGT600      0.1812
     15  C4'       20.3270   11.1920   35.2080 C.3   600  DGT600      0.1772
     16  O4'       19.6490   12.1820   36.0940 O.3   600  DGT600     -0.3347
     17  C3'       19.5690   10.9420   33.9200 C.3   600  DGT600      0.1857
     18  O3'       19.0990    9.6140   33.7410 O.3   600  DGT600     -0.2203
     19  C2'       18.5370   11.9730   34.0270 C.3   600  DGT600      0.0865
     20  C1'       18.3370   12.2240   35.5430 C.3   600  DGT600      0.1981
     21  N9        17.5750   13.4440   35.4220 N.pl3 600  DGT600     -0.2374
     22  C8        18.1700   14.5250   34.7580 C.3   600  DGT600      0.2245
     23  N7        17.4600   15.5770   34.6510 N.2   600  DGT600     -0.2322
     24  C5        16.2830   15.2410   35.2790 C.2   600  DGT600      0.2182
     25  C6        15.1330   16.0310   35.4490 C.1   600  DGT600      0.2372
     26  O6        14.9560   17.1880   35.0570 O.2   600  DGT600     -0.2069
     27  N1        14.1060   15.3410   36.1600 N.2   600  DGT600     -0.2485
     28  C2        14.2130   14.0380   36.6360 C.1   600  DGT600      0.2531
     29  N2        13.1390   13.5560   37.2850 N.pl3 600  DGT600     -0.0226
     30  N3        15.3260   13.2790   36.4610 N.2   600  DGT600     -0.3074
     31  C4        16.3210   13.9300   35.7780 C.2   600  DGT600      0.2299
@<TRIPOS>BOND
     1     4     1    2
     2     1     2    1
     3     1     3    1
     4     1     5    1
     5     5     6    1
     6     7     6    2
     7     6     8    1
     8     6     9    1
     9     9    10    1
    10    10    11    2
    11    10    12    1
    12    10    13    1
    13    18    17    1
    14    13    14    1
    15    17    19    1
    16    17    15    1
    17    19    20    1
    18    23    22    1
    19    23    24    2
    20    22    21    1
    21    14    15    1
    22    26    25    2
    23    15    16    1
    24    24    25    1
    25    24    31    1
    26    21    20    1
    27    21    31    1
    28    25    27    2
    29    20    16    1
    30    31    30    2
    31    27    28    2
    32    30    28    2
    33    28    29    1
