@<TRIPOS>MOLECULE
3t5m_AMP_A_1.pdb
 23 25 0 0 0
SMALL
GASTEIGER

@<TRIPOS>ATOM
      1  P         36.3820   12.1870   -4.8110 P.3   801  AMP801      0.5327
      2  O1P       36.3070   10.9380   -3.9670 O.3   801  AMP801     -0.1145
      3  O2P       35.0920   12.8790   -5.1800 O.2   801  AMP801     -0.2224
      4  O3P       37.2960   13.1990   -4.1600 O.3   801  AMP801     -0.1145
      5  O5'       37.2150   11.8800   -6.1300 O.3   801  AMP801     -0.2675
      6  C5'       36.5850   11.8640   -7.3990 C.3   801  AMP801      0.1860
      7  C4'       37.5810   12.0760   -8.5060 C.3   801  AMP801      0.1823
      8  O4'       37.0300   11.6050   -9.7570 O.3   801  AMP801     -0.3135
      9  C3'       37.9600   13.5200   -8.7900 C.3   801  AMP801      0.2184
     10  O3'       38.9350   14.0210   -7.8940 O.3   801  AMP801     -0.2174
     11  C2'       38.4340   13.4650  -10.2340 C.3   801  AMP801      0.2570
     12  O2'       39.7710   12.9920  -10.2990 O.3   801  AMP801     -0.2130
     13  C1'       37.5130   12.3910  -10.8220 C.3   801  AMP801      0.3186
     14  N9        36.3600   12.9770  -11.5290 N.pl3 801  AMP801     -0.1439
     15  C8        35.1190   13.1450  -11.0320 C.3   801  AMP801      0.3377
     16  N7        34.2960   13.7080  -11.9550 N.2   801  AMP801     -0.2095
     17  C5        35.0220   13.9050  -13.0700 C.2   801  AMP801      0.2526
     18  C6        34.7840   14.4580  -14.4220 C.2   801  AMP801      0.4393
     19  N6        33.5670   14.9310  -14.7820 N.pl3 801  AMP801      0.2180
     20  N1        35.8240   14.4760  -15.2850 N.2   801  AMP801      0.0021
     21  C2        37.0460   14.0160  -14.9590 C.3   801  AMP801      0.5254
     22  N3        37.3280   13.5020  -13.7490 N.2   801  AMP801     -0.0055
     23  C4        36.3800   13.4200  -12.7840 C.2   801  AMP801      0.3518
@<TRIPOS>BOND
     1    20    21    1
     2    20    18    2
     3    21    22    1
     4    19    18    1
     5    18    17    1
     6    22    23    2
     7    17    23    1
     8    17    16    2
     9    23    14    1
    10    16    15    1
    11    14    15    1
    12    14    13    1
    13    13    11    1
    14    13     8    1
    15    12    11    1
    16    11     9    1
    17     8     7    1
    18     9     7    1
    19     9    10    1
    20     7     6    1
    21     6     5    1
    22     5     1    1
    23     3     1    2
    24     1     4    1
    25     1     2    1
