@<TRIPOS>MOLECULE
3t5o_FUL_A_1.pdb
 10 10 0 0 0
SMALL
GASTEIGER

@<TRIPOS>ATOM
      1  C1        19.6600   38.0840   -5.4020 C.3   1004  FUL1004     0.1776
      2  C2        18.7070   39.2050   -4.9300 C.3   1004  FUL1004     0.2141
      3  O2        18.0240   39.7960   -6.0220 O.3   1004  FUL1004    -0.2176
      4  C3        17.7050   38.7090   -3.8770 C.3   1004  FUL1004     0.2172
      5  O3        16.9250   39.7690   -3.3540 O.3   1004  FUL1004    -0.2175
      6  C4        18.4510   38.0150   -2.7440 C.3   1004  FUL1004     0.2116
      7  O4        19.1800   38.9750   -2.0000 O.3   1004  FUL1004    -0.2177
      8  C5        19.3830   36.9490   -3.3280 C.3   1004  FUL1004     0.1483
      9  C6        20.1220   36.1850   -2.2260 C.3   1004  FUL1004     0.0349
     10  O5        20.2970   37.5310   -4.2530 O.3   1004  FUL1004    -0.3508
@<TRIPOS>BOND
     1     3     2    1
     2     1     2    1
     3     1    10    1
     4     2     4    1
     5    10     8    1
     6     4     5    1
     7     4     6    1
     8     8     6    1
     9     8     9    1
    10     6     7    1
