@<TRIPOS>MOLECULE
3t5o_FUC_A_1.pdb
 10 10 0 0 0
SMALL
GASTEIGER

@<TRIPOS>ATOM
      1  C1        -4.5040    3.7070    8.8610 C.3   1005  FUC1005     0.1776
      2  C2        -5.8980    4.3470    8.9690 C.3   1005  FUC1005     0.2141
      3  C3        -6.0290    5.6030    8.1290 C.3   1005  FUC1005     0.2172
      4  C4        -5.4890    5.3040    6.7490 C.3   1005  FUC1005     0.2116
      5  C5        -4.0720    4.7930    6.8290 C.3   1005  FUC1005     0.1483
      6  C6        -3.5350    4.6880    5.4030 C.3   1005  FUC1005     0.0349
      7  O2        -6.1170    4.6930   10.3110 O.3   1005  FUC1005    -0.2176
      8  O3        -7.3710    6.0270    8.0610 O.3   1005  FUC1005    -0.2175
      9  O4        -6.2290    4.2270    6.2550 O.3   1005  FUC1005    -0.2177
     10  O5        -4.0690    3.5430    7.5250 O.3   1005  FUC1005    -0.3508
@<TRIPOS>BOND
     1     6     5    1
     2     9     4    1
     3     4     5    1
     4     4     3    1
     5     5    10    1
     6    10     1    1
     7     8     3    1
     8     3     2    1
     9     1     2    1
    10     2     7    1
