@<TRIPOS>MOLECULE
3t5o_MAN_A_1.pdb
 11 11 0 0 0
SMALL
GASTEIGER

@<TRIPOS>ATOM
      1  C1        12.2870   -1.4250   15.2730 C.3   1007  MAN1007     0.1777
      2  C2        13.3920   -2.4490   15.1250 C.3   1007  MAN1007     0.2141
      3  C3        14.1860   -2.1240   13.8670 C.3   1007  MAN1007     0.2173
      4  C4        13.2770   -2.0260   12.6770 C.3   1007  MAN1007     0.2142
      5  C5        12.1850   -1.0300   12.9570 C.3   1007  MAN1007     0.1810
      6  C6        11.2350   -0.8830   11.7690 C.3   1007  MAN1007     0.2141
      7  O2        12.7970   -3.7170   15.0240 O.3   1007  MAN1007    -0.2176
      8  O3        15.1480   -3.1090   13.5770 O.3   1007  MAN1007    -0.2175
      9  O4        14.0740   -1.4920   11.6680 O.3   1007  MAN1007    -0.2176
     10  O5        11.5050   -1.4850   14.0970 O.3   1007  MAN1007    -0.3481
     11  O6        10.1490   -0.0220   12.0690 O.3   1007  MAN1007    -0.2176
@<TRIPOS>BOND
     1     9     4    1
     2     6    11    1
     3     6     5    1
     4     4     5    1
     5     4     3    1
     6     5    10    1
     7     8     3    1
     8     3     2    1
     9    10     1    1
    10     7     2    1
    11     2     1    1
