@<TRIPOS>MOLECULE
3t5u_A09_A_1.pdb
 11 11 0 0 0
SMALL
GASTEIGER

@<TRIPOS>ATOM
      1  C1        -5.7290    2.5010   16.0620 C.ar  263  A09263      0.1259
      2  N1        -5.3440   -0.2420   15.9170 N.4   263  A09263      0.1023
      3  O1        -7.4220    0.7610   16.8340 O.2   263  A09263     -0.1495
      4  S1        -5.9960    0.9500   16.8370 S.O2  263  A09263      0.1033
      5  C2        -6.1530    3.6760   16.7270 C.ar  263  A09263      0.0200
      6  O2        -5.3020    0.9690   18.0930 O.2   263  A09263     -0.1495
      7  C3        -5.9430    4.9200   16.1000 C.ar  263  A09263      0.0014
      8  O3        -3.9270   -0.2150   15.9740 O.3   263  A09263     -0.0754
      9  C4        -5.3300    4.9880   14.8430 C.ar  263  A09263      0.0001
     10  C5        -4.9160    3.8230   14.1940 C.ar  263  A09263      0.0014
     11  C6        -5.1080    2.5600   14.7900 C.ar  263  A09263      0.0200
@<TRIPOS>BOND
     1    10    11   ar
     2    10     9   ar
     3    11     1   ar
     4     9     7   ar
     5     2     8    1
     6     2     4    1
     7     1     5   ar
     8     1     4    1
     9     7     5   ar
    10     3     4    2
    11     4     6    2
