@<TRIPOS>MOLECULE
3t5z_B09_A_1.pdb
 12 12 0 0 0
SMALL
GASTEIGER

@<TRIPOS>ATOM
      1  C1        -5.0020    2.3430   14.5830 C.ar  263  B09263      0.1259
      2  N1        -5.7370    0.0140   15.9730 N.4   263  B09263      0.0686
      3  O1        -3.4340    0.9100   16.1640 O.2   263  B09263     -0.1496
      4  S1        -4.4640    0.7670   15.1930 S.O2  263  B09263      0.1010
      5  C2        -5.0980    2.5760   13.1740 C.ar  263  B09263      0.0200
      6  O2        -4.1220   -0.0600   14.0670 O.2   263  B09263     -0.1496
      7  C3        -5.5420    3.8680   12.7670 C.ar  263  B09263      0.0014
      8  O3        -5.6970    0.2660   17.3780 O.3   263  B09263     -0.2436
      9  C4        -5.8810    4.8960   13.6630 C.ar  263  B09263      0.0001
     10  C5        -5.7710    4.6240   15.0260 C.ar  263  B09263      0.0014
     11  C6        -5.3380    3.3680   15.5290 C.ar  263  B09263      0.0200
     12  C7        -6.8490    1.0760   17.7440 C.3   263  B09263      0.2044
@<TRIPOS>BOND
     1     7     5   ar
     2     7     9   ar
     3     5     1   ar
     4     9    10   ar
     5     6     4    2
     6     1     4    1
     7     1    11   ar
     8    10    11   ar
     9     4     2    1
    10     4     3    2
    11     2     8    1
    12     8    12    1
