@<TRIPOS>MOLECULE
3t60_DUA_A_1.pdb
 35 39 0 0 0
SMALL
GASTEIGER

@<TRIPOS>ATOM
      1  N1        -5.6520   25.7220   -1.0160 N.am  182  DUA182     -0.1790
      2  O1        -9.0410   28.3750    0.5650 O.3   182  DUA182     -0.2203
      3  C2        -5.1560   24.5720   -1.6280 C.1   182  DUA182      0.2844
      4  N2        -9.2460   26.9770   -3.9140 N.3   182  DUA182     -0.2058
      5  O2        -5.8610   23.5750   -1.6300 O.2   182  DUA182     -0.1918
      6  N3        -3.9330   24.5570   -2.1750 N.2   182  DUA182     -0.2452
      7  C4        -3.1820   25.6630   -2.1410 C.1   182  DUA182      0.2182
      8  O4        -2.0680   25.6520   -2.6660 O.2   182  DUA182     -0.2085
      9  C5        -3.6510   26.8560   -1.5580 C.2   182  DUA182      0.1242
     10  C6        -4.9260   26.8740   -0.9960 C.2   182  DUA182      0.0928
     11  C1'       -6.9960   25.7970   -0.5180 C.3   182  DUA182      0.2090
     12  C17       -8.7140   27.4210   -5.1760 C.3   182  DUA182      0.1155
     13  C18       -9.5340   26.4380   -6.0870 C.ar  182  DUA182     -0.0005
     14  C19      -10.8330   26.0010   -5.7150 C.ar  182  DUA182     -0.0024
     15  C2'       -7.4030   26.5020    0.7230 C.3   182  DUA182      0.0874
     16  C20      -11.6090   25.1370   -6.5420 C.ar  182  DUA182     -0.0003
     17  C21      -11.1410   24.6460   -7.7600 C.ar  182  DUA182     -0.0000
     18  C22       -9.8590   25.0720   -8.1510 C.ar  182  DUA182     -0.0003
     19  C23       -9.1120   25.9460   -7.3370 C.ar  182  DUA182     -0.0024
     20  C24       -7.2600   27.2370   -5.3730 C.ar  182  DUA182     -0.0005
     21  C25       -6.2920   28.2180   -5.6750 C.ar  182  DUA182     -0.0024
     22  C26       -4.9290   27.9200   -5.6980 C.ar  182  DUA182     -0.0003
     23  C27       -4.5070   26.6340   -5.4300 C.ar  182  DUA182     -0.0000
     24  C28       -5.4380   25.6500   -5.1130 C.ar  182  DUA182     -0.0003
     25  C29       -6.7980   25.9400   -5.0600 C.ar  182  DUA182     -0.0024
     26  C3'       -8.1150   27.5720   -0.1510 C.3   182  DUA182      0.1846
     27  C30       -9.1990   28.7660   -5.7100 C.ar  182  DUA182     -0.0005
     28  C31       -9.3860   29.8140   -4.8000 C.ar  182  DUA182     -0.0024
     29  C32       -9.8450   31.0780   -5.1940 C.ar  182  DUA182     -0.0003
     30  C33      -10.1150   31.3640   -6.5390 C.ar  182  DUA182     -0.0000
     31  C34       -9.9170   30.3790   -7.4980 C.ar  182  DUA182     -0.0003
     32  C35       -9.4340   29.1210   -7.0620 C.ar  182  DUA182     -0.0024
     33  C4'       -8.8120   26.8910   -1.3450 C.3   182  DUA182      0.1647
     34  O4'       -8.0780   25.6840   -1.4460 O.3   182  DUA182     -0.3350
     35  C5'       -8.7670   27.6680   -2.6810 C.3   182  DUA182      0.1218
@<TRIPOS>BOND
     1    18    17   ar
     2    18    19   ar
     3    17    16   ar
     4    31    32   ar
     5    31    30   ar
     6    19    13   ar
     7    32    27   ar
     8    16    14   ar
     9    30    29   ar
    10    13    14   ar
    11    13    12    1
    12    27    12    1
    13    27    28   ar
    14    22    21   ar
    15    22    23   ar
    16    21    20   ar
    17    23    24   ar
    18    20    12    1
    19    20    25   ar
    20    29    28   ar
    21    12     4    1
    22    24    25   ar
    23     4    35    1
    24    35    33    1
    25     8     7    2
    26     6     7    2
    27     6     3    2
    28     7     9    1
    29     5     3    2
    30     3     1   am
    31     9    10    2
    32    34    33    1
    33    34    11    1
    34    33    26    1
    35     1    10    1
    36     1    11    1
    37    11    15    1
    38    26     2    1
    39    26    15    1
