@<TRIPOS>MOLECULE
3t64_III_F_1.pdb
 20 20 0 0 0
SMALL
GASTEIGER

@<TRIPOS>ATOM
      1  N         -1.4370   29.9800  -22.2190 N.pl3   1  ALA1       -0.1232
      2  CA        -1.3730   31.0700  -21.1880 C.2     1  ALA1        0.1439
      3  C         -1.7630   30.5540  -19.7970 C.2     1  ALA1        0.2820
      4  O         -2.6120   29.6660  -19.6710 O.2     1  ALA1       -0.2669
      5  CB        -1.6640   32.2740  -21.4280 C.2     1  ALA1        0.0243
      6  N         -1.1320   31.1200  -18.7700 N.am    2  HIS2       -0.1925
      7  CA        -1.3930   30.7500  -17.3750 C.3     2  HIS2        0.1787
      8  C         -2.6860   31.4020  -16.8680 C.2     2  HIS2        0.2620
      9  O         -3.1120   32.4520  -17.3840 O.2     2  HIS2       -0.2715
     10  CB        -0.2150   31.1660  -16.4780 C.3     2  HIS2        0.0745
     11  CG         1.0200   30.3190  -16.6330 C.2     2  HIS2        0.0653
     12  ND1        1.0280   29.1040  -17.2890 N.2     2  HIS2       -0.2310
     13  CD2        2.2790   30.4920  -16.1540 C.3     2  HIS2        0.1683
     14  CE1        2.2430   28.5800  -17.2390 C.2     2  HIS2        0.1939
     15  NE2        3.0250   29.4040  -16.5580 N.2     2  HIS2       -0.2440
     16  N         -3.3040   30.7750  -15.8600 N.am    3  ALA3       -0.1977
     17  CA        -4.5410   31.2770  -15.2660 C.3     3  ALA3        0.1597
     18  C         -5.7690   30.4390  -15.6120 C.2     3  ALA3        0.2287
     19  O         -5.6610   29.3950  -16.2710 O.2     3  ALA3       -0.2864
     20  CB        -4.9270   32.5440  -16.0680 C.3     3  ALA3        0.0319
@<TRIPOS>BOND
     1     1     2    1
     2     5     2    2
     3     2     3    1
     4     3     4    2
     5     3     6   am
     6     6     7    1
     7     9     8    2
     8     7     8    1
     9     7    10    1
    10    12    14    1
    11    12    11    2
    12    14    15    2
    13     8    16   am
    14    11    10    1
    15    11    13    1
    16    15    13    1
    17    19    18    2
    18    20    17    1
    19    16    17    1
    20    18    17    1
