@<TRIPOS>MOLECULE
3t64_DU3_A_1.pdb
 29 32 0 0 0
SMALL
GASTEIGER

@<TRIPOS>ATOM
      1  N1        -5.9640   25.7710   -0.8820 N.am  201  DU3201     -0.1790
      2  C2        -5.4540   24.6600   -1.5370 C.1   201  DU3201      0.2844
      3  O2        -6.1020   23.6150   -1.6120 O.2   201  DU3201     -0.1918
      4  N3        -4.1800   24.7290   -2.1160 N.2   201  DU3201     -0.2452
      5  C4        -3.4520   25.9080   -2.0460 C.1   201  DU3201      0.2182
      6  O4        -2.3450   25.9210   -2.5750 O.2   201  DU3201     -0.2085
      7  C5        -3.9510   27.0320   -1.3800 C.2   201  DU3201      0.1242
      8  C6        -5.2280   26.9610   -0.7950 C.2   201  DU3201      0.0928
      9  C1'       -7.3370   25.6430   -0.3210 C.3   201  DU3201      0.2090
     10  C17       -8.9150   27.3350   -5.2680 C.3   201  DU3201      0.1172
     11  C18       -9.4370   26.5790   -6.5100 C.ar  201  DU3201     -0.0024
     12  C19       -9.4420   27.2280   -7.7440 C.ar  201  DU3201     -0.0026
     13  C2'       -7.7150   26.8020    0.5760 C.3   201  DU3201      0.0874
     14  C20       -9.8990   26.5880   -8.8910 C.ar  201  DU3201     -0.0003
     15  C21      -10.3380   25.2760   -8.8070 C.ar  201  DU3201     -0.0000
     16  C22      -10.3250   24.6220   -7.5830 C.ar  201  DU3201     -0.0003
     17  C23       -9.8740   25.2660   -6.4370 C.ar  201  DU3201     -0.0026
     18  C24       -7.4060   27.1260   -5.2960 C.ar  201  DU3201     -0.0024
     19  C25       -6.5960   28.1430   -5.8020 C.ar  201  DU3201     -0.0026
     20  C26       -5.2150   27.9510   -5.8340 C.ar  201  DU3201     -0.0003
     21  C27       -4.6520   26.7590   -5.3860 C.ar  201  DU3201     -0.0000
     22  C28       -5.4650   25.7480   -4.9060 C.ar  201  DU3201     -0.0003
     23  C29       -6.8420   25.9210   -4.8550 C.ar  201  DU3201     -0.0026
     24  C3'       -8.4930   27.7450   -0.3210 C.3   201  DU3201      0.1846
     25  O3'       -9.5870   28.2850    0.4360 O.3   201  DU3201     -0.2203
     26  C4'       -9.0440   26.9030   -1.4640 C.3   201  DU3201      0.1647
     27  O4'       -8.1510   25.7350   -1.5210 O.3   201  DU3201     -0.3350
     28  C5'       -9.1460   27.7540   -2.8030 C.3   201  DU3201      0.1215
     29  N5'       -9.5240   26.8980   -3.9780 N.3   201  DU3201     -0.2079
@<TRIPOS>BOND
     1    14    15   ar
     2    14    12   ar
     3    15    16   ar
     4    12    11   ar
     5    16    17   ar
     6    11    17   ar
     7    11    10    1
     8    20    19   ar
     9    20    21   ar
    10    19    18   ar
    11    21    22   ar
    12    18    10    1
    13    18    23   ar
    14    10    29    1
    15    22    23   ar
    16    29    28    1
    17    28    26    1
    18     6     5    2
    19     4     5    2
    20     4     2    2
    21     5     7    1
    22     3     2    2
    23     2     1   am
    24    27    26    1
    25    27     9    1
    26    26    24    1
    27     7     8    2
    28     1     8    1
    29     1     9    1
    30     9    13    1
    31    24    25    1
    32    24    13    1
