@<TRIPOS>MOLECULE
3t65_KDA_B_1.pdb
 19 19 0 0 0
SMALL
GASTEIGER

@<TRIPOS>ATOM
      1  C1         5.0310   41.2680  139.2610 C.2   302  KDA302      0.4152
      2  O1A        5.5400   42.4110  139.1400 O.co2 302  KDA302     -0.2402
      3  O1B        4.3620   40.9680  140.2820 O.co2 302  KDA302     -0.2402
      4  C2         5.2460   40.2750  138.1840 C.3   302  KDA302      0.2866
      5  C3         4.0040   40.0220  137.3780 C.3   302  KDA302      0.1036
      6  C4         4.2660   39.2100  136.1430 C.3   302  KDA302      0.1901
      7  O4         3.0840   39.1310  135.3910 O.3   302  KDA302     -0.2201
      8  C5         5.3770   39.7470  135.3260 C.3   302  KDA302      0.2118
      9  O5         5.0120   40.9910  134.8030 O.3   302  KDA302     -0.2177
     10  C6         6.6150   39.8730  136.1690 C.3   302  KDA302      0.1837
     11  O6         6.3660   40.7300  137.3600 O.3   302  KDA302     -0.3230
     12  C7         7.8720   40.4110  135.4800 C.3   302  KDA302      0.2143
     13  O7         7.7210   41.7310  135.1410 O.3   302  KDA302     -0.2176
     14  C8         8.2270   39.6020  134.2680 C.3   302  KDA302      0.2174
     15  O8         7.3860   39.7430  133.1770 O.3   302  KDA302     -0.2175
     16  O2         5.6760   39.0880  138.7600 O.3   302  KDA302     -0.3211
     17  C9         6.9230   39.1030  139.4020 C.3   302  KDA302      0.1714
     18  C10        7.5100   37.7970  139.8710 C.2   302  KDA302      0.0057
     19  C11        8.8730   37.6330  139.8320 C.2   302  KDA302     -0.0023
@<TRIPOS>BOND
     1    15    14    1
     2    14    12    1
     3     9     8    1
     4    13    12    1
     5     8     6    1
     6     8    10    1
     7     7     6    1
     8    12    10    1
     9     6     5    1
    10    10    11    1
    11    11     4    1
    12     5     4    1
    13     4    16    1
    14     4     1    1
    15    16    17    1
    16     2     1   ar
    17     1     3   ar
    18    17    18    1
    19    19    18    2
