@<TRIPOS>MOLECULE
3t6a_POG_B_1.pdb
 17 16 0 0 0
SMALL
GASTEIGER

@<TRIPOS>ATOM
      1  O2        19.4700   83.3340   88.2180 O.3   834  POG834     -0.2205
      2  C5        20.8480   83.5710   88.3280 C.3   834  POG834      0.1815
      3  O4        25.9550   76.5980   81.7670 O.3   834  POG834     -0.2177
      4  C9        26.1560   77.8900   82.3090 C.3   834  POG834      0.2114
      5  C10       26.7130   79.0720   81.4660 C.3   834  POG834      0.1483
      6  O5        26.7400   80.3030   82.1110 O.3   834  POG834     -0.3510
      7  C11       25.5890   81.0960   82.1420 C.3   834  POG834      0.1715
      8  C12       25.5290   82.2180   83.1670 C.3   834  POG834      0.1449
      9  O6        24.4330   82.1310   84.0130 O.3   834  POG834     -0.3511
     10  C13       24.3650   83.0230   85.0890 C.3   834  POG834      0.1715
     11  C14       23.5530   82.5980   86.3400 C.3   834  POG834      0.1449
     12  O7        22.9910   83.6810   87.0130 O.3   834  POG834     -0.3510
     13  C15       21.5810   83.7630   86.9790 C.3   834  POG834      0.1748
     14  C16       21.5660   82.6080   89.2000 C.3   834  POG834      0.0382
     15  C17       22.5570   81.4950   86.0690 C.3   834  POG834      0.0347
     16  C18       25.7030   83.6190   82.5930 C.3   834  POG834      0.0347
     17  C19       27.9780   78.8110   80.6910 C.3   834  POG834      0.0349
@<TRIPOS>BOND
     1    17     5    1
     2     5     6    1
     3     5     4    1
     4     3     4    1
     5     6     7    1
     6     7     8    1
     7    16     8    1
     8     8     9    1
     9     9    10    1
    10    10    11    1
    11    15    11    1
    12    11    12    1
    13    13    12    1
    14    13     2    1
    15     1     2    1
    16     2    14    1
