@<TRIPOS>MOLECULE
3t6b_III_C_1.pdb
 48 51 0 0 0
SMALL
GASTEIGER

@<TRIPOS>ATOM
      1  N         22.6620   14.8870   56.5560 N.3     1  VAL1       -0.1231
      2  CA        21.9220   16.1400   56.4230 C.3     1  VAL1        0.1692
      3  C         21.6820   16.5190   54.9610 C.2     1  VAL1        0.2592
      4  O         22.5490   16.3480   54.1050 O.2     1  VAL1       -0.2718
      5  CB        22.6340   17.3000   57.1240 C.3     1  VAL1        0.0266
      6  CG1       21.8320   18.5630   56.9450 C.3     1  VAL1        0.0020
      7  CG2       22.8120   16.9930   58.5990 C.3     1  VAL1        0.0020
      8  N         20.5010   17.0510   54.6840 N.am    2  VAL2       -0.1966
      9  CA        20.0580   17.2340   53.3110 C.3     2  VAL2        0.1727
     10  C         19.9000   18.7040   52.9200 C.2     2  VAL2        0.2616
     11  O         19.6540   19.5620   53.7670 O.2     2  VAL2       -0.2715
     12  CB        18.7280   16.4790   53.0850 C.3     2  VAL2        0.0290
     13  CG1       17.8770   17.1760   52.0560 C.3     2  VAL2        0.0023
     14  CG2       18.9940   15.0180   52.7040 C.3     2  VAL2        0.0023
     15  N         20.0950   18.9860   51.6340 N.am    3  TYR3       -0.1960
     16  CA        19.6810   20.2480   51.0370 C.3     3  TYR3        0.1756
     17  C         18.5990   19.9510   50.0020 C.2     3  TYR3        0.2461
     18  O         18.8740   19.3250   48.9770 O.2     3  TYR3       -0.2730
     19  CB        20.8580   20.9520   50.3660 C.3     3  TYR3        0.0574
     20  CG        20.5330   22.3520   49.8830 C.ar    3  TYR3       -0.0198
     21  CD1       20.9330   23.4690   50.6070 C.ar    3  TYR3       -0.0009
     22  CD2       19.8150   22.5550   48.7090 C.ar    3  TYR3       -0.0009
     23  CE1       20.6350   24.7450   50.1710 C.ar    3  TYR3        0.0417
     24  CE2       19.5150   23.8240   48.2640 C.ar    3  TYR3        0.0417
     25  CZ        19.9250   24.9170   48.9970 C.ar    3  TYR3        0.1957
     26  OH        19.6220   26.1860   48.5540 O.3     3  TYR3       -0.2866
     27  N         17.3600   20.3870   50.2710 N.am    4  PRO4       -0.2716
     28  CA        16.2200   20.1250   49.3890 C.3     4  PRO4        0.1536
     29  C         16.2120   21.0490   48.1780 C.2     4  PRO4        0.2599
     30  O         16.7760   22.1390   48.2350 O.2     4  PRO4       -0.2715
     31  CB        15.0290   20.4560   50.2810 C.3     4  PRO4        0.0310
     32  CG        15.5330   21.5740   51.1240 C.3     4  PRO4        0.0237
     33  CD        16.9730   21.2220   51.4220 C.3     4  PRO4        0.0939
     34  N         15.5690   20.6280   47.0980 N.am    5  TRP5       -0.1939
     35  CA        15.4040   21.5100   45.9510 C.3     5  TRP5        0.2018
     36  C         14.1120   22.3030   46.1010 C.2     5  TRP5        0.3845
     37  O         13.6180   22.4530   47.2190 O.co2   5  TRP5       -0.2437
     38  CB        15.4240   20.7260   44.6370 C.3     5  TRP5        0.0575
     39  CG        14.5810   19.4960   44.6520 C.2     5  TRP5       -0.0136
     40  CD1       14.9780   18.2370   44.9940 C.2     5  TRP5        0.0907
     41  CD2       13.1930   19.4010   44.3120 C.3     5  TRP5        0.0819
     42  NE1       13.9230   17.3620   44.8870 N.2     5  TRP5       -0.2482
     43  CE2       12.8160   18.0510   44.4690 C.2     5  TRP5        0.0665
     44  CE3       12.2320   20.3270   43.8920 C.2     5  TRP5       -0.0164
     45  CZ2       11.5230   17.6020   44.2200 C.2     5  TRP5        0.0153
     46  CZ3       10.9450   19.8800   43.6460 C.2     5  TRP5       -0.0038
     47  CH2       10.6030   18.5290   43.8080 C.2     5  TRP5        0.0009
     48  OXT       13.5430   22.8180   45.1350 O.co2   5  TRP5       -0.2437
@<TRIPOS>BOND
     1    46    47    1
     2    46    44    2
     3    47    45    2
     4    44    41    1
     5    45    43    1
     6    41    43    1
     7    41    39    1
     8    43    42    2
     9    38    39    1
    10    38    35    1
    11    39    40    2
    12    42    40    1
    13    48    36   ar
    14    35    36    1
    15    35    34    1
    16    36    37   ar
    17    34    29   am
    18    29    30    2
    19    29    28    1
    20    24    22   ar
    21    24    25   ar
    22    26    25    1
    23    22    20   ar
    24    18    17    2
    25    25    23   ar
    26    28    27    1
    27    28    31    1
    28    20    19    1
    29    20    21   ar
    30    17    27   am
    31    17    16    1
    32    23    21   ar
    33    27    33    1
    34    31    32    1
    35    19    16    1
    36    16    15    1
    37    32    33    1
    38    15    10   am
    39    13    12    1
    40    14    12    1
    41    10     9    1
    42    10    11    2
    43    12     9    1
    44     9     8    1
    45     4     3    2
    46     8     3   am
    47     3     2    1
    48     2     1    1
    49     2     5    1
    50     6     5    1
    51     5     7    1
