@<TRIPOS>MOLECULE
3t6c_GCO_A_1.pdb
 13 12 0 0 0
SMALL
GASTEIGER

@<TRIPOS>ATOM
      1  C1        81.8660   24.7670    9.0530 C.2   601  GCO601      0.3973
      2  C2        80.9360   25.6580    9.7870 C.3   601  GCO601      0.2865
      3  C3        81.1810   27.1410    9.5840 C.3   601  GCO601      0.2260
      4  C4        80.3790   27.9580   10.5760 C.3   601  GCO601      0.2180
      5  C5        81.1740   29.1660   11.0070 C.3   601  GCO601      0.2175
      6  C6        80.4540   30.0340   12.0240 C.3   601  GCO601      0.2175
      7  O11       83.0260   25.1410    8.7090 O.co2 601  GCO601     -0.2427
      8  O12       81.5300   23.5470    8.9030 O.co2 601  GCO601     -0.2427
      9  O2        79.6260   25.1790    9.6320 O.3   601  GCO601     -0.2080
     10  O3        80.8330   27.4130    8.2770 O.3   601  GCO601     -0.2169
     11  O4        79.1780   28.3540    9.9390 O.3   601  GCO601     -0.2175
     12  O5        82.3670   28.7320   11.5460 O.3   601  GCO601     -0.2175
     13  O6        81.1960   31.1520   12.4700 O.3   601  GCO601     -0.2175
@<TRIPOS>BOND
     1    10     3    1
     2     7     1   ar
     3     8     1   ar
     4     1     2    1
     5     3     2    1
     6     3     4    1
     7     9     2    1
     8    11     4    1
     9     4     5    1
    10     5    12    1
    11     5     6    1
    12     6    13    1
