@<TRIPOS>MOLECULE
3t6d_UQ9_L_2.pdb
 23 23 0 0 0
SMALL
GASTEIGER

@<TRIPOS>ATOM
      1  C16      -48.7950 -104.5990   23.1380 C.3   503  UQ9503      0.0260
      2  C14      -50.0930 -105.4040   23.1700 C.2   503  UQ9503     -0.0478
      3  C15      -50.9290 -105.5400   21.8900 C.3   503  UQ9503      0.0260
      4  C13      -50.4770 -106.0070   24.3720 C.2   503  UQ9503     -0.0342
      5  C12      -51.5980 -106.7890   24.6840 C.3   503  UQ9503      0.0297
      6  C11      -51.5210 -108.2380   24.1560 C.3   503  UQ9503      0.0264
      7  C9       -50.2490 -108.9670   24.6030 C.2   503  UQ9503     -0.0475
      8  C10      -50.1140 -109.2680   26.0860 C.3   503  UQ9503      0.0260
      9  C8       -49.3140 -109.3830   23.6460 C.2   503  UQ9503     -0.0298
     10  C7       -48.0410 -109.9760   23.7100 C.3   503  UQ9503      0.0548
     11  C6       -47.0310 -108.8680   23.3100 C.2   503  UQ9503      0.0235
     12  C1       -45.8490 -108.6130   24.0190 C.2   503  UQ9503      0.0198
     13  C1M      -45.4520 -109.4520   25.2380 C.3   503  UQ9503      0.0343
     14  C2       -44.9950 -107.5800   23.6200 C.2   503  UQ9503      0.2282
     15  O2       -43.9670 -107.4020   24.2600 O.2   503  UQ9503     -0.2836
     16  C3       -45.2720 -106.7550   22.5210 C.2   503  UQ9503      0.2140
     17  O3       -44.3840 -105.7680   22.1640 O.2   503  UQ9503     -0.4652
     18  C3M      -44.9540 -104.4720   21.9130 C.3   503  UQ9503      0.2528
     19  C4       -46.4420 -106.9930   21.7900 C.2   503  UQ9503      0.2140
     20  O4       -46.7710 -106.2120   20.6910 O.2   503  UQ9503     -0.4652
     21  C4M      -47.1860 -106.9560   19.5000 C.3   503  UQ9503      0.2528
     22  C5       -47.2960 -108.0310   22.2010 C.2   503  UQ9503      0.2285
     23  O5       -48.3230 -108.2100   21.5450 O.2   503  UQ9503     -0.2835
@<TRIPOS>BOND
     1    21    20    1
     2    20    19    1
     3    23    22    2
     4    19    22    1
     5    19    16    2
     6     3     2    1
     7    18    17    1
     8    17    16    1
     9    22    11    1
    10    16    14    1
    11     1     2    1
    12     2     4    2
    13    11    10    1
    14    11    12    2
    15    14    12    1
    16    14    15    2
    17     9    10    1
    18     9     7    2
    19    12    13    1
    20     6     7    1
    21     6     5    1
    22     4     5    1
    23     7     8    1
