@<TRIPOS>MOLECULE
3t6d_NS5_M_1.pdb
 40 39 0 0 0
SMALL
GASTEIGER

@<TRIPOS>ATOM
      1  C1       -37.9660  -95.0410   22.2020 C.3   600  NS5600      0.0000
      2  CM1      -37.4500  -93.8160   21.3920 C.3   600  NS5600      0.0000
      3  CM2      -36.9500  -95.4140   23.2970 C.3   600  NS5600      0.0000
      4  C2       -39.3230  -94.7090   22.8130 C.3   600  NS5600      0.0003
      5  C3       -39.9870  -95.9200   23.4680 C.3   600  NS5600      0.0043
      6  C4       -40.9800  -95.4230   24.5130 C.3   600  NS5600      0.0217
      7  C5       -41.6510  -96.5650   25.2660 C.2   600  NS5600     -0.0482
      8  C6       -41.8730  -97.9410   24.6280 C.3   600  NS5600      0.0260
      9  C7       -42.1020  -96.3000   26.5050 C.2   600  NS5600     -0.0343
     10  C8       -42.8000  -97.3990   27.2830 C.3   600  NS5600      0.0297
     11  C9       -43.3910  -96.8670   28.5460 C.3   600  NS5600      0.0264
     12  C10      -44.1930  -97.8730   29.3560 C.2   600  NS5600     -0.0475
     13  C11      -44.5940  -99.2770   28.9190 C.3   600  NS5600      0.0260
     14  C12      -44.6270  -97.3980   30.5470 C.2   600  NS5600     -0.0299
     15  C13      -45.4960  -98.1970   31.4710 C.3   600  NS5600      0.0510
     16  C14      -45.8050  -97.4870   32.6010 C.2   600  NS5600     -0.0257
     17  C15      -46.7720  -97.9640   33.6350 C.2   600  NS5600     -0.0258
     18  C16      -47.6940  -99.1800   33.3430 C.3   600  NS5600      0.0307
     19  C17      -46.6650  -97.1480   34.7530 C.2   600  NS5600     -0.0046
     20  C18      -47.4470  -97.1440   35.9580 C.2   600  NS5600     -0.0007
     21  C19      -47.3290  -96.2550   37.0060 C.2   600  NS5600     -0.0043
     22  C20      -46.2810  -95.2650   37.4290 C.2   600  NS5600     -0.0221
     23  C21      -46.6100  -94.3610   38.4570 C.3   600  NS5600      0.0440
     24  C22      -48.0130  -94.3100   39.1230 C.3   600  NS5600      0.0094
     25  C23      -45.5460  -93.3890   38.9300 C.2   600  NS5600     -0.0221
     26  C24      -45.8970  -92.3130   39.6780 C.2   600  NS5600     -0.0046
     27  C25      -44.8110  -91.3180   40.0590 C.2   600  NS5600     -0.0046
     28  C26      -45.1240  -90.0340   40.3860 C.2   600  NS5600     -0.0219
     29  C27      -46.5590  -89.4830   40.3090 C.3   600  NS5600      0.0310
     30  C28      -43.9660  -89.1710   40.8250 C.2   600  NS5600     -0.0043
     31  C29      -44.0820  -87.8120   40.9160 C.2   600  NS5600     -0.0010
     32  C30      -42.9090  -87.0200   41.4610 C.2   600  NS5600     -0.0085
     33  C31      -43.0130  -85.6520   41.5740 C.2   600  NS5600     -0.0436
     34  C32      -44.2960  -84.9300   41.0980 C.3   600  NS5600      0.0264
     35  C33      -41.8680  -84.8560   42.2580 C.3   600  NS5600      0.0267
     36  C34      -40.6540  -84.5720   41.3970 C.3   600  NS5600      0.0297
     37  C35      -39.3730  -84.3380   42.2640 C.2   600  NS5600     -0.0342
     38  C36      -39.1520  -83.3080   43.1420 C.2   600  NS5600     -0.0478
     39  CM3      -40.1890  -82.2060   43.4040 C.3   600  NS5600      0.0260
     40  CM4      -37.8350  -83.2470   43.9250 C.3   600  NS5600      0.0260
@<TRIPOS>BOND
     1     2     1    1
     2     1     4    1
     3     1     3    1
     4     4     5    1
     5     5     6    1
     6     6     7    1
     7     8     7    1
     8     7     9    2
     9     9    10    1
    10    10    11    1
    11    11    12    1
    12    13    12    1
    13    12    14    2
    14    14    15    1
    15    15    16    1
    16    16    17    2
    17    18    17    1
    18    17    19    1
    19    19    20    2
    20    20    21    1
    21    21    22    2
    22    22    23    1
    23    23    25    1
    24    23    24    1
    25    25    26    2
    26    26    27    1
    27    27    28    2
    28    29    28    1
    29    28    30    1
    30    30    31    2
    31    31    32    1
    32    34    33    1
    33    36    35    1
    34    36    37    1
    35    32    33    2
    36    33    35    1
    37    37    38    2
    38    38    39    1
    39    38    40    1
