@<TRIPOS>MOLECULE
3t6d_HEC_C_1.pdb
 43 50 0 0 0
SMALL
GASTEIGER

@<TRIPOS>ATOM
      1 FE        -10.9430 -143.1280   45.2040 Fe    401  HEC401      0.0000
      2  CHA       -9.0540 -142.7840   47.9960 C.2   401  HEC401      0.0000
      3  CHB       -9.8560 -146.2860   44.8090 C.2   401  HEC401      0.0000
      4  CHC      -12.9710 -143.5040   42.5350 C.2   401  HEC401      0.0000
      5  CHD      -11.8380 -139.9150   45.4560 C.2   401  HEC401      0.0000
      6  NA        -9.7010 -144.3370   46.2150 N.ar  401  HEC401      0.0000
      7  C1A       -8.9360 -143.9880   47.3070 C.ar  401  HEC401      0.0000
      8  C2A       -8.0340 -144.9950   47.6410 C.ar  401  HEC401      0.0000
      9  C3A       -8.2890 -146.0450   46.7360 C.ar  401  HEC401      0.0000
     10  C4A       -9.3370 -145.5880   45.9130 C.ar  401  HEC401      0.0000
     11  CMA       -7.5460 -147.3740   46.7110 C.3   401  HEC401      0.0000
     12  CAA       -7.0280 -145.0180   48.7320 C.3   401  HEC401      0.0000
     13  CBA       -5.6140 -144.7610   48.2130 C.3   401  HEC401      0.0000
     14  CGA       -4.5950 -144.7380   49.2690 C.2   401  HEC401      0.0000
     15  O1A       -4.6500 -143.8930   50.1710 O.co2 401  HEC401      0.0000
     16  O2A       -3.6640 -145.5720   49.2740 O.co2 401  HEC401      0.0000
     17  NB       -11.3640 -144.6400   43.8850 N.2   401  HEC401      0.0000
     18  C1B      -10.8350 -145.8760   43.8690 C.2   401  HEC401      0.0000
     19  C2B      -11.4050 -146.6850   42.8510 C.2   401  HEC401      0.0000
     20  C3B      -12.3210 -145.8740   42.1910 C.2   401  HEC401      0.0000
     21  C4B      -12.2630 -144.6520   42.8640 C.2   401  HEC401      0.0000
     22  CMB      -11.0090 -148.1570   42.5980 C.3   401  HEC401      0.0000
     23  CAB      -13.2430 -146.2260   41.0710 C.3   401  HEC401      0.0000
     24  CBB      -13.9980 -147.4950   41.5410 C.3   401  HEC401      0.0000
     25  NC       -12.1840 -141.9280   44.2210 N.ar  401  HEC401      0.0000
     26  C1C      -12.8230 -142.2020   43.0500 C.ar  401  HEC401      0.0000
     27  C2C      -13.4810 -141.0950   42.5070 C.ar  401  HEC401      0.0000
     28  C3C      -13.1730 -140.0150   43.3320 C.ar  401  HEC401      0.0000
     29  C4C      -12.3530 -140.5910   44.3380 C.ar  401  HEC401      0.0000
     30  CMC      -14.2480 -141.1620   41.2210 C.3   401  HEC401      0.0000
     31  CAC      -13.4960 -138.5640   43.1450 C.3   401  HEC401      0.0000
     32  CBC      -14.9930 -138.2700   43.0440 C.3   401  HEC401      0.0000
     33  ND       -10.5210 -141.6190   46.5000 N.2   401  HEC401      0.0000
     34  C1D      -11.1160 -140.4120   46.5260 C.2   401  HEC401      0.0000
     35  C2D      -10.8030 -139.6830   47.6740 C.2   401  HEC401      0.0000
     36  C3D       -9.9410 -140.5050   48.4230 C.2   401  HEC401      0.0000
     37  C4D       -9.8290 -141.6860   47.6710 C.2   401  HEC401      0.0000
     38  CMD      -11.2440 -138.3060   48.0180 C.3   401  HEC401      0.0000
     39  CAD       -9.4130 -140.2000   49.7660 C.3   401  HEC401      0.0000
     40  CBD      -10.5030 -140.5330   50.7940 C.3   401  HEC401      0.0000
     41  CGD      -10.2670 -140.1280   52.2080 C.2   401  HEC401      0.0000
     42  O1D      -10.9300 -140.6990   53.1520 O.co2 401  HEC401      0.0000
     43  O2D       -9.4410 -139.2110   52.4740 O.co2 401  HEC401      0.0000
@<TRIPOS>BOND
     1    23    24    1
     2    23    20    1
     3    30    27    1
     4    20    19    2
     5    20    21    1
     6    27    26   ar
     7    27    28   ar
     8     4    21    2
     9     4    26    1
    10    22    19    1
    11    19    18    1
    12    21    17    1
    13    32    31    1
    14    26    25   ar
    15    31    28    1
    16    28    29   ar
    17    18    17    2
    18    18     3    1
    19    17     1    1
    20    25    29   ar
    21    25     1    1
    22    29     5    1
    23     3    10    2
    24     1     6    1
    25     1    33    1
    26     5    34    2
    27    10     6   ar
    28    10     9   ar
    29     6     7   ar
    30    33    34    1
    31    33    37    2
    32    34    35    1
    33    11     9    1
    34     9     8   ar
    35     7     8   ar
    36     7     2    2
    37     8    12    1
    38    37     2    1
    39    37    36    1
    40    35    38    1
    41    35    36    2
    42    13    12    1
    43    13    14    1
    44    36    39    1
    45    14    16   ar
    46    14    15   ar
    47    39    40    1
    48    40    41    1
    49    41    43   ar
    50    41    42   ar
