@<TRIPOS>MOLECULE
3t6e_HEC_C_1.pdb
 43 50 0 0 0
SMALL
GASTEIGER

@<TRIPOS>ATOM
      1 FE        -32.9410  -99.5580   16.4830 Fe    401  HEC401      0.0000
      2  CHA      -32.6400 -101.4850   19.2740 C.2   401  HEC401      0.0000
      3  CHB      -36.1860 -100.6230   16.1220 C.2   401  HEC401      0.0000
      4  CHC      -33.2880  -97.5650   13.8390 C.2   401  HEC401      0.0000
      5  CHD      -29.6180  -98.6790   16.7080 C.2   401  HEC401      0.0000
      6  NA       -34.2060 -100.8050   17.5090 N.ar  401  HEC401      0.0000
      7  C1A      -33.8780 -101.5970   18.6110 C.ar  401  HEC401      0.0000
      8  C2A      -34.9140 -102.4760   18.9630 C.ar  401  HEC401      0.0000
      9  C3A      -35.9550 -102.2050   18.0610 C.ar  401  HEC401      0.0000
     10  C4A      -35.4770 -101.1750   17.2130 C.ar  401  HEC401      0.0000
     11  CMA      -37.3170 -102.8930   18.0410 C.3   401  HEC401      0.0000
     12  CAA      -34.9580 -103.4920   20.0590 C.3   401  HEC401      0.0000
     13  CBA      -34.4590 -104.8180   19.4960 C.3   401  HEC401      0.0000
     14  CGA      -34.4430 -105.9210   20.4520 C.2   401  HEC401      0.0000
     15  O1A      -33.5800 -105.9030   21.3350 O.co2 401  HEC401      0.0000
     16  O2A      -35.2800 -106.8510   20.3950 O.co2 401  HEC401      0.0000
     17  NB       -34.4740  -99.1510   15.1920 N.2   401  HEC401      0.0000
     18  C1B      -35.7540  -99.6280   15.2070 C.2   401  HEC401      0.0000
     19  C2B      -36.5540  -99.0530   14.1870 C.2   401  HEC401      0.0000
     20  C3B      -35.7260  -98.1350   13.5250 C.2   401  HEC401      0.0000
     21  C4B      -34.4610  -98.2600   14.1700 C.2   401  HEC401      0.0000
     22  CMB      -38.0390  -99.4300   13.9800 C.3   401  HEC401      0.0000
     23  CAB      -36.0330  -97.2070   12.3900 C.3   401  HEC401      0.0000
     24  CBB      -37.2480  -96.3160   12.8070 C.3   401  HEC401      0.0000
     25  NC       -31.6870  -98.3540   15.4710 N.ar  401  HEC401      0.0000
     26  C1C      -31.9760  -97.6910   14.3230 C.ar  401  HEC401      0.0000
     27  C2C      -30.8460  -97.0740   13.7680 C.ar  401  HEC401      0.0000
     28  C3C      -29.7730  -97.3880   14.5870 C.ar  401  HEC401      0.0000
     29  C4C      -30.3240  -98.1740   15.6000 C.ar  401  HEC401      0.0000
     30  CMC      -30.8290  -96.3020   12.4870 C.3   401  HEC401      0.0000
     31  CAC      -28.3170  -97.0820   14.3910 C.3   401  HEC401      0.0000
     32  CBC      -27.9560  -95.5880   14.2650 C.3   401  HEC401      0.0000
     33  ND       -31.4070  -99.9980   17.7440 N.2   401  HEC401      0.0000
     34  C1D      -30.1490  -99.4490   17.7680 C.2   401  HEC401      0.0000
     35  C2D      -29.4700  -99.7850   18.9490 C.2   401  HEC401      0.0000
     36  C3D      -30.3460 -100.5930   19.6940 C.2   401  HEC401      0.0000
     37  C4D      -31.5260 -100.7070   18.9320 C.2   401  HEC401      0.0000
     38  CMD      -28.0890  -99.3470   19.3480 C.3   401  HEC401      0.0000
     39  CAD      -30.0840 -101.1580   21.0530 C.3   401  HEC401      0.0000
     40  CBD      -30.3380 -100.0650   22.0920 C.3   401  HEC401      0.0000
     41  CGD      -29.8730 -100.3770   23.4620 C.2   401  HEC401      0.0000
     42  O1D      -30.3580  -99.7410   24.4390 O.co2 401  HEC401      0.0000
     43  O2D      -29.0230 -101.2930   23.6420 O.co2 401  HEC401      0.0000
@<TRIPOS>BOND
     1    23    24    1
     2    23    20    1
     3    30    27    1
     4    20    21    1
     5    20    19    2
     6    27    26   ar
     7    27    28   ar
     8     4    21    2
     9     4    26    1
    10    22    19    1
    11    21    17    1
    12    19    18    1
    13    32    31    1
    14    26    25   ar
    15    31    28    1
    16    28    29   ar
    17    17    18    2
    18    17     1    1
    19    18     3    1
    20    25    29   ar
    21    25     1    1
    22    29     5    1
    23     3    10    2
    24     1     6    1
    25     1    33    1
    26     5    34    2
    27    10     6   ar
    28    10     9   ar
    29     6     7   ar
    30    33    34    1
    31    33    37    2
    32    34    35    1
    33    11     9    1
    34     9     8   ar
    35     7     8   ar
    36     7     2    2
    37    37     2    1
    38    37    36    1
    39    35    38    1
    40    35    36    2
    41     8    12    1
    42    13    12    1
    43    13    14    1
    44    36    39    1
    45    16    14   ar
    46    14    15   ar
    47    39    40    1
    48    40    41    1
    49    41    43   ar
    50    41    42   ar
