@<TRIPOS>MOLECULE
3t6e_UQ9_L_2.pdb
 19 19 0 0 0
SMALL
GASTEIGER

@<TRIPOS>ATOM
      1  C12        1.8540  -64.1580  -11.5900 C.3   503  UQ9503      0.0047
      2  C11        2.3600  -62.7490  -11.2560 C.3   503  UQ9503      0.0217
      3  C9         3.4160  -62.7600  -10.1390 C.2   503  UQ9503     -0.0478
      4  C10        4.6610  -61.8670  -10.2290 C.3   503  UQ9503      0.0260
      5  C8         3.2300  -63.5620   -9.0200 C.2   503  UQ9503     -0.0298
      6  C7         4.0880  -63.6690   -7.9270 C.3   503  UQ9503      0.0548
      7  C6         3.2990  -64.0610   -6.6600 C.2   503  UQ9503      0.0235
      8  C1         3.6440  -65.2150   -5.9450 C.2   503  UQ9503      0.0198
      9  C1M        4.8160  -66.1080   -6.4050 C.3   503  UQ9503      0.0343
     10  C2         2.9280  -65.5730   -4.8020 C.2   503  UQ9503      0.2282
     11  O2         3.2720  -66.5990   -4.2280 O.2   503  UQ9503     -0.2836
     12  C3         1.8500  -64.8050   -4.3340 C.2   503  UQ9503      0.2140
     13  O3         1.1330  -65.1280   -3.2130 O.2   503  UQ9503     -0.4652
     14  C3M        0.1260  -64.1610   -2.9920 C.3   503  UQ9503      0.2528
     15  C4         1.4940  -63.6630   -5.0370 C.2   503  UQ9503      0.2140
     16  O4         0.4580  -62.9110   -4.5860 O.2   503  UQ9503     -0.4652
     17  C4M        0.2710  -61.8140   -5.4970 C.3   503  UQ9503      0.2528
     18  C5         2.2110  -63.2920   -6.1840 C.2   503  UQ9503      0.2285
     19  O5         1.8630  -62.2710   -6.7880 O.2   503  UQ9503     -0.2835
@<TRIPOS>BOND
     1     1     2    1
     2     2     3    1
     3     4     3    1
     4     3     5    2
     5     5     6    1
     6     6     7    1
     7    19    18    2
     8     7    18    1
     9     7     8    2
    10     9     8    1
    11    18    15    1
    12     8    10    1
    13    17    16    1
    14    15    16    1
    15    15    12    2
    16    10    12    1
    17    10    11    2
    18    12    13    1
    19    13    14    1
