@<TRIPOS>MOLECULE
3t6e_NS5_M_1.pdb
 40 39 0 0 0
SMALL
GASTEIGER

@<TRIPOS>ATOM
      1  C1        13.5750  -58.2830    0.1350 C.3   600  NS5600      0.0000
      2  CM1       14.8170  -57.4010   -0.2230 C.3   600  NS5600      0.0000
      3  CM2       12.2690  -57.4990   -0.2270 C.3   600  NS5600      0.0000
      4  C2        13.6460  -59.6810   -0.5650 C.3   600  NS5600      0.0003
      5  C3        13.9180  -60.9450    0.3210 C.3   600  NS5600      0.0043
      6  C4        15.2020  -61.7450   -0.0850 C.3   600  NS5600      0.0217
      7  C5        14.9680  -63.0550   -0.9230 C.2   600  NS5600     -0.0482
      8  C6        15.1670  -63.0230   -2.4550 C.3   600  NS5600      0.0260
      9  C7        14.6320  -64.2360   -0.3060 C.2   600  NS5600     -0.0343
     10  C8        14.3810  -65.6070   -1.0450 C.3   600  NS5600      0.0297
     11  C9        13.6040  -66.7120   -0.2310 C.3   600  NS5600      0.0263
     12  C10       12.5450  -66.0490    0.6760 C.2   600  NS5600     -0.0478
     13  C11       11.1570  -65.6550    0.1730 C.3   600  NS5600      0.0260
     14  C12       12.9560  -65.6890    1.9510 C.2   600  NS5600     -0.0342
     15  C13       12.1120  -64.8980    2.9440 C.3   600  NS5600      0.0297
     16  C14       12.8990  -64.5000    4.0100 C.3   600  NS5600      0.0267
     17  C15       12.4940  -63.6410    5.1600 C.2   600  NS5600     -0.0436
     18  C16       11.3520  -62.6650    4.9610 C.3   600  NS5600      0.0264
     19  C17       13.3370  -63.7370    6.2600 C.2   600  NS5600     -0.0085
     20  C18       13.2210  -62.9590    7.4810 C.2   600  NS5600     -0.0007
     21  C19       14.0360  -63.0230    8.5930 C.2   600  NS5600     -0.0003
     22  C20       15.0410  -64.0590    8.9830 C.2   600  NS5600     -0.0043
     23  C21       15.9980  -63.7240    9.9290 C.2   600  NS5600     -0.0218
     24  C22       16.1050  -62.2960   10.5350 C.3   600  NS5600      0.0310
     25  C23       16.9210  -64.8010   10.4210 C.2   600  NS5600     -0.0043
     26  C24       18.1240  -64.4550   10.9460 C.2   600  NS5600     -0.0006
     27  C25       18.9980  -65.5840   11.4070 C.2   600  NS5600     -0.0043
     28  C26       20.3150  -65.3310   11.7370 C.2   600  NS5600     -0.0218
     29  C27       20.9100  -63.9070   11.6360 C.3   600  NS5600      0.0310
     30  C28       21.1490  -66.5070   12.2120 C.2   600  NS5600     -0.0043
     31  C29       22.5210  -66.3800   12.4250 C.2   600  NS5600     -0.0010
     32  C30       23.3340  -67.6000   12.8420 C.2   600  NS5600     -0.0085
     33  C31       24.7050  -67.4690   13.0750 C.2   600  NS5600     -0.0436
     34  C32       25.4110  -66.1130   12.8900 C.3   600  NS5600      0.0264
     35  C33       25.5420  -68.6800   13.5150 C.3   600  NS5600      0.0267
     36  C34       25.5190  -68.9030   15.0540 C.3   600  NS5600      0.0297
     37  C35       26.0700  -67.7500   15.9630 C.2   600  NS5600     -0.0342
     38  C36       26.6180  -67.9240   17.2180 C.2   600  NS5600     -0.0478
     39  CM3       26.8160  -69.2980   17.8930 C.3   600  NS5600      0.0260
     40  CM4       27.0930  -66.6980   18.0060 C.3   600  NS5600      0.0260
@<TRIPOS>BOND
     1     8     7    1
     2    10     9    1
     3    10    11    1
     4     7     9    2
     5     7     6    1
     6     4     1    1
     7     4     5    1
     8    11    12    1
     9     3     1    1
    10     2     1    1
    11     6     5    1
    12    13    12    1
    13    12    14    2
    14    14    15    1
    15    15    16    1
    16    16    17    1
    17    18    17    1
    18    17    19    2
    19    19    20    1
    20    20    21    2
    21    21    22    1
    22    22    23    2
    23    23    25    1
    24    23    24    1
    25    25    26    2
    26    26    27    1
    27    27    28    2
    28    29    28    1
    29    28    30    1
    30    30    31    2
    31    31    32    1
    32    32    33    2
    33    34    33    1
    34    33    35    1
    35    35    36    1
    36    36    37    1
    37    37    38    2
    38    38    39    1
    39    38    40    1
