@<TRIPOS>MOLECULE
3t6f_BTN_A_1.pdb
 16 17 0 0 0
SMALL
GASTEIGER

@<TRIPOS>ATOM
      1  C11       32.8680   18.1310   14.0600 C.2   5100  BTN5100     0.3649
      2  O11       33.7550   17.4610   13.4900 O.co2 5100  BTN5100    -0.2457
      3  O12       32.8100   19.3810   13.9060 O.co2 5100  BTN5100    -0.2457
      4  C10       31.8720   17.4460   14.9690 C.3   5100  BTN5100     0.1141
      5  C9        31.4550   16.0510   14.5480 C.3   5100  BTN5100     0.0118
      6  C8        30.6960   16.0680   13.2130 C.3   5100  BTN5100     0.0015
      7  C7        30.2300   14.6570   12.8110 C.3   5100  BTN5100     0.0129
      8  C2        29.4270   14.6240   11.5030 C.3   5100  BTN5100     0.0729
      9  S1        27.8170   15.2650   11.6800 S.3   5100  BTN5100    -0.1369
     10  C6        27.4450   14.6480   10.0240 C.3   5100  BTN5100     0.0848
     11  C5        28.0820   13.2610    9.9600 C.3   5100  BTN5100     0.1509
     12  N1        27.2210   12.2150   10.4850 N.2   5100  BTN5100    -0.1859
     13  C3        27.7690   11.7360   11.5780 C.1   5100  BTN5100     0.2386
     14  O3        27.1850   10.7600   12.2990 O.2   5100  BTN5100    -0.2023
     15  N2        28.9480   12.2200   11.8880 N.2   5100  BTN5100    -0.1860
     16  C4        29.2940   13.2180   10.8990 C.3   5100  BTN5100     0.1500
@<TRIPOS>BOND
     1    11    10    1
     2    11    12    1
     3    11    16    1
     4    10     9    1
     5    12    13    2
     6    16     8    1
     7    16    15    1
     8     8     9    1
     9     8     7    1
    10    13    15    2
    11    13    14    2
    12     7     6    1
    13     6     5    1
    14     2     1   ar
    15     3     1   ar
    16     1     4    1
    17     5     4    1
