@<TRIPOS>MOLECULE
3t6i_Z82_A_1.pdb
 10 10 0 0 0
SMALL
GASTEIGER

@<TRIPOS>ATOM
      1  C1        -1.4370   12.5860    9.3670 C.ar  2002  Z822002     0.0798
      2  O1        -2.5820   14.5880    9.9230 O.co2 2002  Z822002    -0.2406
      3  C2        -0.1810   13.1930    9.5510 C.ar  2002  Z822002     0.0071
      4  C3         0.9960   12.4600    9.3820 C.ar  2002  Z822002     0.0069
      5  C4         0.9120   11.1130    9.0280 C.ar  2002  Z822002     0.0346
      6 BR4         2.4930   10.1130    8.8040 Br    2002  Z822002    -0.0490
      7  C5        -0.3180   10.4920    8.8410 C.ar  2002  Z822002     0.0069
      8  C6        -1.4890   11.2290    9.0120 C.ar  2002  Z822002     0.0071
      9  C7        -2.7080   13.3780    9.5580 C.2   2002  Z822002     0.3878
     10  O2        -3.8020   12.7660    9.3530 O.co2 2002  Z822002    -0.2406
@<TRIPOS>BOND
     1     6     5    1
     2     7     8   ar
     3     7     5   ar
     4     8     1   ar
     5     5     4   ar
     6    10     9   ar
     7     1     3   ar
     8     1     9    1
     9     4     3   ar
    10     9     2   ar
