@<TRIPOS>MOLECULE
3t6i_NC9_A_1.pdb
 29 31 0 0 0
SMALL
GASTEIGER

@<TRIPOS>ATOM
      1  C1        -8.0190    0.1470    4.0360 C.3   2001  NC92001     0.1141
      2  N1        -7.7320    1.3780    4.7110 N.3   2001  NC92001    -0.2132
      3  O1        -3.4790    3.2240    5.3480 O.2   2001  NC92001    -0.2745
      4  C2        -6.3450    1.5190    5.0900 C.3   2001  NC92001     0.0911
      5  N2        -4.4030    2.2450    7.2490 N.am  2001  NC92001    -0.2751
      6  O2        -8.5740   -3.4560    5.9320 O.3   2001  NC92001    -0.2155
      7  C3        -5.9040    0.5750    6.1810 C.3   2001  NC92001     0.0414
      8  N3        -0.4950    2.2530   12.4560 N.pl3 2001  NC92001    -0.1281
      9  C4        -4.4440    0.9150    6.6040 C.3   2001  NC92001     0.0954
     10  N4        -8.2620    7.7770    5.3170 N.pl3 2001  NC92001    -0.1281
     11  C5        -4.8720    2.3870    8.5920 C.3   2001  NC92001     0.1201
     12  C6        -3.7080    2.3640    9.6380 C.ar  2001  NC92001    -0.0023
     13  C7        -3.8720    3.3760    6.4880 C.2   2001  NC92001     0.2303
     14  C8        -4.9990    5.5670    6.6540 C.ar  2001  NC92001    -0.0130
     15  C9        -5.9590   -0.8700    5.7990 C.3   2001  NC92001     0.0274
     16  C10       -7.3210   -1.4560    5.8980 C.2   2001  NC92001    -0.0144
     17  C11       -7.5060   -2.7530    6.5710 C.3   2001  NC92001     0.2041
     18  C14       -8.3730   -0.9430    4.9740 C.2   2001  NC92001    -0.0134
     19  C20       -3.7700    3.1540   10.7420 C.ar  2001  NC92001    -0.0012
     20  C21       -2.7110    3.1230   11.6850 C.ar  2001  NC92001     0.0178
     21  C22       -1.6080    2.2810   11.4800 C.ar  2001  NC92001     0.0891
     22  C23       -1.5460    1.4810   10.3580 C.ar  2001  NC92001     0.0178
     23  C24       -2.5890    1.5100    9.4310 C.ar  2001  NC92001    -0.0012
     24  C25       -6.2440    5.3990    7.2570 C.ar  2001  NC92001    -0.0024
     25  C26       -7.3070    6.1170    6.8250 C.ar  2001  NC92001     0.0177
     26  C27       -7.1530    7.0250    5.7680 C.ar  2001  NC92001     0.0891
     27  C28       -5.9150    7.1930    5.1670 C.ar  2001  NC92001     0.0177
     28  C29       -4.8460    6.4670    5.5990 C.ar  2001  NC92001    -0.0024
     29  C30       -3.8070    4.7660    7.1310 C.3   2001  NC92001     0.1116
@<TRIPOS>BOND
     1     1     2    1
     2     1    18    1
     3     2     4    1
     4    18    16    2
     5     4     7    1
     6    27    28   ar
     7    27    26   ar
     8    10    26    1
     9     3    13    2
    10    28    14   ar
    11    26    25   ar
    12    15    16    1
    13    15     7    1
    14    16    17    1
    15     6    17    1
    16     7     9    1
    17    13    29    1
    18    13     5   am
    19     9     5    1
    20    14    29    1
    21    14    24   ar
    22    25    24   ar
    23     5    11    1
    24    11    12    1
    25    23    12   ar
    26    23    22   ar
    27    12    19   ar
    28    22    21   ar
    29    19    20   ar
    30    21    20   ar
    31    21     8    1
