@<TRIPOS>MOLECULE
3t6i_NC8_A_1.pdb
 38 41 0 0 0
SMALL
GASTEIGER

@<TRIPOS>ATOM
      1  C1         0.7450    3.5740    8.9380 C.2   1001  NC81001     0.0756
      2  N1         2.0190    4.1540    9.2670 N.pl3 1001  NC81001    -0.2366
      3  O1        -0.8340    8.5950   12.1430 O.2   1001  NC81001    -0.2745
      4 BR1        -4.6390   11.7980    3.8510 Br    1001  NC81001    -0.0490
      5  C2         2.0440    4.8050   10.5530 C.3   1001  NC81001     0.1139
      6  N2         1.4090    8.1000   12.2220 N.am  1001  NC81001    -0.2751
      7  O2        -2.0730    7.3430    8.6130 O.3   1001  NC81001    -0.4451
      8  C3         1.7500    6.2840   10.5010 C.3   1001  NC81001     0.0419
      9  N3         4.2880    6.8970   17.8390 N.pl3 1001  NC81001    -0.1281
     10  O3        -3.9150    8.0710    9.6410 O.2   1001  NC81001    -0.2449
     11  C4         1.1480    6.6850   11.8820 C.3   1001  NC81001     0.0955
     12  N4        -3.9060   12.9370   15.2570 N.pl3 1001  NC81001    -0.1281
     13  C5         2.7390    8.5320   12.4640 C.3   1001  NC81001     0.1201
     14  C6         3.1530    8.0950   13.9020 C.ar  1001  NC81001    -0.0023
     15  C7         0.2890    9.0160   12.3500 C.2   1001  NC81001     0.2303
     16  C8        -0.6290   11.1460   13.3800 C.ar  1001  NC81001    -0.0130
     17  C9         0.8170    6.6630    9.3900 C.3   1001  NC81001     0.0116
     18  C10       -0.4460    5.8680    9.4310 C.3   1001  NC81001     0.0673
     19  C11       -1.7260    6.5220    9.7280 C.3   1001  NC81001     0.2130
     20  C12       -3.3000    7.9910    8.6190 C.2   1001  NC81001     0.3412
     21  C13       -3.6130    8.9080    7.4580 C.ar  1001  NC81001     0.0757
     22  C14       -0.4690    4.4150    9.0890 C.2   1001  NC81001    -0.0054
     23  C15       -4.6900    9.7760    7.5480 C.ar  1001  NC81001     0.0069
     24  C16       -4.9890   10.6210    6.4860 C.ar  1001  NC81001     0.0069
     25  C17       -4.1840   10.5860    5.3190 C.ar  1001  NC81001     0.0346
     26  C18       -3.1070    9.7180    5.2280 C.ar  1001  NC81001     0.0069
     27  C19       -2.8020    8.8660    6.3000 C.ar  1001  NC81001     0.0069
     28  C20        4.4060    7.6250   14.1230 C.ar  1001  NC81001    -0.0012
     29  C21        4.7990    7.2320   15.4290 C.ar  1001  NC81001     0.0178
     30  C22        3.8810    7.3140   16.4790 C.ar  1001  NC81001     0.0891
     31  C23        2.6010    7.7810   16.2540 C.ar  1001  NC81001     0.0178
     32  C24        2.2140    8.1710   14.9710 C.ar  1001  NC81001    -0.0012
     33  C25       -1.2970   12.1990   12.7540 C.ar  1001  NC81001    -0.0024
     34  C26       -2.3630   12.7860   13.3580 C.ar  1001  NC81001     0.0177
     35  C27       -2.7980   12.3340   14.6170 C.ar  1001  NC81001     0.0891
     36  C28       -2.1310   11.2900   15.2380 C.ar  1001  NC81001     0.0177
     37  C29       -1.0580   10.7020   14.6320 C.ar  1001  NC81001    -0.0024
     38  C30        0.5680   10.4890   12.7160 C.3   1001  NC81001     0.1116
@<TRIPOS>BOND
     1     4    25    1
     2    26    25   ar
     3    26    27   ar
     4    25    24   ar
     5    27    21   ar
     6    24    23   ar
     7    21    23   ar
     8    21    20    1
     9     7    20    1
    10     7    19    1
    11    20    10    2
    12     1    22    2
    13     1     2    1
    14    22    18    1
    15     2     5    1
    16    17    18    1
    17    17     8    1
    18    18    19    1
    19     8     5    1
    20     8    11    1
    21    11     6    1
    22     3    15    2
    23     6    15   am
    24     6    13    1
    25    15    38    1
    26    13    14    1
    27    38    16    1
    28    33    34   ar
    29    33    16   ar
    30    34    35   ar
    31    16    37   ar
    32    14    28   ar
    33    14    32   ar
    34    28    29   ar
    35    35    36   ar
    36    35    12    1
    37    37    36   ar
    38    32    31   ar
    39    29    30   ar
    40    31    30   ar
    41    30     9    1
