@<TRIPOS>MOLECULE
3t6j_III_B_1.pdb
 48 51 0 0 0
SMALL
GASTEIGER

@<TRIPOS>ATOM
      1  N        -36.2570  -15.7390   25.0410 N.3     1  VAL1       -0.1231
      2  CA       -35.8150  -16.5270   23.9000 C.3     1  VAL1        0.1692
      3  C        -37.0020  -17.2640   23.2850 C.2     1  VAL1        0.2592
      4  O        -37.8840  -17.7510   23.9930 O.2     1  VAL1       -0.2718
      5  CB       -34.6890  -17.5110   24.2810 C.3     1  VAL1        0.0266
      6  CG1      -35.2340  -18.6390   25.1400 C.3     1  VAL1        0.0020
      7  CG2      -34.0150  -18.0570   23.0320 C.3     1  VAL1        0.0020
      8  N        -37.0030  -17.3510   21.9610 N.am    2  VAL2       -0.1966
      9  CA       -38.2020  -17.6940   21.2030 C.3     2  VAL2        0.1727
     10  C        -38.5040  -19.1840   21.0460 C.2     2  VAL2        0.2616
     11  O        -37.6150  -19.9880   20.7790 O.2     2  VAL2       -0.2715
     12  CB       -38.1470  -17.0600   19.7970 C.3     2  VAL2        0.0290
     13  CG1      -39.1600  -17.7140   18.8690 C.3     2  VAL2        0.0023
     14  CG2      -38.3670  -15.5570   19.8870 C.3     2  VAL2        0.0023
     15  N        -39.7720  -19.5310   21.2440 N.am    3  TYR3       -0.1960
     16  CA       -40.3360  -20.7850   20.7610 C.3     3  TYR3        0.1756
     17  C        -41.4250  -20.4320   19.7580 C.2     3  TYR3        0.2461
     18  O        -42.4270  -19.8190   20.1260 O.2     3  TYR3       -0.2730
     19  CB       -40.9260  -21.6070   21.9070 C.3     3  TYR3        0.0574
     20  CG       -41.5130  -22.9330   21.4630 C.ar    3  TYR3       -0.0198
     21  CD1      -40.6990  -24.0410   21.2550 C.ar    3  TYR3       -0.0009
     22  CD2      -42.8780  -23.0760   21.2510 C.ar    3  TYR3       -0.0009
     23  CE1      -41.2280  -25.2540   20.8490 C.ar    3  TYR3        0.0417
     24  CE2      -43.4180  -24.2870   20.8430 C.ar    3  TYR3        0.0417
     25  CZ       -42.5870  -25.3710   20.6450 C.ar    3  TYR3        0.1957
     26  OH       -43.1140  -26.5760   20.2390 O.3     3  TYR3       -0.2866
     27  N        -41.2410  -20.8190   18.4860 N.am    4  PRO4       -0.2716
     28  CA       -42.1290  -20.3530   17.4170 C.3     4  PRO4        0.1536
     29  C        -43.3960  -21.1920   17.2730 C.2     4  PRO4        0.2599
     30  O        -43.5650  -22.1930   17.9700 O.2     4  PRO4       -0.2715
     31  CB       -41.2600  -20.4950   16.1660 C.3     4  PRO4        0.0310
     32  CG       -40.2240  -21.5530   16.5170 C.3     4  PRO4        0.0237
     33  CD       -40.2980  -21.8360   17.9990 C.3     4  PRO4        0.0939
     34  N        -44.2690  -20.7820   16.3580 N.am    5  TRP5       -0.1939
     35  CA       -45.5280  -21.4800   16.1300 C.3     5  TRP5        0.2018
     36  C        -45.4300  -22.4530   14.9600 C.2     5  TRP5        0.3845
     37  O        -44.3420  -22.7350   14.4570 O.co2   5  TRP5       -0.2437
     38  CB       -46.6710  -20.4850   15.9070 C.3     5  TRP5        0.0575
     39  CG       -46.3280  -19.3420   14.9940 C.2     5  TRP5       -0.0136
     40  CD1      -45.7600  -18.1550   15.3510 C.2     5  TRP5        0.0907
     41  CD2      -46.5440  -19.2740   13.5780 C.3     5  TRP5        0.0819
     42  NE1      -45.6020  -17.3540   14.2460 N.2     5  TRP5       -0.2482
     43  CE2      -46.0750  -18.0170   13.1450 C.2     5  TRP5        0.0665
     44  CE3      -47.0850  -20.1530   12.6340 C.2     5  TRP5       -0.0164
     45  CZ2      -46.1300  -17.6190   11.8090 C.2     5  TRP5        0.0153
     46  CZ3      -47.1380  -19.7550   11.3080 C.2     5  TRP5       -0.0038
     47  CH2      -46.6630  -18.4990   10.9090 C.2     5  TRP5        0.0009
     48  OXT      -46.4410  -22.9880   14.5020 O.co2   5  TRP5       -0.2437
@<TRIPOS>BOND
     1    47    46    1
     2    47    45    2
     3    46    44    2
     4    45    43    1
     5    44    41    1
     6    43    41    1
     7    43    42    2
     8    41    39    1
     9    42    40    1
    10    37    36   ar
    11    48    36   ar
    12    36    35    1
    13    39    40    2
    14    39    38    1
    15    38    35    1
    16    35    34    1
    17    31    32    1
    18    31    28    1
    19    34    29   am
    20    32    33    1
    21    29    28    1
    22    29    30    2
    23    28    27    1
    24    33    27    1
    25    27    17   am
    26    13    12    1
    27    17    18    2
    28    17    16    1
    29    12    14    1
    30    12     9    1
    31    26    25    1
    32    25    24   ar
    33    25    23   ar
    34    16    15    1
    35    16    19    1
    36    11    10    2
    37    24    22   ar
    38    23    21   ar
    39    10     9    1
    40    10    15   am
    41     9     8    1
    42    22    20   ar
    43    21    20   ar
    44    20    19    1
    45     8     3   am
    46     7     5    1
    47     3     2    1
    48     3     4    2
    49     2     5    1
    50     2     1    1
    51     5     6    1
