@<TRIPOS>MOLECULE
3t6q_MAN_A_1.pdb
 11 11 0 0 0
SMALL
GASTEIGER

@<TRIPOS>ATOM
      1  C1        38.4240    2.1920   -8.9120 C.3   805  MAN805      0.1777
      2  C2        38.0650    2.4530  -10.3780 C.3   805  MAN805      0.2141
      3  C3        39.2660    3.0090  -11.1180 C.3   805  MAN805      0.2173
      4  C4        39.7910    4.2610  -10.4180 C.3   805  MAN805      0.2142
      5  C5        40.1840    3.8640   -8.9880 C.3   805  MAN805      0.1810
      6  C6        40.7500    5.0420   -8.1660 C.3   805  MAN805      0.2141
      7  O2        37.0760    3.4670  -10.4310 O.3   805  MAN805     -0.2176
      8  O3        38.9110    3.2950  -12.4640 O.3   805  MAN805     -0.2175
      9  O4        40.9340    4.6840  -11.1160 O.3   805  MAN805     -0.2176
     10  O5        39.0440    3.3160   -8.3210 O.3   805  MAN805     -0.3481
     11  O6        39.8930    6.1610   -8.2640 O.3   805  MAN805     -0.2176
@<TRIPOS>BOND
     1     8     3    1
     2     3     4    1
     3     3     2    1
     4     9     4    1
     5     7     2    1
     6     4     5    1
     7     2     1    1
     8     5    10    1
     9     5     6    1
    10     1    10    1
    11    11     6    1
