@<TRIPOS>MOLECULE
3t6r_III_D_1.pdb
 41 40 0 0 0
SMALL
GASTEIGER

@<TRIPOS>ATOM
      1  N         -9.7860   15.6740   85.4600 N.3     1  ALA1       -0.1231
      2  CA       -10.3220   15.0500   84.2050 C.3     1  ALA1        0.1694
      3  C        -10.5730   16.1730   83.2220 C.2     1  ALA1        0.2592
      4  O        -10.9300   17.2910   83.6400 O.2     1  ALA1       -0.2718
      5  CB       -11.6210   14.3120   84.5000 C.3     1  ALA1        0.0304
      6  N        -10.4020   15.8910   81.9330 N.am    2  ARG2       -0.1966
      7  CA       -10.6400   16.8870   80.8800 C.3     2  ARG2        0.1729
      8  C        -12.1210   16.9260   80.4830 C.2     2  ARG2        0.2617
      9  O        -12.7700   15.8750   80.4070 O.2     2  ARG2       -0.2715
     10  CB        -9.8140   16.5520   79.6390 C.3     2  ARG2        0.0348
     11  CG        -8.3120   16.5720   79.8290 C.3     2  ARG2        0.0492
     12  CD        -7.5770   16.0600   78.5770 C.3     2  ARG2        0.2205
     13  NE        -7.9570   14.6910   78.2280 N.pl3   2  ARG2       -0.0865
     14  CZ        -8.5170   14.3490   77.0690 C.cat   2  ARG2        0.5346
     15  NH1       -8.8380   13.0790   76.8250 N.pl3   2  ARG2        0.1354
     16  NH2       -8.7620   15.2860   76.1470 N.pl3   2  ARG2        0.1354
     17  N        -12.6380   18.1320   80.2380 N.am    3  THR3       -0.1937
     18  CA       -13.9530   18.3090   79.6280 C.3     3  THR3        0.2028
     19  C        -13.8300   18.8820   78.2150 C.2     3  THR3        0.2642
     20  O        -12.7700   19.4150   77.8190 O.2     3  THR3       -0.2714
     21  CB       -14.9250   19.2100   80.4720 C.3     3  THR3        0.1808
     22  OG1      -14.3450   20.5140   80.6720 O.3     3  THR3       -0.2208
     23  CG2      -15.2140   18.5490   81.8210 C.3     3  THR3        0.0379
     24  N        -14.9100   18.7710   77.4480 N.am    4  LYS4       -0.1963
     25  CA       -14.8890   19.2320   76.0710 C.3     4  LYS4        0.1728
     26  C        -14.6830   20.7540   76.0020 C.2     4  LYS4        0.2616
     27  O        -14.0010   21.2210   75.1080 O.2     4  LYS4       -0.2715
     28  CB       -16.1520   18.7850   75.3170 C.3     4  LYS4        0.0311
     29  CG       -16.2760   19.3670   73.9170 C.3     4  LYS4        0.0038
     30  CD       -17.3320   18.6600   73.0750 C.3     4  LYS4        0.0206
     31  CE       -16.8090   17.3720   72.4570 C.3     4  LYS4        0.1093
     32  NZ       -17.9370   16.6690   71.8180 N.3     4  LYS4       -0.1314
     33  N        -15.2650   21.5060   76.9400 N.am    5  GLN5       -0.1977
     34  CA       -14.9490   22.9440   77.1120 C.3     5  GLN5        0.1601
     35  C        -14.2880   23.2580   78.4590 C.2     5  GLN5        0.2287
     36  O        -14.8630   22.9890   79.5240 O.2     5  GLN5       -0.2864
     37  CB       -16.1900   23.8230   76.9590 C.3     5  GLN5        0.0394
     38  CG       -16.3170   24.5510   75.6130 C.3     5  GLN5        0.0908
     39  CD       -17.4690   25.5640   75.6060 C.2     5  GLN5        0.2608
     40  OE1      -17.9690   25.9750   76.6690 O.2     5  GLN5       -0.2717
     41  NE2      -17.8990   25.9650   74.4110 N.am    5  GLN5       -0.0878
@<TRIPOS>BOND
     1    32    31    1
     2    31    30    1
     3    30    29    1
     4    29    28    1
     5    41    39   am
     6    27    26    2
     7    28    25    1
     8    39    38    1
     9    39    40    2
    10    38    37    1
    11    26    25    1
    12    26    33   am
    13    25    24    1
    14    16    14    1
    15    15    14    1
    16    33    34    1
    17    37    34    1
    18    14    13    2
    19    34    35    1
    20    24    19   am
    21    20    19    2
    22    19    18    1
    23    13    12    1
    24    35    36    2
    25    12    11    1
    26    18    17    1
    27    18    21    1
    28    10    11    1
    29    10     7    1
    30    17     8   am
    31     9     8    2
    32    21    22    1
    33    21    23    1
    34     8     7    1
    35     7     6    1
    36     6     3   am
    37     3     4    2
    38     3     2    1
    39     2     5    1
    40     2     1    1
