@<TRIPOS>MOLECULE
3t6s_COA_B_1.pdb
 48 50 0 0 0
SMALL
GASTEIGER

@<TRIPOS>ATOM
      1  N1A       20.2390   46.6810  -17.7080 N.2   358  COA358      0.0021
      2  C2A       19.9830   47.5280  -16.6840 C.3   358  COA358      0.5254
      3  N3A       18.7310   47.7890  -16.2530 N.2   358  COA358     -0.0055
      4  C4A       17.6460   47.2050  -16.8330 C.2   358  COA358      0.3518
      5  C5A       17.8530   46.2680  -17.9570 C.2   358  COA358      0.2526
      6  C6A       19.2530   46.0280  -18.3790 C.2   358  COA358      0.4393
      7  N6A       19.5160   45.1850  -19.4010 N.pl3 358  COA358      0.2180
      8  N7A       16.6410   45.8410  -18.3490 N.2   358  COA358     -0.2095
      9  C8A       15.7250   46.4440  -17.5420 C.3   358  COA358      0.3377
     10  N9A       16.3240   47.2580  -16.6360 N.pl3 358  COA358     -0.1439
     11  C1B       15.6420   48.0830  -15.5990 C.3   358  COA358      0.3185
     12  C2B       15.7710   49.5570  -15.9550 C.3   358  COA358      0.2543
     13  O2B       15.9070   50.3560  -14.7720 O.3   358  COA358     -0.2131
     14  C3B       14.4710   49.8240  -16.6920 C.3   358  COA358      0.1928
     15  O3B       14.1100   51.2080  -16.7620 O.3   358  COA358     -0.2673
     16  P3B       14.6750   52.1220  -17.9790 P.3   358  COA358      0.5327
     17  O7A       14.1440   51.4870  -19.2460 O.2   358  COA358     -0.2224
     18  O8A       14.1030   53.4960  -17.6940 O.3   358  COA358     -0.1145
     19  O9A       16.1810   52.0190  -17.8380 O.3   358  COA358     -0.1145
     20  C4B       13.4720   48.9570  -15.9310 C.3   358  COA358      0.1795
     21  O4B       14.2310   47.8020  -15.5330 O.3   358  COA358     -0.3136
     22  C5B       12.2690   48.5560  -16.7720 C.3   358  COA358      0.1812
     23  O5B       12.7620   47.9010  -17.9400 O.3   358  COA358     -0.3112
     24  P1A       11.8070   47.0740  -18.9310 P.3   358  COA358      0.2189
     25  O1A       11.4020   47.9750  -20.0770 O.2   358  COA358     -0.5170
     26  O2A       10.7630   46.3800  -18.0930 O.3   358  COA358     -0.4371
     27  O3A       12.8100   45.9190  -19.4610 O.3   358  COA358     -0.2703
     28  P2A       13.0050   45.5820  -21.0250 P.3   358  COA358      0.2188
     29  O4A       13.9880   46.5800  -21.6020 O.3   358  COA358     -0.4371
     30  O5A       11.6530   45.3490  -21.6620 O.2   358  COA358     -0.5170
     31  O6A       13.7540   44.1600  -20.9960 O.3   358  COA358     -0.3138
     32  CBP       14.2100   41.9030  -20.2630 C.3   358  COA358      0.0645
     33  CCP       13.4450   43.1970  -19.9900 C.3   358  COA358      0.1519
     34  CDP       14.1360   41.0740  -18.9960 C.3   358  COA358      0.0056
     35  CEP       15.6550   42.2460  -20.6290 C.3   358  COA358      0.0056
     36  CAP       13.5540   41.0540  -21.3450 C.3   358  COA358      0.2312
     37  OAP       12.7080   41.8830  -22.1660 O.3   358  COA358     -0.2131
     38  C9P       14.5160   40.2070  -22.1810 C.2   358  COA358      0.2719
     39  O9P       14.2710   40.0790  -23.3700 O.2   358  COA358     -0.2706
     40  N8P       15.5260   39.5410  -21.5900 N.am  358  COA358     -0.2028
     41  C7P       16.2530   38.4670  -22.2560 C.3   358  COA358      0.1248
     42  C6P       17.3020   38.8170  -23.3240 C.3   358  COA358      0.1102
     43  C5P       17.7660   37.5310  -24.0320 C.2   358  COA358      0.2432
     44  O5P       17.3720   36.4260  -23.6440 O.2   358  COA358     -0.2733
     45  N4P       18.5790   37.6640  -25.1030 N.am  358  COA358     -0.2044
     46  C3P       18.9890   36.5330  -25.9490 C.3   358  COA358      0.1276
     47  C2P       20.2980   35.8650  -25.5020 C.3   358  COA358      0.0920
     48  S1P       20.6740   34.3500  -26.3750 S.3   358  COA358     -0.0802
@<TRIPOS>BOND
     1    48    47    1
     2    46    47    1
     3    46    45    1
     4    45    43   am
     5    43    44    2
     6    43    42    1
     7    39    38    2
     8    42    41    1
     9    41    40    1
    10    38    40   am
    11    38    36    1
    12    37    36    1
    13    30    28    2
    14    29    28    1
    15    36    32    1
    16    28    31    1
    17    28    27    1
    18    31    33    1
    19    35    32    1
    20    32    33    1
    21    32    34    1
    22    25    24    2
    23    27    24    1
    24     7     6    1
    25    17    16    2
    26    24    26    1
    27    24    23    1
    28     6     5    1
    29     6     1    2
    30     8     5    2
    31     8     9    1
    32    16    19    1
    33    16    18    1
    34    16    15    1
    35     5     4    1
    36    23    22    1
    37     1     2    1
    38     9    10    1
    39     4    10    1
    40     4     3    2
    41    22    20    1
    42    15    14    1
    43    14    12    1
    44    14    20    1
    45     2     3    1
    46    10    11    1
    47    12    11    1
    48    12    13    1
    49    20    21    1
    50    11    21    1
