@<TRIPOS>MOLECULE
3t6u_SUC_A_1.pdb
 23 24 0 0 0
SMALL
GASTEIGER

@<TRIPOS>ATOM
      1  C1        24.1630    6.2110   -7.3100 C.3   130  SUC130      0.2713
      2  C2        24.0570    7.2960   -6.2390 C.3   130  SUC130      0.2406
      3  C3        23.9250    6.7690   -4.8920 C.3   130  SUC130      0.2198
      4  C4        22.9890    5.6860   -4.7710 C.3   130  SUC130      0.2144
      5  C5        23.2670    4.6000   -5.7800 C.3   130  SUC130      0.1835
      6  C6        22.3890    3.3930   -5.6180 C.3   130  SUC130      0.2142
      7  O1        25.5040    5.7390   -7.4500 O.3   130  SUC130     -0.3033
      8  O2        25.1940    8.1030   -6.2860 O.3   130  SUC130     -0.2149
      9  O3        23.4600    7.8920   -4.1300 O.3   130  SUC130     -0.2174
     10  O4        23.0050    5.1830   -3.4190 O.3   130  SUC130     -0.2176
     11  O5        23.2400    5.1640   -7.1460 O.3   130  SUC130     -0.3256
     12  O6        21.2500    3.2610   -6.4050 O.3   130  SUC130     -0.2176
     13  C1'       26.4790    7.1240   -9.0810 C.3   130  SUC130      0.2406
     14  C2'       25.8800    5.7770   -8.8150 C.3   130  SUC130      0.2516
     15  C3'       26.8420    4.6870   -9.1730 C.3   130  SUC130      0.2381
     16  C4'       26.1100    3.7120   -9.9070 C.3   130  SUC130      0.2167
     17  C5'       24.7910    4.3430  -10.2670 C.3   130  SUC130      0.1835
     18  C6'       23.5750    3.4220  -10.1010 C.3   130  SUC130      0.2142
     19  O1'       27.4720    7.5830   -8.2170 O.3   130  SUC130     -0.2149
     20  O2'       24.6800    5.5420   -9.5600 O.3   130  SUC130     -0.3272
     21  O3'       27.3800    4.0450   -8.0380 O.3   130  SUC130     -0.2150
     22  O4'       26.7890    3.3850  -11.0820 O.3   130  SUC130     -0.2175
     23  O6'       23.2560    2.9290   -8.8440 O.3   130  SUC130     -0.2176
@<TRIPOS>BOND
     1    22    16    1
     2    17    18    1
     3    17    16    1
     4    17    20    1
     5    18    23    1
     6    16    15    1
     7    20    14    1
     8    15    14    1
     9    15    21    1
    10    13    14    1
    11    13    19    1
    12    14     7    1
    13     7     1    1
    14     1    11    1
    15     1     2    1
    16    11     5    1
    17    12     6    1
    18     8     2    1
    19     2     3    1
    20     5     6    1
    21     5     4    1
    22     3     4    1
    23     3     9    1
    24     4    10    1
