@<TRIPOS>MOLECULE
3t6v_CBS_A_1.pdb
 28 29 0 0 0
SMALL
GASTEIGER

@<TRIPOS>ATOM
      1  C1A       27.7470   -9.5090    2.6250 C.3   510  CBS510      0.2586
      2  C2A       28.7750   -8.9370    3.5920 C.3   510  CBS510      0.1842
      3  C3A       28.7710   -9.5860    4.9710 C.3   510  CBS510      0.2094
      4  C4A       27.3700   -9.7870    5.4970 C.3   510  CBS510      0.2136
      5  C5A       26.4260  -10.3200    4.4440 C.3   510  CBS510      0.1834
      6  C6A       25.0080  -10.2110    4.9780 C.3   510  CBS510      0.2142
      7  C7A       30.7170   -7.9200    2.6360 C.2   510  CBS510      0.2420
      8  C8A       32.1140   -8.0760    2.1330 C.3   510  CBS510      0.0964
      9  N2A       30.1230   -9.0170    3.0750 N.am  510  CBS510     -0.1992
     10  O1A       27.6060   -8.6260    1.5180 O.3   510  CBS510     -0.3264
     11  O3A       29.4560   -8.7500    5.9040 O.3   510  CBS510     -0.2183
     12  O4A       27.4230  -10.7150    6.5750 O.3   510  CBS510     -0.2176
     13  O5A       26.4910   -9.5550    3.2620 O.3   510  CBS510     -0.3262
     14  O6A       24.1120  -10.8550    4.0890 O.3   510  CBS510     -0.2176
     15  O7A       30.1480   -6.8560    2.6470 O.2   510  CBS510     -0.2733
     16  C1B       26.0470   -8.3440   -2.2930 C.3   510  CBS510      0.1665
     17  C2B       25.1210   -9.0220   -1.3050 C.3   510  CBS510      0.1575
     18  C3B       25.6040   -8.8500    0.1230 C.3   510  CBS510      0.2037
     19  C4B       27.0850   -9.1720    0.3090 C.3   510  CBS510      0.1794
     20  C5B       27.9250   -8.5990   -0.8280 C.3   510  CBS510      0.1777
     21  C6B       29.3640   -9.1290   -0.8120 C.3   510  CBS510      0.2140
     22  C7B       22.7370   -9.3620   -1.7070 C.2   510  CBS510      0.2420
     23  C8B       21.4060   -8.7100   -1.9410 C.3   510  CBS510      0.0964
     24  N2B       23.7690   -8.5460   -1.5210 N.am  510  CBS510     -0.2019
     25  O3B       24.8360   -9.7630    0.8730 O.3   510  CBS510     -0.2185
     26  O5B       27.3590   -8.8110   -2.1030 O.3   510  CBS510     -0.3491
     27  O6B       29.4860  -10.5340   -0.6240 O.3   510  CBS510     -0.2176
     28  O7B       22.8300  -10.5650   -1.6720 O.2   510  CBS510     -0.2733
@<TRIPOS>BOND
     1    16    26    1
     2    16    17    1
     3    26    20    1
     4    23    22    1
     5    22    28    2
     6    22    24   am
     7    24    17    1
     8    17    18    1
     9    20    21    1
    10    20    19    1
    11    21    27    1
    12    18    19    1
    13    18    25    1
    14    19    10    1
    15    10     1    1
    16     8     7    1
    17     1    13    1
    18     1     2    1
    19     7    15    2
    20     7     9   am
    21     9     2    1
    22    13     5    1
    23     2     3    1
    24    14     6    1
    25     5     6    1
    26     5     4    1
    27     3     4    1
    28     3    11    1
    29     4    12    1
