@<TRIPOS>MOLECULE
3t6w_CBS_A_1.pdb
 28 29 0 0 0
SMALL
GASTEIGER

@<TRIPOS>ATOM
      1  C1A       27.8340   -9.3160    2.6670 C.3   509  CBS509      0.2586
      2  C2A       28.9400   -8.7120    3.5030 C.3   509  CBS509      0.1842
      3  C3A       29.0760   -9.2470    4.9160 C.3   509  CBS509      0.2094
      4  C4A       27.8130   -9.7880    5.5390 C.3   509  CBS509      0.2136
      5  C5A       26.7480  -10.2570    4.5610 C.3   509  CBS509      0.1834
      6  C6A       25.4250  -10.3390    5.3100 C.3   509  CBS509      0.2142
      7  C7A       30.9690   -7.9750    2.5590 C.2   509  CBS509      0.2420
      8  C8A       32.2630   -8.3590    1.9450 C.3   509  CBS509      0.0964
      9  N2A       30.2040   -8.9760    2.8900 N.am  509  CBS509     -0.1992
     10  O1A       27.6500   -8.4580    1.5510 O.3   509  CBS509     -0.3264
     11  O3A       29.5910   -8.2250    5.7680 O.3   509  CBS509     -0.2183
     12  O4A       28.2460  -10.8760    6.3440 O.3   509  CBS509     -0.2176
     13  O5A       26.6450   -9.3810    3.4460 O.3   509  CBS509     -0.3262
     14  O6A       24.3660   -9.7790    4.5510 O.3   509  CBS509     -0.2176
     15  O7A       30.6320   -6.8380    2.7200 O.2   509  CBS509     -0.2733
     16  C1B       26.3350   -8.3380   -2.3040 C.3   509  CBS509      0.1665
     17  C2B       25.3940   -8.9580   -1.2900 C.3   509  CBS509      0.1575
     18  C3B       25.8500   -8.7150    0.1370 C.3   509  CBS509      0.2037
     19  C4B       27.2900   -9.1040    0.3550 C.3   509  CBS509      0.1794
     20  C5B       28.1930   -8.5750   -0.7510 C.3   509  CBS509      0.1777
     21  C6B       29.5760   -9.2320   -0.6880 C.3   509  CBS509      0.2140
     22  C7B       23.0280   -9.1890   -1.5260 C.2   509  CBS509      0.2420
     23  C8B       21.7060   -8.5140   -1.6590 C.3   509  CBS509      0.0964
     24  N2B       24.0740   -8.3940   -1.4280 N.am  509  CBS509     -0.2019
     25  O3B       25.0390   -9.4210    1.0780 O.3   509  CBS509     -0.2185
     26  O5B       27.6570   -8.7630   -2.0600 O.3   509  CBS509     -0.3491
     27  O6B       29.5380  -10.5380   -0.1140 O.3   509  CBS509     -0.2176
     28  O7B       23.1340  -10.3930   -1.5110 O.2   509  CBS509     -0.2733
@<TRIPOS>BOND
     1    16    26    1
     2    16    17    1
     3    26    20    1
     4    23    22    1
     5    22    28    2
     6    22    24   am
     7    24    17    1
     8    17    18    1
     9    20    21    1
    10    20    19    1
    11    21    27    1
    12    18    19    1
    13    18    25    1
    14    19    10    1
    15    10     1    1
    16     8     7    1
    17     7    15    2
    18     7     9   am
    19     1    13    1
    20     1     2    1
    21     9     2    1
    22    13     5    1
    23     2     3    1
    24    14     6    1
    25     5     6    1
    26     5     4    1
    27     3     4    1
    28     3    11    1
    29     4    12    1
