@<TRIPOS>MOLECULE
3t6x_CBS_A_1.pdb
 28 29 0 0 0
SMALL
GASTEIGER

@<TRIPOS>ATOM
      1  C1A       28.0660   -9.2100    2.6800 C.3   510  CBS510      0.2586
      2  C2A       29.0430   -8.4670    3.5440 C.3   510  CBS510      0.1842
      3  C3A       28.9070   -8.5620    5.0500 C.3   510  CBS510      0.2094
      4  C4A       27.8240   -9.4520    5.5890 C.3   510  CBS510      0.2136
      5  C5A       26.7890   -9.9250    4.5870 C.3   510  CBS510      0.1834
      6  C6A       25.4220   -9.5160    5.0660 C.3   510  CBS510      0.2142
      7  C7A       31.1190   -7.9050    2.8160 C.2   510  CBS510      0.2420
      8  C8A       32.4640   -8.3550    2.4470 C.3   510  CBS510      0.0964
      9  N2A       30.3530   -8.8670    3.1760 N.am  510  CBS510     -0.1992
     10  O1A       27.8370   -8.4150    1.5400 O.3   510  CBS510     -0.3264
     11  O3A       28.6350   -7.2550    5.5380 O.3   510  CBS510     -0.2183
     12  O4A       28.5010  -10.5290    6.2010 O.3   510  CBS510     -0.2176
     13  O5A       26.8660   -9.2420    3.3740 O.3   510  CBS510     -0.3262
     14  O6A       24.4410  -10.4450    4.6860 O.3   510  CBS510     -0.2176
     15  O7A       30.7310   -6.7700    2.7950 O.2   510  CBS510     -0.2733
     16  C1B       26.1280   -8.3230   -2.1620 C.3   510  CBS510      0.1665
     17  C2B       25.2770   -8.9320   -1.0850 C.3   510  CBS510      0.1575
     18  C3B       25.8120   -8.7520    0.3380 C.3   510  CBS510      0.2037
     19  C4B       27.2890   -9.0620    0.4340 C.3   510  CBS510      0.1794
     20  C5B       28.0530   -8.4420   -0.7160 C.3   510  CBS510      0.1777
     21  C6B       29.5060   -8.9270   -0.7560 C.3   510  CBS510      0.2140
     22  C7B       22.9260   -9.2230   -1.4110 C.2   510  CBS510      0.2420
     23  C8B       21.5910   -8.6010   -1.5030 C.3   510  CBS510      0.0964
     24  N2B       23.9330   -8.4070   -1.2110 N.am  510  CBS510     -0.2019
     25  O3B       25.0870   -9.5430    1.2830 O.3   510  CBS510     -0.2185
     26  O5B       27.4590   -8.6360   -1.9840 O.3   510  CBS510     -0.3491
     27  O6B       29.7540  -10.2410   -0.2870 O.3   510  CBS510     -0.2176
     28  O7B       23.0350  -10.4140   -1.4840 O.2   510  CBS510     -0.2733
@<TRIPOS>BOND
     1    16    26    1
     2    16    17    1
     3    26    20    1
     4    23    22    1
     5    28    22    2
     6    22    24   am
     7    24    17    1
     8    17    18    1
     9    21    20    1
    10    21    27    1
    11    20    19    1
    12    18    19    1
    13    18    25    1
    14    19    10    1
    15    10     1    1
    16     8     7    1
    17     1    13    1
    18     1     2    1
    19    15     7    2
    20     7     9   am
    21     9     2    1
    22    13     5    1
    23     2     3    1
    24     5     6    1
    25     5     4    1
    26    14     6    1
    27     3    11    1
    28     3     4    1
    29     4    12    1
