@<TRIPOS>MOLECULE
3t6y_DU2_A_1.pdb
 29 32 0 0 0
SMALL
GASTEIGER

@<TRIPOS>ATOM
      1  N1        -6.0010   25.7660   -0.9900 N.am  400  DU2400     -0.1790
      2  C2        -5.4830   24.6610   -1.5510 C.1   400  DU2400      0.2844
      3  O2        -6.1590   23.6410   -1.5360 O.2   400  DU2400     -0.1918
      4  N3        -4.2150   24.6960   -2.1180 N.2   400  DU2400     -0.2452
      5  C4        -3.4730   25.8920   -2.0900 C.1   400  DU2400      0.2182
      6  O4        -2.3430   25.9120   -2.5830 O.2   400  DU2400     -0.2085
      7  C5        -3.9830   27.0370   -1.4990 C.2   400  DU2400      0.1242
      8  C6        -5.2400   26.9580   -0.9370 C.2   400  DU2400      0.0928
      9  C1'       -7.3390   25.6510   -0.4070 C.3   400  DU2400      0.2090
     10  C17       -8.8740   26.7450   -5.1960 C.3   400  DU2400      0.1514
     11  C18       -7.5320   27.0900   -5.3840 C.ar  400  DU2400      0.0006
     12  C19       -6.6400   26.0940   -4.9480 C.ar  400  DU2400     -0.0025
     13  C2'       -7.5420   26.7690    0.5820 C.3   400  DU2400      0.0874
     14  C20       -5.2710   26.2000   -4.9840 C.ar  400  DU2400     -0.0003
     15  C21       -4.7540   27.3580   -5.5110 C.ar  400  DU2400     -0.0000
     16  C22       -5.6240   28.3460   -5.9660 C.ar  400  DU2400     -0.0003
     17  C23       -7.0130   28.2490   -5.9060 C.ar  400  DU2400     -0.0025
     18  C24       -9.7610   26.1760   -6.1630 C.ar  400  DU2400      0.1406
     19  N25      -10.9300   25.6630   -5.7420 N.ar  400  DU2400     -0.2276
     20  C26      -11.8340   25.2760   -6.8470 C.ar  400  DU2400      0.1189
     21  C27      -11.0280   25.6000   -8.0930 C.ar  400  DU2400      0.0978
     22  N28       -9.8000   26.1630   -7.5280 N.ar  400  DU2400     -0.3103
     23  C29       -8.8650   26.6520   -8.4510 C.3   400  DU2400      0.1317
     24  C3'       -8.2530   27.8200   -0.2140 C.3   400  DU2400      0.1846
     25  C4'       -8.9980   27.1100   -1.3370 C.3   400  DU2400      0.1647
     26  O4'       -8.4050   25.7830   -1.4030 O.3   400  DU2400     -0.3350
     27  O41       -9.1890   28.1880    0.7270 O.3   400  DU2400     -0.2203
     28  C5'       -8.9470   27.7010   -2.7830 C.3   400  DU2400      0.1216
     29  N5'       -9.2580   26.5840   -3.7490 N.3   400  DU2400     -0.2048
@<TRIPOS>BOND
     1    23    22    1
     2    21    22   ar
     3    21    20   ar
     4    22    18   ar
     5    20    19   ar
     6    18    19   ar
     7    18    10    1
     8    16    17   ar
     9    16    15   ar
    10    17    11   ar
    11    15    14   ar
    12    11    10    1
    13    11    12   ar
    14    10    29    1
    15    14    12   ar
    16    29    28    1
    17    28    25    1
    18     6     5    2
    19     4     5    2
    20     4     2    2
    21     5     7    1
    22     2     3    2
    23     2     1   am
    24     7     8    2
    25    26    25    1
    26    26     9    1
    27    25    24    1
    28     1     8    1
    29     1     9    1
    30     9    13    1
    31    24    13    1
    32    24    27    1
