@<TRIPOS>MOLECULE
3t6y_III_F_1.pdb
 20 20 0 0 0
SMALL
GASTEIGER

@<TRIPOS>ATOM
      1  N         -1.3940   30.4370  -22.2930 N.3     1  ALA1       -0.1231
      2  CA        -1.7640   31.4550  -21.2430 C.3     1  ALA1        0.1694
      3  C         -1.9820   30.8850  -19.7900 C.2     1  ALA1        0.2592
      4  O         -2.8940   30.0730  -19.5880 O.2     1  ALA1       -0.2718
      5  CB        -3.0010   32.2420  -21.7240 C.3     1  ALA1        0.0304
      6  N         -1.1770   31.3190  -18.7970 N.am    2  HIS2       -0.1962
      7  CA        -1.3800   30.9250  -17.3540 C.3     2  HIS2        0.1784
      8  C         -2.6470   31.5590  -16.7800 C.2     2  HIS2        0.2620
      9  O         -2.8550   32.7730  -16.9740 O.2     2  HIS2       -0.2715
     10  CB        -0.1780   31.2960  -16.4680 C.3     2  HIS2        0.0745
     11  CG         1.0580   30.4220  -16.6520 C.2     2  HIS2        0.0653
     12  ND1        1.0530   29.2690  -17.3540 N.2     2  HIS2       -0.2310
     13  CD2        2.3660   30.5620  -16.1430 C.3     2  HIS2        0.1683
     14  CE1        2.3010   28.7080  -17.3270 C.2     2  HIS2        0.1939
     15  NE2        3.0970   29.4980  -16.5870 N.2     2  HIS2       -0.2440
     16  N         -3.5020   30.7680  -16.0910 N.am    3  ALA3       -0.1977
     17  CA        -4.8900   31.1840  -15.6740 C.3     3  ALA3        0.1597
     18  C         -5.8570   30.0300  -15.4070 C.2     3  ALA3        0.2287
     19  O         -7.0840   30.1940  -15.5480 O.2     3  ALA3       -0.2864
     20  CB        -5.5350   32.1440  -16.7010 C.3     3  ALA3        0.0319
@<TRIPOS>BOND
     1     1     2    1
     2     5     2    1
     3     2     3    1
     4     3     4    2
     5     3     6   am
     6     6     7    1
     7     7     8    1
     8     7    10    1
     9    12    14    1
    10    12    11    2
    11    14    15    2
    12     9     8    2
    13     8    16   am
    14    20    17    1
    15    11    10    1
    16    11    13    1
    17    15    13    1
    18    16    17    1
    19    17    18    1
    20    19    18    2
