@<TRIPOS>MOLECULE
3t6z_CBS_A_1.pdb
 28 29 0 0 0
SMALL
GASTEIGER

@<TRIPOS>ATOM
      1  C1A       28.0560   -9.3260    2.8340 C.3   510  CBS510      0.2586
      2  C2A       28.9280   -8.6000    3.8070 C.3   510  CBS510      0.1842
      3  C3A       29.0790   -9.3280    5.1220 C.3   510  CBS510      0.2094
      4  C4A       27.7860   -9.7920    5.7030 C.3   510  CBS510      0.2136
      5  C5A       26.6950  -10.0960    4.6970 C.3   510  CBS510      0.1834
      6  C6A       25.4520   -9.4470    5.2480 C.3   510  CBS510      0.2142
      7  C7A       31.0010   -7.7920    2.9180 C.2   510  CBS510      0.2420
      8  C8A       32.3610   -8.3240    2.6960 C.3   510  CBS510      0.0964
      9  N2A       30.2720   -8.7110    3.4130 N.am  510  CBS510     -0.1992
     10  O1A       27.8520   -8.5070    1.7070 O.3   510  CBS510     -0.3264
     11  O3A       29.6970   -8.4670    6.0650 O.3   510  CBS510     -0.2183
     12  O4A       28.0760  -10.9340    6.4970 O.3   510  CBS510     -0.2176
     13  O5A       26.8080   -9.5080    3.4340 O.3   510  CBS510     -0.3262
     14  O6A       24.3340   -9.9770    4.5940 O.3   510  CBS510     -0.2176
     15  O7A       30.6060   -6.7010    2.6590 O.2   510  CBS510     -0.2733
     16  C1B       26.2140   -8.3880   -2.0510 C.3   510  CBS510      0.1665
     17  C2B       25.3510   -8.9940   -0.9690 C.3   510  CBS510      0.1575
     18  C3B       25.8840   -8.7620    0.4300 C.3   510  CBS510      0.2037
     19  C4B       27.3440   -9.1400    0.5630 C.3   510  CBS510      0.1794
     20  C5B       28.2020   -8.6130   -0.5820 C.3   510  CBS510      0.1777
     21  C6B       29.5590   -9.3400   -0.6870 C.3   510  CBS510      0.2140
     22  C7B       22.9910   -9.3630   -1.3230 C.2   510  CBS510      0.2420
     23  C8B       21.6380   -8.8170   -1.5670 C.3   510  CBS510      0.0964
     24  N2B       24.0010   -8.5130   -1.1820 N.am  510  CBS510     -0.2019
     25  O3B       25.1310   -9.5240    1.3590 O.3   510  CBS510     -0.2185
     26  O5B       27.5800   -8.6050   -1.8650 O.3   510  CBS510     -0.3491
     27  O6B       29.6180  -10.5690    0.0160 O.3   510  CBS510     -0.2176
     28  O7B       23.1130  -10.5300   -1.2220 O.2   510  CBS510     -0.2733
@<TRIPOS>BOND
     1    16    26    1
     2    16    17    1
     3    26    20    1
     4    23    22    1
     5    22    28    2
     6    22    24   am
     7    24    17    1
     8    17    18    1
     9    21    20    1
    10    21    27    1
    11    20    19    1
    12    18    19    1
    13    18    25    1
    14    19    10    1
    15    10     1    1
    16    15     7    2
    17     8     7    1
    18     1    13    1
    19     1     2    1
    20     7     9   am
    21     9     2    1
    22    13     5    1
    23     2     3    1
    24    14     6    1
    25     5     6    1
    26     5     4    1
    27     3     4    1
    28     3    11    1
    29     4    12    1
