@<TRIPOS>MOLECULE
3t70_DU4_A_1.pdb
 30 33 0 0 0
SMALL
GASTEIGER

@<TRIPOS>ATOM
      1  N1        -6.1200   25.7830   -1.1280 N.am  400  DU4400     -0.1790
      2  C2        -5.5760   24.6530   -1.7560 C.1   400  DU4400      0.2844
      3  O2        -6.2290   23.6150   -1.8780 O.2   400  DU4400     -0.1918
      4  N3        -4.2700   24.7090   -2.2370 N.2   400  DU4400     -0.2452
      5  C4        -3.5100   25.8750   -2.1140 C.1   400  DU4400      0.2182
      6  O4        -2.3670   25.8690   -2.5650 O.2   400  DU4400     -0.2085
      7  C5        -4.0420   27.0140   -1.4960 C.2   400  DU4400      0.1242
      8  C6        -5.3540   26.9640   -1.0050 C.2   400  DU4400      0.0928
      9  C1'       -7.5370   25.6960   -0.6470 C.3   400  DU4400      0.2090
     10  C17       -8.8280   27.4690   -5.5480 C.3   400  DU4400      0.1031
     11  C18       -9.3890   26.8000   -6.8320 C.ar  400  DU4400     -0.0036
     12  C19       -9.4790   27.5730   -7.9960 C.ar  400  DU4400     -0.0026
     13  C2'       -8.0200   26.7940    0.2990 C.3   400  DU4400      0.0874
     14  C20       -9.9770   27.0220   -9.1760 C.ar  400  DU4400     -0.0003
     15  C21      -10.3820   25.6890   -9.1930 C.ar  400  DU4400     -0.0000
     16  C22      -10.2910   24.9110   -8.0380 C.ar  400  DU4400     -0.0003
     17  C23       -9.7920   25.4670   -6.8580 C.ar  400  DU4400     -0.0026
     18  C24       -7.3180   27.1660   -5.4650 C.ar  400  DU4400     -0.0036
     19  C25       -6.4160   28.1670   -5.8230 C.ar  400  DU4400     -0.0026
     20  C26       -5.0400   27.9450   -5.7610 C.ar  400  DU4400     -0.0003
     21  C27       -4.5550   26.7070   -5.3430 C.ar  400  DU4400     -0.0000
     22  C28       -5.4560   25.7020   -4.9940 C.ar  400  DU4400     -0.0003
     23  C29       -6.8350   25.9220   -5.0480 C.ar  400  DU4400     -0.0026
     24  C3'       -8.6940   27.8140   -0.5950 C.3   400  DU4400      0.1846
     25  O3'       -9.8360   28.3330    0.1050 O.3   400  DU4400     -0.2203
     26  C4'       -9.1570   27.0080   -1.8140 C.3   400  DU4400      0.1633
     27  O4'       -8.3140   25.8140   -1.8790 O.3   400  DU4400     -0.3351
     28  C41      -11.0080   27.4910   -4.4110 C.3   400  DU4400      0.0902
     29  C5'       -9.0360   27.8470   -3.1120 C.3   400  DU4400      0.1052
     30  N5'       -9.5750   27.1260   -4.2960 N.3   400  DU4400     -0.2634
@<TRIPOS>BOND
     1    15    14   ar
     2    15    16   ar
     3    14    12   ar
     4    16    17   ar
     5    12    11   ar
     6    17    11   ar
     7    11    10    1
     8    19    20   ar
     9    19    18   ar
    10    20    21   ar
    11    10    18    1
    12    10    30    1
    13    18    23   ar
    14    21    22   ar
    15    23    22   ar
    16    28    30    1
    17    30    29    1
    18    29    26    1
    19     6     5    2
    20     4     5    2
    21     4     2    2
    22     5     7    1
    23    27    26    1
    24    27     9    1
    25     3     2    2
    26    26    24    1
    27     2     1   am
    28     7     8    2
    29     1     8    1
    30     1     9    1
    31     9    13    1
    32    24    25    1
    33    24    13    1
