@<TRIPOS>MOLECULE
3t70_III_F_1.pdb
 18 18 0 0 0
SMALL
GASTEIGER

@<TRIPOS>ATOM
      1  N         -2.0510   30.2100  -22.2250 N.3     1  GLY1       -0.1210
      2  CA        -2.0560   31.2960  -21.2010 C.3     1  GLY1        0.1956
      3  C         -2.2400   30.7820  -19.7830 C.2     1  GLY1        0.2612
      4  O         -3.1450   29.9880  -19.5120 O.2     1  GLY1       -0.2717
      5  N         -1.3720   31.2370  -18.8820 N.am    2  HIS2       -0.1961
      6  CA        -1.4590   30.8860  -17.4640 C.3     2  HIS2        0.1784
      7  C         -2.6280   31.6050  -16.7930 C.2     2  HIS2        0.2620
      8  O         -2.9350   32.7540  -17.1200 O.2     2  HIS2       -0.2715
      9  CB        -0.1470   31.2060  -16.7450 C.3     2  HIS2        0.0745
     10  CG         1.0230   30.4150  -17.2430 C.2     2  HIS2        0.0653
     11  ND1        1.2490   29.1060  -16.8720 N.2     2  HIS2       -0.2310
     12  CD2        2.0370   30.7480  -18.0790 C.3     2  HIS2        0.1683
     13  CE1        2.3500   28.6670  -17.4560 C.2     2  HIS2        0.1939
     14  NE2        2.8500   29.6450  -18.1910 N.2     2  HIS2       -0.2440
     15  N         -3.2800   30.9120  -15.8620 N.am    3  GLY3       -0.1954
     16  CA        -4.4490   31.4470  -15.1760 C.3     3  GLY3        0.1869
     17  C         -5.7480   31.0820  -15.8670 C.2     3  GLY3        0.2309
     18  O         -6.1940   29.9360  -15.8010 O.2     3  GLY3       -0.2863
@<TRIPOS>BOND
     1     1     2    1
     2     2     3    1
     3     3     4    2
     4     3     5   am
     5     5     6    1
     6    14    12    1
     7    14    13    2
     8    12    10    1
     9     6     7    1
    10     6     9    1
    11    13    11    1
    12    10    11    2
    13    10     9    1
    14     8     7    2
    15     7    15   am
    16    17    18    2
    17    17    16    1
    18    15    16    1
