@<TRIPOS>MOLECULE
3t71_CBS_A_1.pdb
 28 29 0 0 0
SMALL
GASTEIGER

@<TRIPOS>ATOM
      1  C1A       27.8090   -9.3090    2.7890 C.3   506  CBS506      0.2586
      2  C2A       28.8060   -8.6740    3.7010 C.3   506  CBS506      0.1842
      3  C3A       28.9170   -9.3300    5.0360 C.3   506  CBS506      0.2094
      4  C4A       27.6230   -9.7510    5.6780 C.3   506  CBS506      0.2136
      5  C5A       26.6740  -10.3110    4.6360 C.3   506  CBS506      0.1834
      6  C6A       25.2710  -10.4410    5.2070 C.3   506  CBS506      0.2142
      7  C7A       30.8930   -8.0320    2.8220 C.2   506  CBS506      0.2420
      8  C8A       32.2360   -8.5270    2.4790 C.3   506  CBS506      0.0964
      9  N2A       30.1270   -8.9550    3.2690 N.am  506  CBS506     -0.1992
     10  O1A       27.5940   -8.4630    1.6850 O.3   506  CBS506     -0.3264
     11  O3A       29.6380   -8.4240    5.8540 O.3   506  CBS506     -0.2183
     12  O4A       27.9510  -10.7590    6.6180 O.3   506  CBS506     -0.2176
     13  O5A       26.6110   -9.4550    3.5220 O.3   506  CBS506     -0.3262
     14  O6A       24.3080   -9.7490    4.4260 O.3   506  CBS506     -0.2176
     15  O7A       30.5320   -6.9050    2.7080 O.2   506  CBS506     -0.2733
     16  C1B       26.2310   -8.3640   -2.1150 C.3   506  CBS506      0.1665
     17  C2B       25.3410   -9.0530   -1.1150 C.3   506  CBS506      0.1575
     18  C3B       25.7940   -8.8370    0.3200 C.3   506  CBS506      0.2037
     19  C4B       27.2650   -9.1240    0.5060 C.3   506  CBS506      0.1794
     20  C5B       28.1120   -8.5030   -0.6110 C.3   506  CBS506      0.1777
     21  C6B       29.5380   -9.0410   -0.6290 C.3   506  CBS506      0.2140
     22  C7B       22.9500   -9.3190   -1.4100 C.2   506  CBS506      0.2420
     23  C8B       21.6580   -8.6330   -1.5990 C.3   506  CBS506      0.0964
     24  N2B       23.9990   -8.5340   -1.3050 N.am  506  CBS506     -0.2019
     25  O3B       25.0200   -9.5900    1.2580 O.3   506  CBS506     -0.2185
     26  O5B       27.5830   -8.6270   -1.9330 O.3   506  CBS506     -0.3491
     27  O6B       29.6430  -10.3820   -0.2150 O.3   506  CBS506     -0.2176
     28  O7B       23.0000  -10.5060   -1.3470 O.2   506  CBS506     -0.2733
@<TRIPOS>BOND
     1    16    26    1
     2    16    17    1
     3    26    20    1
     4    23    22    1
     5    22    28    2
     6    22    24   am
     7    24    17    1
     8    17    18    1
     9    21    20    1
    10    21    27    1
    11    20    19    1
    12    18    19    1
    13    18    25    1
    14    19    10    1
    15    10     1    1
    16     8     7    1
    17    15     7    2
    18     1    13    1
    19     1     2    1
    20     7     9   am
    21     9     2    1
    22    13     5    1
    23     2     3    1
    24    14     6    1
    25     5     6    1
    26     5     4    1
    27     3     4    1
    28     3    11    1
    29     4    12    1
