@<TRIPOS>MOLECULE
3t73_UBX_A_1.pdb
 25 25 0 0 0
SMALL
GASTEIGER

@<TRIPOS>ATOM
      1  C3        15.1380  -40.7680   12.6350 C.ar  317  UBX317     -0.0007
      2  C2        16.3760  -40.3290   13.1000 C.ar  317  UBX317     -0.0002
      3  C1        17.5110  -40.4760   12.3100 C.ar  317  UBX317     -0.0000
      4  C6        17.4140  -41.0580   11.0520 C.ar  317  UBX317     -0.0002
      5  C5        16.1810  -41.4980   10.5850 C.ar  317  UBX317     -0.0007
      6  C4        15.0410  -41.3480   11.3750 C.ar  317  UBX317      0.0213
      7  C7        13.7080  -41.8320   10.8550 C.3   317  UBX317      0.2368
      8  O8        13.0340  -40.7550   10.1980 O.3   317  UBX317     -0.4285
      9  C9        12.4400  -40.9790    8.8950 C.2   317  UBX317      0.4220
     10  O19       11.8610  -42.0270    8.7080 O.2   317  UBX317     -0.2245
     11  N10       12.5180  -40.0580    7.9440 N.am  317  UBX317     -0.1565
     12  C11       11.9480  -40.2020    6.6180 C.3   317  UBX317      0.2238
     13  P12       11.4760  -38.5900    5.9790 P.3   317  UBX317      0.3472
     14  O21       12.6020  -37.6210    6.2090 O.2   317  UBX317     -0.2668
     15  O20       10.1420  -38.1040    6.5310 O.3   317  UBX317     -0.1484
     16  N13       11.2570  -38.8980    4.3450 N.3   317  UBX317     -0.1352
     17  C14       10.0640  -38.4440    3.6310 C.3   317  UBX317      0.1594
     18  C15        8.8770  -39.3330    3.8970 C.2   317  UBX317      0.2578
     19  N16        9.0970  -40.6420    4.0140 N.am  317  UBX317     -0.2024
     20  C17        8.0440  -41.6290    4.2500 C.3   317  UBX317      0.1385
     21  C22       10.4120  -38.5470    2.1470 C.3   317  UBX317      0.0273
     22  O23        7.7600  -38.8350    3.9850 O.2   317  UBX317     -0.2718
     23  C27        9.2910  -38.0180    1.2440 C.3   317  UBX317      0.0019
     24  C28        9.5270  -38.4390   -0.2040 C.3   317  UBX317      0.0001
     25  C29        9.1400  -36.5020    1.3310 C.3   317  UBX317      0.0001
@<TRIPOS>BOND
     1    24    23    1
     2    23    25    1
     3    23    21    1
     4    21    17    1
     5    17    18    1
     6    17    16    1
     7    18    22    2
     8    18    19   am
     9    19    20    1
    10    16    13    1
    11    13    14    2
    12    13    15    1
    13    13    12    1
    14    12    11    1
    15    11     9   am
    16    10     9    2
    17     9     8    1
    18     8     7    1
    19     5     4   ar
    20     5     6   ar
    21     7     6    1
    22     4     3   ar
    23     6     1   ar
    24     3     2   ar
    25     1     2   ar
