@<TRIPOS>MOLECULE
3t74_UBY_A_1.pdb
 29 29 0 0 0
SMALL
GASTEIGER

@<TRIPOS>ATOM
      1  C3        16.1970  -41.3870   10.6020 C.ar  317  UBY317     -0.0007
      2  C2        17.4290  -40.9520   11.0990 C.ar  317  UBY317     -0.0002
      3  C1        17.5200  -40.3710   12.3700 C.ar  317  UBY317     -0.0000
      4  C6        16.3630  -40.2640   13.1400 C.ar  317  UBY317     -0.0002
      5  C5        15.1330  -40.7070   12.6500 C.ar  317  UBY317     -0.0007
      6  C4        15.0460  -41.2560   11.3780 C.ar  317  UBY317      0.0213
      7  C7        13.7200  -41.7500   10.8670 C.3   317  UBY317      0.2368
      8  O8        12.9690  -40.8010   10.1190 O.3   317  UBY317     -0.4285
      9  C9        12.9810  -40.9280    8.7050 C.2   317  UBY317      0.4220
     10  O21       13.7440  -41.7320    8.1620 O.2   317  UBY317     -0.2245
     11  N10       12.1700  -40.1200    8.0800 N.am  317  UBY317     -0.1565
     12  C11       12.0390  -40.1370    6.6460 C.3   317  UBY317      0.2238
     13  P12       11.5370  -38.5380    5.9720 P.3   317  UBY317      0.3472
     14  O22       12.6180  -37.5590    6.2280 O.2   317  UBY317     -0.2668
     15  O23       10.1930  -38.1040    6.5400 O.3   317  UBY317     -0.1484
     16  N13       11.3350  -38.8660    4.3610 N.3   317  UBY317     -0.1352
     17  C14       10.1540  -38.4190    3.6320 C.3   317  UBY317      0.1594
     18  C15        8.9540  -39.2920    3.8570 C.2   317  UBY317      0.2582
     19  O24        7.8130  -38.8050    3.8980 O.2   317  UBY317     -0.2718
     20  C20       10.5010  -38.4600    2.1380 C.3   317  UBY317      0.0273
     21  C21        9.4020  -37.9350    1.2250 C.3   317  UBY317      0.0019
     22  C22        9.2150  -36.4270    1.3720 C.3   317  UBY317      0.0001
     23  C23        9.6420  -38.3370   -0.2240 C.3   317  UBY317      0.0001
     24  N16        9.1790  -40.6050    3.9520 N.am  317  UBY317     -0.1944
     25  C17        8.1210  -41.6110    4.0780 C.3   317  UBY317      0.1979
     26  C18        8.2880  -42.4680    5.3020 C.2   317  UBY317      0.3842
     27  O32        7.2720  -43.0790    5.7060 O.co2 317  UBY317     -0.2437
     28  C25        8.1520  -42.4990    2.8290 C.3   317  UBY317      0.0356
     29  O19        9.4150  -42.5550    5.8360 O.co2 317  UBY317     -0.2437
@<TRIPOS>BOND
     1    23    21    1
     2    21    22    1
     3    21    20    1
     4    20    17    1
     5    28    25    1
     6    17    18    1
     7    17    16    1
     8    18    19    2
     9    18    24   am
    10    24    25    1
    11    25    26    1
    12    16    13    1
    13    26    27   ar
    14    26    29   ar
    15    13    14    2
    16    13    15    1
    17    13    12    1
    18    12    11    1
    19    11     9   am
    20    10     9    2
    21     9     8    1
    22     8     7    1
    23     1     2   ar
    24     1     6   ar
    25     7     6    1
    26     2     3   ar
    27     6     5   ar
    28     3     4   ar
    29     5     4   ar
