@<TRIPOS>MOLECULE
3t77_KDA_B_1.pdb
 19 19 0 0 0
SMALL
GASTEIGER

@<TRIPOS>ATOM
      1  C1         6.7370   39.0590  136.6720 C.2   302  KDA302      0.4152
      2  O1A        5.8400   39.9150  136.9190 O.co2 302  KDA302     -0.2402
      3  O1B        6.6930   37.9240  137.2050 O.co2 302  KDA302     -0.2402
      4  C2         7.8340   39.3850  135.7340 C.3   302  KDA302      0.2866
      5  C3         7.2710   39.4610  134.3470 C.3   302  KDA302      0.1036
      6  C4         8.2550   39.9560  133.3460 C.3   302  KDA302      0.1901
      7  O4         7.5700   40.1470  132.1310 O.3   302  KDA302     -0.2201
      8  C5         8.8800   41.2010  133.8060 C.3   302  KDA302      0.2118
      9  O5         7.8490   42.1130  133.9770 O.3   302  KDA302     -0.2177
     10  C6         9.5370   41.0160  135.1390 C.3   302  KDA302      0.1837
     11  O6         8.5140   40.6140  136.1300 O.3   302  KDA302     -0.3230
     12  C7        10.3340   42.2270  135.6380 C.3   302  KDA302      0.2143
     13  O7        10.8320   42.9860  134.6080 O.3   302  KDA302     -0.2176
     14  C8        11.4590   41.7570  136.5320 C.3   302  KDA302      0.2174
     15  O8        12.0830   42.6850  137.3520 O.3   302  KDA302     -0.2175
     16  O2         8.8180   38.3980  135.7710 O.3   302  KDA302     -0.3211
     17  C9         9.5980   38.2060  136.9210 C.3   302  KDA302      0.1714
     18  C10       10.0330   36.8010  137.2830 C.2   302  KDA302      0.0057
     19  C11        9.4040   35.6940  136.7590 C.2   302  KDA302     -0.0023
@<TRIPOS>BOND
     1     7     6    1
     2     6     8    1
     3     6     5    1
     4     8     9    1
     5     8    10    1
     6     5     4    1
     7    13    12    1
     8    10    12    1
     9    10    11    1
    10    12    14    1
    11     4    16    1
    12     4    11    1
    13     4     1    1
    14    16    17    1
    15    14    15    1
    16     1     2   ar
    17     1     3   ar
    18    19    18    2
    19    17    18    1
