@<TRIPOS>MOLECULE
3t78_5RG_A_1.pdb
 11 11 0 0 0
SMALL
GASTEIGER

@<TRIPOS>ATOM
      1  NAA      -16.8130    3.0770   -9.5180 N.pl3 273  5RG273     -0.1281
      2  OAB      -19.3690    3.2150  -10.3220 O.2   273  5RG273     -0.2616
      3  OAC      -20.1930    2.1450  -12.1980 O.2   273  5RG273     -0.2616
      4  FAD      -16.3680   -1.1300  -13.7890 F     273  5RG273     -0.2042
      5  CAE      -15.4380    1.1090  -10.6000 C.ar  273  5RG273      0.0203
      6  CAF      -15.3250   -0.0080  -11.7370 C.ar  273  5RG273      0.0310
      7  CAG      -17.7480    0.7820  -12.7700 C.ar  273  5RG273      0.0342
      8  CAH      -19.0960    2.8100  -11.6360 C.3   273  5RG273      0.4498
      9  CAI      -16.7010    2.0520  -10.5510 C.ar  273  5RG273      0.0925
     10  CAJ      -16.4690   -0.1700  -12.8130 C.ar  273  5RG273      0.1402
     11  CAK      -17.8580    1.8760  -11.6460 C.ar  273  5RG273      0.0875
@<TRIPOS>BOND
     1     4    10    1
     2    10     7   ar
     3    10     6   ar
     4     7    11   ar
     5     3     8    1
     6     6     5   ar
     7    11     8    1
     8    11     9   ar
     9     8     2    1
    10     5     9   ar
    11     9     1    1
