@<TRIPOS>MOLECULE
3t7a_ADP_A_1.pdb
 27 29 0 0 0
SMALL
GASTEIGER

@<TRIPOS>ATOM
      1  PB         1.8970   10.6510    9.8480 P.3   401  ADP401      0.5373
      2  O1B        1.2740   10.5180   11.2810 O.3   401  ADP401     -0.1143
      3  O2B        0.6940   10.6540    8.8300 O.2   401  ADP401     -0.2221
      4  O3B        2.7980   11.8430    9.6980 O.3   401  ADP401     -0.1143
      5  PA         4.0090    8.9050    8.8720 P.3   401  ADP401      0.2231
      6  O1A        3.6780    7.8100    7.9280 O.2   401  ADP401     -0.5169
      7  O2A        4.6360   10.1230    8.3330 O.3   401  ADP401     -0.4370
      8  O3A        2.6670    9.2210    9.6790 O.3   401  ADP401     -0.2261
      9  O5'        4.8880    8.3150   10.0720 O.3   401  ADP401     -0.3111
     10  C5'        5.4150    9.2270   11.0910 C.3   401  ADP401      0.1813
     11  C4'        6.9590    9.2040   11.1900 C.3   401  ADP401      0.1821
     12  O4'        7.3270    7.8390   11.4820 O.3   401  ADP401     -0.3135
     13  C3'        7.6270    9.5020    9.8550 C.3   401  ADP401      0.2184
     14  O3'        7.7850   10.9090    9.6770 O.3   401  ADP401     -0.2174
     15  C2'        8.9690    8.8060   10.0580 C.3   401  ADP401      0.2570
     16  O2'        9.8140    9.5380   10.9560 O.3   401  ADP401     -0.2130
     17  C1'        8.5390    7.5210   10.7710 C.3   401  ADP401      0.3186
     18  N9         8.2900    6.4790    9.7500 N.pl3 401  ADP401     -0.1439
     19  C8         7.0250    6.2530    9.0430 C.3   401  ADP401      0.3377
     20  N7         7.2550    4.9870    8.3560 N.2   401  ADP401     -0.2095
     21  C5         8.5350    4.6530    8.5220 C.2   401  ADP401      0.2526
     22  C6         9.2820    3.5980    8.0230 C.2   401  ADP401      0.4393
     23  N6         8.7170    2.6930    7.2300 N.pl3 401  ADP401      0.2180
     24  N1        10.5790    3.5220    8.3620 N.2   401  ADP401      0.0021
     25  C2        11.1670    4.4180    9.1530 C.3   401  ADP401      0.5254
     26  N3        10.4830    5.4400    9.6770 N.2   401  ADP401     -0.0055
     27  C4         9.1770    5.5690    9.3610 C.2   401  ADP401      0.3518
@<TRIPOS>BOND
     1    23    22    1
     2     6     5    2
     3    22    24    2
     4    22    21    1
     5     7     5    1
     6    20    21    2
     7    20    19    1
     8    24    25    1
     9    21    27    1
    10     3     1    2
    11     5     8    1
    12     5     9    1
    13    19    18    1
    14    25    26    1
    15    27    26    2
    16    27    18    1
    17    14    13    1
    18     8     1    1
    19     4     1    1
    20    18    17    1
    21     1     2    1
    22    13    15    1
    23    13    11    1
    24    15    17    1
    25    15    16    1
    26     9    10    1
    27    17    12    1
    28    10    11    1
    29    11    12    1
