@<TRIPOS>MOLECULE
3t7b_GLU_A_1.pdb
 10 9 0 0 0
SMALL
GASTEIGER

@<TRIPOS>ATOM
      1  N         47.4700   44.4870   20.0400 N.3   258  GLU258     -0.1208
      2  CA        46.6540   44.6240   21.2950 C.3   258  GLU258      0.1949
      3  C         46.0720   43.2820   21.7960 C.2   258  GLU258      0.3819
      4  O         45.2580   42.6390   21.1170 O.co2 258  GLU258     -0.2441
      5  CB        45.5230   45.6580   21.1040 C.3   258  GLU258      0.0424
      6  CG        45.1110   45.8810   19.6440 C.3   258  GLU258      0.1161
      7  CD        43.6170   46.0890   19.4230 C.2   258  GLU258      0.3649
      8  OE1       43.2790   46.9600   18.5760 O.co2 258  GLU258     -0.2457
      9  OE2       42.7960   45.3760   20.0660 O.co2 258  GLU258     -0.2457
     10  OXT       46.3950   42.8210   22.9030 O.co2 258  GLU258     -0.2441
@<TRIPOS>BOND
     1     8     7   ar
     2     7     6    1
     3     7     9   ar
     4     6     5    1
     5     1     2    1
     6     5     2    1
     7     4     3   ar
     8     2     3    1
     9     3    10   ar
