@<TRIPOS>MOLECULE
3t7c_NAD_A_1.pdb
 44 48 0 0 0
SMALL
GASTEIGER

@<TRIPOS>ATOM
      1  PA        17.4310  -20.9450   -3.5780 P.3   279  NAD279      0.2189
      2  O1A       16.2020  -21.1410   -2.7150 O.3   279  NAD279     -0.4371
      3  O2A       18.1670  -22.1920   -4.0180 O.2   279  NAD279     -0.5170
      4  O5B       18.4330  -19.9160   -2.8860 O.3   279  NAD279     -0.3112
      5  C5B       17.9300  -18.8590   -2.0800 C.3   279  NAD279      0.1813
      6  C4B       18.7830  -18.8540   -0.8230 C.3   279  NAD279      0.1821
      7  O4B       18.3050  -17.7240   -0.0980 O.3   279  NAD279     -0.3135
      8  C3B       18.5570  -20.0850    0.0550 C.3   279  NAD279      0.2184
      9  O3B       19.8520  -20.6070    0.3760 O.3   279  NAD279     -0.2174
     10  C2B       17.7960  -19.5450    1.2690 C.3   279  NAD279      0.2570
     11  O2B       18.1720  -20.2020    2.4830 O.3   279  NAD279     -0.2130
     12  C1B       18.2550  -18.0860    1.2820 C.3   279  NAD279      0.3186
     13  N9A       17.3550  -17.2050    2.0730 N.pl3 279  NAD279     -0.1439
     14  C8A       16.0000  -17.1640    1.9820 C.3   279  NAD279      0.3377
     15  N7A       15.4720  -16.2570    2.8370 N.2   279  NAD279     -0.2095
     16  C5A       16.5330  -15.7210    3.4970 C.2   279  NAD279      0.2526
     17  C6A       16.6730  -14.7270    4.5680 C.2   279  NAD279      0.4393
     18  N6A       15.5480  -14.1450    5.0730 N.pl3 279  NAD279      0.2180
     19  N1A       17.9270  -14.4200    4.9830 N.2   279  NAD279      0.0021
     20  C2A       19.0300  -15.0100    4.4740 C.3   279  NAD279      0.5254
     21  N3A       18.9840  -15.9660    3.5020 N.2   279  NAD279     -0.0055
     22  C4A       17.7770  -16.3370    2.9920 C.2   279  NAD279      0.3518
     23  O3        16.9060  -20.1620   -4.8840 O.3   279  NAD279     -0.2703
     24  PN        17.7670  -19.4020   -6.0300 P.3   279  NAD279      0.2189
     25  O1N       17.2100  -19.7650   -7.3790 O.2   279  NAD279     -0.5170
     26  O2N       19.2530  -19.5110   -5.7560 O.3   279  NAD279     -0.4371
     27  O5D       17.3710  -17.8790   -5.6570 O.3   279  NAD279     -0.3112
     28  C5D       18.3060  -16.8080   -5.7670 C.3   279  NAD279      0.1813
     29  C4D       17.6390  -15.5800   -6.4060 C.3   279  NAD279      0.1799
     30  O4D       17.0710  -15.8550   -7.6890 O.3   279  NAD279     -0.3327
     31  C3D       16.4650  -15.0980   -5.5340 C.3   279  NAD279      0.2158
     32  O3D       16.4320  -13.6750   -5.5020 O.3   279  NAD279     -0.2175
     33  C2D       15.2460  -15.6360   -6.2790 C.3   279  NAD279      0.2309
     34  O2D       14.0770  -14.9100   -5.9670 O.3   279  NAD279     -0.2158
     35  C1D       15.7160  -15.3600   -7.6930 C.3   279  NAD279      0.2263
     36  N1N       15.0020  -16.0180   -8.7790 N.pl3 279  NAD279     -0.2787
     37  C2N       14.9830  -17.3590   -8.8270 C.3   279  NAD279      0.1244
     38  C3N       14.3760  -18.0310   -9.8880 C.2   279  NAD279      0.0544
     39  C7N       14.3410  -19.5440   -9.9730 C.2   279  NAD279      0.2818
     40  O7N       13.6740  -20.0590  -10.8790 O.2   279  NAD279     -0.2670
     41  N7N       15.0590  -20.3450   -9.1520 N.am  279  NAD279     -0.0839
     42  C4N       13.7970  -17.2350  -10.9170 C.2   279  NAD279      0.0033
     43  C5N       13.8160  -15.8310  -10.8740 C.2   279  NAD279      0.0157
     44  C6N       14.4970  -15.2230   -9.7950 C.2   279  NAD279      0.0633
@<TRIPOS>BOND
     1    42    43    1
     2    42    38    2
     3    40    39    2
     4    43    44    2
     5    39    38    1
     6    39    41   am
     7    38    37    1
     8    44    36    1
     9    37    36    1
    10    36    35    1
    11    35    30    1
    12    35    33    1
    13    30    29    1
    14    25    24    2
    15    29    28    1
    16    29    31    1
    17    33    34    1
    18    33    31    1
    19    24    26    1
    20    24    27    1
    21    24    23    1
    22    28    27    1
    23    31    32    1
    24    23     1    1
    25     3     1    2
    26     1     4    1
    27     1     2    1
    28     4     5    1
    29     5     6    1
    30     6     7    1
    31     6     8    1
    32     7    12    1
    33     8     9    1
    34     8    10    1
    35    10    12    1
    36    10    11    1
    37    12    13    1
    38    14    13    1
    39    14    15    1
    40    13    22    1
    41    15    16    2
    42    22    16    1
    43    22    21    2
    44    16    17    1
    45    21    20    1
    46    20    19    1
    47    17    19    2
    48    17    18    1
