@<TRIPOS>MOLECULE
3t7d_TRE_A_1.pdb
 23 24 0 0 0
SMALL
GASTEIGER

@<TRIPOS>ATOM
      1  C1        49.4760   14.3240   69.6900 C.3   498  TRE498      0.2713
      2  C2        47.9730   14.5400   69.8130 C.3   498  TRE498      0.2406
      3  C3        47.3330   14.7270   68.4420 C.3   498  TRE498      0.2198
      4  C4        48.0940   15.7610   67.6210 C.3   498  TRE498      0.2144
      5  C5        49.5910   15.4710   67.6290 C.3   498  TRE498      0.1835
      6  C6        50.3600   16.5460   66.8710 C.3   498  TRE498      0.2142
      7  O1        49.7260   13.1080   68.9890 O.3   498  TRE498     -0.3016
      8  O2        47.3800   13.4120   70.4660 O.3   498  TRE498     -0.2149
      9  O3        45.9750   15.1510   68.6030 O.3   498  TRE498     -0.2174
     10  O4        47.6130   15.7480   66.2730 O.3   498  TRE498     -0.2176
     11  O5        50.0560   15.4130   68.9750 O.3   498  TRE498     -0.3256
     12  O6        51.7600   16.4070   67.1360 O.3   498  TRE498     -0.2176
     13  C1P       51.1160   12.7890   68.9600 C.3   498  TRE498      0.2713
     14  C2P       51.3350   11.5480   68.1040 C.3   498  TRE498      0.2406
     15  C3P       50.6560   10.3310   68.7220 C.3   498  TRE498      0.2198
     16  C4P       51.0100   10.1980   70.1980 C.3   498  TRE498      0.2144
     17  C5P       50.8090   11.5210   70.9290 C.3   498  TRE498      0.1835
     18  C6P       51.2340   11.4090   72.3880 C.3   498  TRE498      0.2142
     19  O2P       50.8080   11.7740   66.7920 O.3   498  TRE498     -0.2149
     20  O3P       51.0670    9.1500   68.0240 O.3   498  TRE498     -0.2174
     21  O4P       50.1870    9.1910   70.7980 O.3   498  TRE498     -0.2176
     22  O5P       51.5740   12.5390   70.2870 O.3   498  TRE498     -0.3256
     23  O6P       52.6130   11.0290   72.4550 O.3   498  TRE498     -0.2176
@<TRIPOS>BOND
     1    10     4    1
     2    19    14    1
     3     6    12    1
     4     6     5    1
     5     4     5    1
     6     4     3    1
     7     5    11    1
     8    20    15    1
     9    14    15    1
    10    14    13    1
    11     3     9    1
    12     3     2    1
    13    15    16    1
    14    13     7    1
    15    13    22    1
    16    11     1    1
    17     7     1    1
    18     1     2    1
    19     2     8    1
    20    16    21    1
    21    16    17    1
    22    22    17    1
    23    17    18    1
    24    18    23    1
