@<TRIPOS>MOLECULE
3t7k_III_C_1.pdb
 37 36 0 0 0
SMALL
GASTEIGER

@<TRIPOS>ATOM
      1  N          1.1750  -17.4950    6.0300 N.3   128  ALA128     -0.1231
      2  CA         2.0480  -16.3300    6.1200 C.3   128  ALA128      0.1694
      3  C          1.5880  -15.2030    5.1900 C.2   128  ALA128      0.2593
      4  O          0.7970  -15.4250    4.2690 O.2   128  ALA128     -0.2718
      5  CB         3.4860  -16.7160    5.8130 C.3   128  ALA128      0.0304
      6  N          2.1020  -13.9990    5.4280 N.am  129  SER129     -0.1939
      7  CA         1.6860  -12.8170    4.6810 C.3   129  SER129      0.2027
      8  CB         2.2930  -11.5700    5.2830 C.3   129  SER129      0.1847
      9  OG         1.3010  -10.9300    6.0320 O.3   129  SER129     -0.2679
     10  C          2.0070  -12.8390    3.2030 C.2   129  SER129      0.2642
     11  O          3.1610  -12.9790    2.8070 O.2   129  SER129     -0.2714
     12  P          2.0290  -10.0510    7.1450 P.3   129  SER129      0.5327
     13  O1P        1.0490  -10.0970    8.4080 O.3   129  SER129     -0.1145
     14  O2P        3.5070  -10.6480    7.3830 O.3   129  SER129     -0.1145
     15  O3P        2.1540   -8.5590    6.5300 O.2   129  SER129     -0.2224
     16  N          0.9660  -12.6530    2.3980 N.am  130  GLN130     -0.1963
     17  CA         1.0900  -12.6160    0.9490 C.3   130  GLN130      0.1728
     18  C          1.8840  -11.3960    0.4960 C.2   130  GLN130      0.2616
     19  O          1.4670  -10.2590    0.7240 O.2   130  GLN130     -0.2715
     20  CB        -0.3020  -12.5930    0.3100 C.3   130  GLN130      0.0334
     21  N          3.0340  -11.6250   -0.1270 N.am  131  GLU131     -0.1963
     22  CA         3.7790  -10.5280   -0.7290 C.3   131  GLU131      0.1733
     23  C          3.2970  -10.2800   -2.1590 C.2   131  GLU131      0.2616
     24  O          3.2730  -11.1910   -2.9820 O.2   131  GLU131     -0.2715
     25  CB         5.2780  -10.8010   -0.7110 C.3   131  GLU131      0.0429
     26  CG         6.0410  -10.0280   -1.7900 C.3   131  GLU131      0.1163
     27  CD         7.3910   -9.5340   -1.2930 C.2   131  GLU131      0.3649
     28  OE1        8.4140   -9.7330   -1.9880 O.co2 131  GLU131     -0.2457
     29  OE2        7.4210   -8.9460   -0.1970 O.co2 131  GLU131     -0.2457
     30  N          2.9110   -9.0430   -2.4470 N.am  132  LEU132     -0.1977
     31  CA         2.3180   -8.7150   -3.7410 C.3   132  LEU132      0.1596
     32  C          3.3510   -8.1180   -4.6960 C.2   132  LEU132      0.2287
     33  O          4.4210   -8.6970   -4.9030 O.2   132  LEU132     -0.2864
     34  CB         1.1390   -7.7550   -3.5530 C.3   132  LEU132      0.0297
     35  CG         0.2110   -8.0640   -2.3760 C.3   132  LEU132      0.0022
     36  CD1       -0.8720   -7.0040   -2.2610 C.3   132  LEU132      0.0001
     37  CD2       -0.4060   -9.4420   -2.5180 C.3   132  LEU132      0.0001
@<TRIPOS>BOND
     1    33    32    2
     2    32    31    1
     3    31    34    1
     4    31    30    1
     5    34    35    1
     6    24    23    2
     7    37    35    1
     8    30    23   am
     9    35    36    1
    10    23    22    1
    11    28    27   ar
    12    26    27    1
    13    26    25    1
    14    27    29   ar
    15    22    25    1
    16    22    21    1
    17    21    18   am
    18    20    17    1
    19    18    19    2
    20    18    17    1
    21    17    16    1
    22    16    10   am
    23    11    10    2
    24    10     7    1
    25     4     3    2
    26     7     8    1
    27     7     6    1
    28     3     6   am
    29     3     2    1
    30     8     9    1
    31     5     2    1
    32     1     2    1
    33     9    12    1
    34    15    12    2
    35    12    14    1
    36    12    13    1
