@<TRIPOS>MOLECULE
3t7m_UDP_A_1.pdb
 25 26 0 0 0
SMALL
GASTEIGER

@<TRIPOS>ATOM
      1  N1        41.1150    8.5310   49.4410 N.am  264  UDP264     -0.1766
      2  C2        41.0120    7.8360   50.6380 C.1   264  UDP264      0.2845
      3  N3        41.3440    6.5240   50.6720 N.2   264  UDP264     -0.2452
      4  C4        41.8120    5.8580   49.5490 C.1   264  UDP264      0.2182
      5  C5        41.9050    6.5550   48.3410 C.2   264  UDP264      0.1242
      6  C6        41.6330    7.9300   48.3320 C.2   264  UDP264      0.0929
      7  O2        40.6280    8.3790   51.6860 O.2   264  UDP264     -0.1918
      8  O4        42.1040    4.6410   49.6420 O.2   264  UDP264     -0.2085
      9  C1'       40.6910    9.9350   49.4440 C.3   264  UDP264      0.2401
     10  C2'       41.8010   10.8730   49.8660 C.3   264  UDP264      0.2319
     11  O2'       41.3140   12.0750   50.4180 O.3   264  UDP264     -0.2157
     12  C3'       42.4430   11.1970   48.5390 C.3   264  UDP264      0.2158
     13  C4'       41.2310   11.3000   47.6490 C.3   264  UDP264      0.1799
     14  O4'       40.3500   10.2820   48.1190 O.3   264  UDP264     -0.3320
     15  O3'       43.3020   12.3100   48.6530 O.3   264  UDP264     -0.2175
     16  C5'       41.4770   11.1110   46.1410 C.3   264  UDP264      0.1813
     17  O5'       42.3700   10.0450   45.9110 O.3   264  UDP264     -0.3111
     18  PA        43.8250   10.3150   45.3060 P.3   264  UDP264      0.2231
     19  O1A       44.4150   11.6260   45.8480 O.3   264  UDP264     -0.4370
     20  O2A       44.6270    9.0960   45.5790 O.2   264  UDP264     -0.5169
     21  O3A       43.4640   10.5550   43.7620 O.3   264  UDP264     -0.2261
     22  PB        44.4490   11.3060   42.7320 P.3   264  UDP264      0.5373
     23  O1B       45.6940   10.5550   42.7920 O.3   264  UDP264     -0.1143
     24  O2B       43.7450   11.2070   41.4080 O.2   264  UDP264     -0.2221
     25  O3B       44.7240   12.6670   43.3590 O.3   264  UDP264     -0.1143
@<TRIPOS>BOND
     1    24    22    2
     2    22    23    1
     3    22    25    1
     4    22    21    1
     5    21    18    1
     6    18    20    2
     7    18    19    1
     8    18    17    1
     9    17    16    1
    10    16    13    1
    11    13    14    1
    12    13    12    1
    13    14     9    1
    14     6     5    2
    15     6     1    1
    16     5     4    1
    17    12    15    1
    18    12    10    1
    19     1     9    1
    20     1     2   am
    21     9    10    1
    22     4     8    2
    23     4     3    2
    24    10    11    1
    25     2     3    2
    26     2     7    2
