@<TRIPOS>MOLECULE
3t7n_UDP_A_1.pdb
 25 26 0 0 0
SMALL
GASTEIGER

@<TRIPOS>ATOM
      1  N1        30.1030   12.1510   59.2750 N.am  264  UDP264     -0.1766
      2  C2        30.0570   12.8000   60.4960 C.1   264  UDP264      0.2845
      3  N3        29.6810   14.1360   60.5920 N.2   264  UDP264     -0.2452
      4  C4        29.3510   14.8740   59.4630 C.1   264  UDP264      0.2182
      5  C5        29.3950   14.2200   58.2260 C.2   264  UDP264      0.1242
      6  C6        29.8940   12.9080   58.1340 C.2   264  UDP264      0.0929
      7  O2        30.3340   12.1700   61.5110 O.2   264  UDP264     -0.1918
      8  O4        29.0080   16.0770   59.5560 O.2   264  UDP264     -0.2085
      9  C1'       30.5210   10.7090   59.2360 C.3   264  UDP264      0.2401
     10  C2'       29.4130    9.7610   59.6480 C.3   264  UDP264      0.2319
     11  O2'       29.9330    8.5390   60.1490 O.3   264  UDP264     -0.2157
     12  C3'       28.7310    9.5640   58.3130 C.3   264  UDP264      0.2158
     13  C4'       29.9650    9.4000   57.4010 C.3   264  UDP264      0.1799
     14  O4'       30.9210   10.2970   57.9300 O.3   264  UDP264     -0.3320
     15  O3'       27.7920    8.5020   58.3260 O.3   264  UDP264     -0.2175
     16  C5'       29.7990    9.7540   55.9170 C.3   264  UDP264      0.1813
     17  O5'       28.8630   10.8150   55.7390 O.3   264  UDP264     -0.3111
     18  PA        27.3280   10.5260   55.2310 P.3   264  UDP264      0.2231
     19  O1A       26.7240    9.2250   55.7210 O.3   264  UDP264     -0.4370
     20  O2A       26.6290   11.8100   55.6390 O.2   264  UDP264     -0.5169
     21  O3A       27.5300   10.4850   53.6310 O.3   264  UDP264     -0.2261
     22  PB        26.5650    9.6770   52.6100 P.3   264  UDP264      0.5373
     23  O1B       25.2430   10.2880   52.8080 O.3   264  UDP264     -0.1143
     24  O2B       27.1090    9.9540   51.2270 O.2   264  UDP264     -0.2221
     25  O3B       26.6340    8.2450   52.9990 O.3   264  UDP264     -0.1143
@<TRIPOS>BOND
     1    24    22    2
     2    22    23    1
     3    22    25    1
     4    22    21    1
     5    21    18    1
     6    18    20    2
     7    18    19    1
     8    18    17    1
     9    17    16    1
    10    16    13    1
    11    13    14    1
    12    13    12    1
    13    14     9    1
    14     6     5    2
    15     6     1    1
    16     5     4    1
    17    12    15    1
    18    12    10    1
    19     9     1    1
    20     9    10    1
    21     1     2   am
    22     4     8    2
    23     4     3    2
    24    10    11    1
    25     2     3    2
    26     2     7    2
