@<TRIPOS>MOLECULE
3t7o_UPG_A_1.pdb
 36 38 0 0 0
SMALL
GASTEIGER

@<TRIPOS>ATOM
      1  N1        40.8700   21.3210   18.8540 N.am  265  UPG265     -0.1766
      2  C2        41.6300   21.3480   17.6710 C.1   265  UPG265      0.2845
      3  N3        42.8270   20.7750   17.6590 N.2   265  UPG265     -0.2452
      4  C4        43.3260   20.1490   18.7650 C.1   265  UPG265      0.2182
      5  C5        42.5920   20.1100   19.9500 C.2   265  UPG265      0.1242
      6  C6        41.3480   20.7190   19.9660 C.2   265  UPG265      0.0929
      7  O2        41.1660   21.9120   16.6600 O.2   265  UPG265     -0.1918
      8  O4        44.4460   19.6070   18.7520 O.2   265  UPG265     -0.2085
      9  C1C       39.5900   22.0030   18.8330 C.3   265  UPG265      0.2401
     10  C2C       38.4570   21.0900   18.4160 C.3   265  UPG265      0.2319
     11  O2C       37.4070   21.9140   17.8840 O.3   265  UPG265     -0.2157
     12  C3C       38.0400   20.4970   19.7340 C.3   265  UPG265      0.2158
     13  C4C       38.1560   21.7150   20.6230 C.3   265  UPG265      0.1799
     14  O4C       39.2750   22.4370   20.1430 O.3   265  UPG265     -0.3320
     15  O3C       36.7220   19.9290   19.7490 O.3   265  UPG265     -0.2175
     16  C5C       38.2920   21.4710   22.1320 C.3   265  UPG265      0.1813
     17  O5C       39.0960   20.3430   22.3320 O.3   265  UPG265     -0.3112
     18  PA        38.4850   18.9620   22.8610 P.3   265  UPG265      0.2189
     19  O1A       37.0670   18.6330   22.3240 O.2   265  UPG265     -0.5170
     20  O2A       39.4750   17.8650   22.5670 O.3   265  UPG265     -0.4371
     21  O3A       38.3960   19.2390   24.4260 O.3   265  UPG265     -0.2703
     22  PB        37.3540   18.4150   25.3310 P.3   265  UPG265      0.2208
     23  O1B       35.9220   18.5840   24.7810 O.2   265  UPG265     -0.5170
     24  O2B       37.7990   16.9820   25.2100 O.3   265  UPG265     -0.4371
     25  O3B       37.6550   18.9410   26.8080 O.3   265  UPG265     -0.2857
     26  C1'       37.4750   20.2250   27.4340 C.3   265  UPG265      0.2742
     27  C2'       36.1920   20.9730   27.0530 C.3   265  UPG265      0.2409
     28  C3'       36.4270   21.7950   25.8020 C.3   265  UPG265      0.2198
     29  C4'       37.5330   22.8470   26.0760 C.3   265  UPG265      0.2144
     30  C5'       38.7700   22.3470   26.8770 C.3   265  UPG265      0.1835
     31  C6'       39.0740   23.0790   28.1970 C.3   265  UPG265      0.2142
     32  O2'       35.0410   20.0860   26.9040 O.3   265  UPG265     -0.2149
     33  O3'       35.1580   22.3400   25.4200 O.3   265  UPG265     -0.2174
     34  O4'       37.9790   23.2830   24.8120 O.3   265  UPG265     -0.2176
     35  O5'       38.7100   20.9500   27.2640 O.3   265  UPG265     -0.3254
     36  O6'       39.7670   24.3540   28.0990 O.3   265  UPG265     -0.2176
@<TRIPOS>BOND
     1     7     2    2
     2     3     2    2
     3     3     4    2
     4     2     1   am
     5    11    10    1
     6    10     9    1
     7    10    12    1
     8     8     4    2
     9     4     5    1
    10     9     1    1
    11     9    14    1
    12     1     6    1
    13    12    15    1
    14    12    13    1
    15     5     6    2
    16    14    13    1
    17    13    16    1
    18    16    17    1
    19    19    18    2
    20    17    18    1
    21    20    18    1
    22    18    21    1
    23    21    22    1
    24    23    22    2
    25    34    29    1
    26    24    22    1
    27    22    25    1
    28    33    28    1
    29    28    29    1
    30    28    27    1
    31    29    30    1
    32    25    26    1
    33    30    35    1
    34    30    31    1
    35    32    27    1
    36    27    26    1
    37    35    26    1
    38    36    31    1
