@<TRIPOS>MOLECULE
3t7o_GLC_A_1.pdb
 12 12 0 0 0
SMALL
GASTEIGER

@<TRIPOS>ATOM
      1  C1        37.0010   17.1320   33.2220 C.2   263  GLC263      0.3505
      2  C2        36.1610   18.4400   32.9840 C.3   263  GLC263      0.2823
      3  C3        36.2710   18.8420   31.4840 C.3   263  GLC263      0.2270
      4  C4        37.7860   18.9230   31.2080 C.3   263  GLC263      0.2276
      5  C5        38.2580   17.4480   31.2440 C.3   263  GLC263      0.2344
      6  C6        39.6230   17.0700   30.6630 C.3   263  GLC263      0.2281
      7  O1        36.5480   15.9830   33.9080 O.2   263  GLC263     -0.2472
      8  O2        34.8260   18.2410   33.4290 O.3   263  GLC263     -0.2082
      9  O3        35.5860   20.0250   31.0870 O.3   263  GLC263     -0.2169
     10  O4        38.0820   19.6900   30.0380 O.3   263  GLC263     -0.2163
     11  O5        38.2770   17.0250   32.5970 O.3   263  GLC263     -0.4450
     12  O6        39.3990   16.0880   29.6730 O.3   263  GLC263     -0.2163
@<TRIPOS>BOND
     1    12     6    1
     2    10     4    1
     3     6     5    1
     4     9     3    1
     5     4     5    1
     6     4     3    1
     7     5    11    1
     8     3     2    1
     9    11     1    1
    10     2     1    1
    11     2     8    1
    12     1     7    2
