@<TRIPOS>MOLECULE
3t7p_7SP_A_1.pdb
 24 26 0 0 0
SMALL
GASTEIGER

@<TRIPOS>ATOM
      1  C1        -2.7020    2.0880   11.9890 C.ar  1001  7SP1001    -0.0003
      2  C2        -1.6900    1.1800   12.2340 C.ar  1001  7SP1001    -0.0000
      3  C3        -0.4880    1.2750   11.5280 C.ar  1001  7SP1001    -0.0003
      4  C4        -0.3130    2.2820   10.5820 C.ar  1001  7SP1001    -0.0024
      5  C5        -1.3260    3.1890   10.3240 C.ar  1001  7SP1001     0.0039
      6  C6        -2.5280    3.0930   11.0420 C.ar  1001  7SP1001    -0.0024
      7  C7        -1.1260    4.2820    9.3050 C.3   1001  7SP1001     0.1929
      8  C8        -0.9670    5.5640   10.0620 C.2   1001  7SP1001     0.2792
      9  O9        -1.9210    6.3220   10.2100 O.2   1001  7SP1001    -0.2700
     10  N10        0.3100    5.8880   10.6440 N.am  1001  7SP1001    -0.1097
     11  N11        0.4570    7.0420   11.3460 N.3   1001  7SP1001    -0.1036
     12  C12        1.7310    7.0560   12.0300 C.3   1001  7SP1001     0.1398
     13  C13        2.0800    8.2740   12.8320 C.ar  1001  7SP1001    -0.0027
     14  C14        1.6240    9.5170   12.4350 C.ar  1001  7SP1001     0.0005
     15  C15        1.9370   10.6590   13.1630 C.ar  1001  7SP1001     0.0417
     16  C16        2.7170   10.5530   14.3070 C.ar  1001  7SP1001     0.1956
     17  C17        3.1750    9.3110   14.7130 C.ar  1001  7SP1001     0.0387
     18  C18        2.8630    8.1600   13.9820 C.ar  1001  7SP1001     0.0005
     19  C19        3.3440    6.9390   14.4290 C.ar  1001  7SP1001    -0.0002
     20  C20        4.1250    6.8520   15.5790 C.ar  1001  7SP1001    -0.0000
     21  C21        4.4280    7.9960   16.2940 C.ar  1001  7SP1001     0.0001
     22  C22        3.9560    9.2180   15.8640 C.ar  1001  7SP1001     0.0032
     23  O23        3.0310   11.6750   15.0330 O.3   1001  7SP1001    -0.2866
     24  N24       -2.2640    4.3900    8.4210 N.3   1001  7SP1001    -0.1181
@<TRIPOS>BOND
     1    24     7    1
     2     7     8    1
     3     7     5    1
     4     8     9    2
     5     8    10   am
     6     5     4   ar
     7     5     6   ar
     8     4     3   ar
     9    10    11    1
    10     6     1   ar
    11    11    12    1
    12     3     2   ar
    13     1     2   ar
    14    12    13    1
    15    14    13   ar
    16    14    15   ar
    17    13    18   ar
    18    15    16   ar
    19    18    19   ar
    20    18    17   ar
    21    16    17   ar
    22    16    23    1
    23    19    20   ar
    24    17    22   ar
    25    20    21   ar
    26    22    21   ar
