@<TRIPOS>MOLECULE
3t7q_RB4_A_1.pdb
 27 29 0 0 0
SMALL
GASTEIGER

@<TRIPOS>ATOM
      1  C1        -3.6960    7.9890    6.6200 C.ar  1001  RB41001     0.0936
      2  N1        -2.4420    5.9500    7.4220 N.am  1001  RB41001    -0.1712
      3  O1        -4.6460    6.0080    5.7350 O.2   1001  RB41001    -0.2448
      4  S1        -1.5530    8.5110    7.8530 S.2   1001  RB41001    -0.0701
      5  C2        -4.8270    7.1990    5.9870 C.2   1001  RB41001     0.3427
      6  N2        -0.1780    3.3160    9.0140 N.3   1001  RB41001    -0.2081
      7  O2        -6.1270    7.7160    5.9750 O.3   1001  RB41001    -0.4454
      8  C3        -7.1600    6.9550    5.4150 C.3   1001  RB41001     0.2089
      9  N3        -4.5830    2.4620   10.8910 N.2   1001  RB41001    -0.2442
     10  O3        -0.6610    6.0790    8.9100 O.2   1001  RB41001    -0.2714
     11  C4        -8.0380    6.1960    6.3340 C.3   1001  RB41001     0.0513
     12  C5        -3.5440    9.5050    6.6560 C.ar  1001  RB41001    -0.0073
     13  C6        -4.5000   10.4720    6.0670 C.3   1001  RB41001     0.0318
     14  C7        -2.3300    9.8530    7.3540 C.ar  1001  RB41001     0.0327
     15  C8        -2.5840    7.3790    7.2850 C.ar  1001  RB41001     0.1087
     16  C9        -1.4400    5.3770    8.2790 C.2   1001  RB41001     0.2638
     17  C10       -1.3730    3.8680    8.3730 C.3   1001  RB41001     0.1757
     18  C11       -0.3330    3.2950   10.4580 C.3   1001  RB41001     0.0940
     19  C12       -0.9500    2.0470   11.0270 C.3   1001  RB41001     0.0468
     20  C13       -2.4370    1.9420   10.8980 C.2   1001  RB41001    -0.0005
     21  C19       -3.1620    0.7790   10.5200 C.2   1001  RB41001     0.0113
     22  C20       -4.4900    1.1230   10.5240 C.2   1001  RB41001     0.0804
     23  C21       -3.3500    2.9670   11.1160 C.2   1001  RB41001     0.0946
     24  C22       -2.7680   -0.5460   10.1770 C.2   1001  RB41001    -0.0202
     25  C23       -3.7430   -1.4950    9.8450 C.3   1001  RB41001     0.0521
     26  C24       -5.1000   -1.1390    9.8520 C.2   1001  RB41001    -0.0199
     27  C25       -5.4860    0.1550   10.1850 C.2   1001  RB41001     0.0148
@<TRIPOS>BOND
     1     8     7    1
     2     8    11    1
     3     3     5    2
     4     7     5    1
     5     5     1    1
     6    13    12    1
     7     1    12   ar
     8     1    15   ar
     9    12    14   ar
    10    15     2    1
    11    15     4   ar
    12    14     4   ar
    13     2    16   am
    14    16    17    1
    15    16    10    2
    16    17     6    1
    17     6    18    1
    18    25    26    1
    19    25    24    1
    20    26    27    2
    21    24    21    2
    22    27    22    1
    23    18    19    1
    24    21    22    1
    25    21    20    1
    26    22     9    2
    27     9    23    1
    28    20    19    1
    29    20    23    2
