@<TRIPOS>MOLECULE
3t7s_SAM_A_1.pdb
 27 29 0 0 0
SMALL
GASTEIGER

@<TRIPOS>ATOM
      1  N        -17.2730   -7.8050   14.9060 N.3   300  SAM300     -0.1208
      2  CA       -17.4570   -6.4040   15.3130 C.3   300  SAM300      0.1952
      3  C        -17.6480   -5.5250   14.0750 C.2   300  SAM300      0.3819
      4  O        -17.3200   -6.0170   12.9740 O.co2 300  SAM300     -0.2441
      5  OXT      -18.1130   -4.3790   14.2530 O.co2 300  SAM300     -0.2441
      6  CB       -16.2240   -5.9300   16.0870 C.3   300  SAM300      0.0414
      7  CG       -14.9720   -5.9670   15.2090 C.3   300  SAM300      0.0503
      8  SD       -13.4650   -5.4110   16.0860 S.3   300  SAM300     -0.1761
      9  CE       -12.3910   -5.0900   14.7030 C.3   300  SAM300      0.0590
     10  C5'      -12.6180   -6.8260   16.8780 C.3   300  SAM300      0.0806
     11  C4'      -13.4100   -7.4170   18.0450 C.3   300  SAM300      0.1622
     12  O4'      -12.6970   -8.5640   18.5410 O.3   300  SAM300     -0.3153
     13  C3'      -13.5000   -6.4180   19.2030 C.3   300  SAM300      0.2168
     14  O3'      -14.8410   -6.3490   19.6950 O.3   300  SAM300     -0.2175
     15  C2'      -12.5880   -7.0470   20.2560 C.3   300  SAM300      0.2569
     16  O2'      -13.0770   -6.7250   21.5610 O.3   300  SAM300     -0.2130
     17  C1'      -12.8490   -8.5240   19.9670 C.3   300  SAM300      0.3185
     18  N9       -11.8230   -9.3890   20.5920 N.pl3 300  SAM300     -0.1439
     19  C8       -10.5270   -9.0990   20.7040 C.3   300  SAM300      0.3377
     20  N7        -9.8880  -10.1340   21.2440 N.2   300  SAM300     -0.2095
     21  C5       -10.7790  -11.0920   21.4770 C.2   300  SAM300      0.2526
     22  C6       -10.7060  -12.3820   21.9900 C.2   300  SAM300      0.4393
     23  N6        -9.5440  -12.8890   22.3930 N.pl3 300  SAM300      0.2180
     24  N1       -11.8260  -13.1130   22.0690 N.2   300  SAM300      0.0021
     25  C2       -12.9890  -12.6240   21.6710 C.3   300  SAM300      0.5254
     26  N3       -13.0950  -11.4020   21.1820 N.2   300  SAM300     -0.0055
     27  C4       -12.0150  -10.6140   21.0680 C.2   300  SAM300      0.3518
@<TRIPOS>BOND
     1     4     3   ar
     2     3     5   ar
     3     3     2    1
     4     9     8    1
     5     1     2    1
     6     7     8    1
     7     7     6    1
     8     2     6    1
     9     8    10    1
    10    10    11    1
    11    11    12    1
    12    11    13    1
    13    12    17    1
    14    13    14    1
    15    13    15    1
    16    17    15    1
    17    17    18    1
    18    15    16    1
    19    18    19    1
    20    18    27    1
    21    19    20    1
    22    27    26    2
    23    27    21    1
    24    26    25    1
    25    20    21    2
    26    21    22    1
    27    25    24    1
    28    22    24    2
    29    22    23    1
