@<TRIPOS>MOLECULE
3t7t_SAH_A_1.pdb
 26 28 0 0 0
SMALL
GASTEIGER

@<TRIPOS>ATOM
      1  N         17.2350   -8.1130  -14.7800 N.3   300  SAH300     -0.1208
      2  CA        17.5130   -6.7420  -15.2330 C.3   300  SAH300      0.1952
      3  CB        16.3200   -6.2040  -16.0270 C.3   300  SAH300      0.0422
      4  CG        15.0280   -6.2330  -15.2090 C.3   300  SAH300      0.0597
      5  SD        13.5970   -5.5410  -16.1140 S.3   300  SAH300     -0.1375
      6  C         17.7990   -5.8440  -14.0260 C.2   300  SAH300      0.3819
      7  O         17.5610   -6.3170  -12.8940 O.co2 300  SAH300     -0.2441
      8  OXT       18.2710   -4.7110  -14.2660 O.co2 300  SAH300     -0.2441
      9  C5'       12.8510   -7.0420  -16.8500 C.3   300  SAH300      0.0899
     10  C4'       13.6900   -7.6670  -17.9670 C.3   300  SAH300      0.1630
     11  O4'       12.9760   -8.8070  -18.4800 O.3   300  SAH300     -0.3153
     12  C3'       13.8250   -6.6810  -19.1300 C.3   300  SAH300      0.2168
     13  O3'       15.1110   -6.8250  -19.7380 O.3   300  SAH300     -0.2175
     14  C2'       12.7450   -7.1810  -20.0870 C.3   300  SAH300      0.2569
     15  O2'       13.1020   -6.8040  -21.4190 O.3   300  SAH300     -0.2130
     16  C1'       12.9830   -8.6790  -19.9100 C.3   300  SAH300      0.3185
     17  N9        11.9530   -9.5420  -20.5400 N.pl3 300  SAH300     -0.1439
     18  C8        10.6510   -9.2740  -20.6560 C.3   300  SAH300      0.3377
     19  N7        10.0260  -10.3180  -21.1910 N.2   300  SAH300     -0.2095
     20  C5        10.9340  -11.2560  -21.4590 C.2   300  SAH300      0.2526
     21  C6        10.8830  -12.5430  -21.9690 C.2   300  SAH300      0.4393
     22  N6         9.7330  -13.0790  -22.3760 N.pl3 300  SAH300      0.2180
     23  N1        12.0160  -13.2560  -22.0600 N.2   300  SAH300      0.0021
     24  C2        13.1690  -12.7380  -21.6780 C.3   300  SAH300      0.5254
     25  N3        13.2520  -11.5220  -21.1690 N.2   300  SAH300     -0.0055
     26  C4        12.1610  -10.7510  -21.0420 C.2   300  SAH300      0.3518
@<TRIPOS>BOND
     1    22    21    1
     2    23    21    2
     3    23    24    1
     4    21    20    1
     5    24    25    1
     6    20    19    2
     7    20    26    1
     8    15    14    1
     9    19    18    1
    10    25    26    2
    11    26    17    1
    12    18    17    1
    13    17    16    1
    14    14    16    1
    15    14    12    1
    16    16    11    1
    17    13    12    1
    18    12    10    1
    19    11    10    1
    20    10     9    1
    21     9     5    1
    22     5     4    1
    23     3     2    1
    24     3     4    1
    25     2     1    1
    26     2     6    1
    27     8     6   ar
    28     6     7   ar
