@<TRIPOS>MOLECULE
3t7v_MD0_A_1.pdb
 10 9 0 0 0
SMALL
GASTEIGER

@<TRIPOS>ATOM
      1  C         49.8490   42.4840    1.8750 C.2   993  MD0993      0.3819
      2  N         49.2370   41.8750   -0.3940 N.3   993  MD0993     -0.1208
      3  O         50.7580   42.8950    2.6250 O.co2 993  MD0993     -0.2441
      4  CA        50.2080   41.6680    0.6750 C.3   993  MD0993      0.1943
      5  CB        50.2820   40.1560    1.0470 C.3   993  MD0993      0.0301
      6  CD        51.9840   38.5240    2.1100 C.3   993  MD0993      0.1094
      7  NE        53.1120   38.4580    3.0300 N.3   993  MD0993     -0.1314
      8  CG        51.4670   39.9580    2.0370 C.3   993  MD0993      0.0225
      9  CG2       48.9800   39.5920    1.6720 C.3   993  MD0993      0.0021
     10  OXT       48.6510   42.7200    2.0730 O.co2 993  MD0993     -0.2441
@<TRIPOS>BOND
     1     2     4    1
     2     4     5    1
     3     4     1    1
     4     5     9    1
     5     5     8    1
     6     1    10   ar
     7     1     3   ar
     8     8     6    1
     9     6     7    1
