@<TRIPOS>MOLECULE
3t7v_SAM_A_1.pdb
 27 29 0 0 0
SMALL
GASTEIGER

@<TRIPOS>ATOM
      1  N         51.4010   31.1680   -0.5890 N.3   992  SAM992     -0.1208
      2  CA        52.0000   31.6180    0.5780 C.3   992  SAM992      0.1952
      3  C         51.1960   31.4300    1.8010 C.2   992  SAM992      0.3819
      4  O         50.0330   30.9840    1.7200 O.co2 992  SAM992     -0.2441
      5  OXT       51.7880   31.6270    2.9200 O.co2 992  SAM992     -0.2441
      6  CB        51.9850   32.9750    0.6890 C.3   992  SAM992      0.0414
      7  CG        50.8210   33.7900    0.2950 C.3   992  SAM992      0.0503
      8  SD        50.2540   34.9100    1.6450 S.3   992  SAM992     -0.1761
      9  CE        50.5650   36.4970    0.9200 C.3   992  SAM992      0.0590
     10  C5'       48.4870   34.7950    1.4630 C.3   992  SAM992      0.0806
     11  C4'       47.8350   35.0820    2.5960 C.3   992  SAM992      0.1622
     12  O4'       47.1130   36.2250    1.8110 O.3   992  SAM992     -0.3153
     13  C3'       47.0850   34.1310    3.1410 C.3   992  SAM992      0.2168
     14  O3'       47.9870   33.9590    4.2430 O.3   992  SAM992     -0.2175
     15  C2'       46.0180   35.1410    3.5850 C.3   992  SAM992      0.2569
     16  O2'       46.1960   35.6240    4.9570 O.3   992  SAM992     -0.2130
     17  C1'       45.9200   36.3170    2.5970 C.3   992  SAM992      0.3185
     18  N9        44.7980   36.0680    1.6190 N.pl3 992  SAM992     -0.1439
     19  C8        44.6950   35.1530    0.6080 C.3   992  SAM992      0.3377
     20  N7        43.5030   35.2640    0.0400 N.2   992  SAM992     -0.2095
     21  C5        42.8270   36.2750    0.6840 C.2   992  SAM992      0.2526
     22  C6        41.5210   36.7740    0.5640 C.2   992  SAM992      0.4393
     23  N6        40.6480   36.3040   -0.3280 N.pl3 992  SAM992      0.2180
     24  N1        41.1630   37.8140    1.3320 N.2   992  SAM992      0.0021
     25  C2        42.0070   38.3300    2.2740 C.3   992  SAM992      0.5254
     26  N3        43.2330   37.7970    2.4960 N.2   992  SAM992     -0.0055
     27  C4        43.6350   36.7800    1.6700 C.2   992  SAM992      0.3518
@<TRIPOS>BOND
     1     1     2    1
     2    23    22    1
     3    20    19    1
     4    20    21    2
     5     7     6    1
     6     7     8    1
     7    22    21    1
     8    22    24    2
     9     2     6    1
    10     2     3    1
    11    19    18    1
    12    21    27    1
    13     9     8    1
    14    24    25    1
    15    10     8    1
    16    10    11    1
    17    18    27    1
    18    18    17    1
    19    27    26    2
    20     4     3   ar
    21     3     5   ar
    22    12    11    1
    23    12    17    1
    24    25    26    1
    25    11    13    1
    26    17    15    1
    27    13    15    1
    28    13    14    1
    29    15    16    1
