@<TRIPOS>MOLECULE
3t7x_4SH_A_1.pdb
 23 25 0 0 0
SMALL
GASTEIGER

@<TRIPOS>ATOM
      1  C8        -0.8510    3.5080    9.9480 C.2   2001  4SH2001     0.2624
      2  O2        -0.2000    4.4760   10.3270 O.2   2001  4SH2001    -0.2714
      3  C9        -0.6870    2.1510   10.5630 C.3   2001  4SH2001     0.1607
      4  N4        -1.8510    1.3350   10.5760 N.3   2001  4SH2001    -0.2606
      5  O3        -4.1380   -0.2410   10.9520 O.3   2001  4SH2001    -0.3508
      6  C14       -1.7790   -0.0700   10.5210 C.3   2001  4SH2001     0.1050
      7  C17       -2.9000    1.7740   11.4110 C.3   2001  4SH2001     0.1050
      8  C15       -3.0850   -0.6810   10.1330 C.3   2001  4SH2001     0.1595
      9  C16       -4.2080    1.1590   11.0340 C.3   2001  4SH2001     0.1595
     10  C1        -2.9920    4.9390    7.0570 C.ar  2001  4SH2001     0.0727
     11  O1        -3.4580    3.4790    5.2460 O.2   2001  4SH2001    -0.2683
     12  S1        -1.5340    6.3800    8.5560 S.2   2001  4SH2001    -0.0750
     13  C2        -3.6860    3.7520    6.4360 C.2   2001  4SH2001     0.2663
     14  N3        -1.8200    3.6280    8.8810 N.am  2001  4SH2001    -0.1713
     15  C5        -3.0970    6.4030    6.5570 C.ar  2001  4SH2001    -0.0140
     16  C6        -2.3010    7.2550    7.3650 C.ar  2001  4SH2001     0.0047
     17  C7        -2.1000    4.8920    8.1950 C.ar  2001  4SH2001     0.1066
     18  C10       -3.8980    6.9110    5.4130 C.3   2001  4SH2001     0.0268
     19  C11       -4.1670    8.3680    5.5290 C.3   2001  4SH2001     0.0050
     20  C12       -2.9090    9.1300    5.8100 C.3   2001  4SH2001     0.0055
     21  C13       -2.2400    8.7270    7.0890 C.3   2001  4SH2001     0.0327
     22  N2        -4.5820    2.9280    7.1940 N.am  2001  4SH2001    -0.1997
     23  C3        -5.2380    1.7740    6.5580 C.3   2001  4SH2001     0.1388
@<TRIPOS>BOND
     1    11    13    2
     2    18    19    1
     3    18    15    1
     4    19    20    1
     5    20    21    1
     6    13    10    1
     7    13    22   am
     8    15    10   ar
     9    15    16   ar
    10    23    22    1
    11    10    17   ar
    12    21    16    1
    13    16    12   ar
    14    17    12   ar
    15    17    14    1
    16    14     1   am
    17     1     2    2
    18     1     3    1
    19     8     6    1
    20     8     5    1
    21     6     4    1
    22     3     4    1
    23     4     7    1
    24     5     9    1
    25     9     7    1
