@<TRIPOS>MOLECULE
3t80_CTN_A_1.pdb
 17 18 0 0 0
SMALL
GASTEIGER

@<TRIPOS>ATOM
      1  O5'      -39.6600   19.5760    2.9960 O.3   401  CTN401     -0.2176
      2  C5'      -40.8240   18.7450    3.0680 C.3   401  CTN401      0.2142
      3  C4'      -41.0210   18.2030    4.4730 C.3   401  CTN401      0.1829
      4  O4'      -40.6630   16.8300    4.4860 O.3   401  CTN401     -0.3318
      5  C1'      -39.8530   16.5250    5.6110 C.3   401  CTN401      0.2400
      6  N1       -38.6520   15.8900    5.1200 N.am  401  CTN401     -0.1778
      7  C6       -38.0740   16.3530    4.0220 C.2   401  CTN401      0.0836
      8  C5       -36.9510   15.7090    3.5440 C.2   401  CTN401      0.0687
      9  C4       -36.4770   14.5940    4.2060 C.2   401  CTN401      0.2346
     10  N3       -37.0750   14.1280    5.2990 N.2   401  CTN401     -0.3024
     11  C2       -38.1620   14.7510    5.7680 C.1   401  CTN401      0.2756
     12  O2       -38.7200   14.3140    6.7840 O.2   401  CTN401     -0.1925
     13  N4       -35.3970   13.9580    3.7500 N.pl3 401  CTN401     -0.0921
     14  C2'      -39.5670   17.8000    6.3230 C.3   401  CTN401      0.2319
     15  O2'      -40.3300   17.7640    7.5350 O.3   401  CTN401     -0.2157
     16  C3'      -40.1380   18.8980    5.4840 C.3   401  CTN401      0.2159
     17  O3'      -40.8970   19.7720    6.3260 O.3   401  CTN401     -0.2175
@<TRIPOS>BOND
     1     1     2    1
     2     2     3    1
     3     8     7    2
     4     8     9    1
     5    13     9    1
     6     7     6    1
     7     9    10    2
     8     3     4    1
     9     3    16    1
    10     4     5    1
    11     6     5    1
    12     6    11   am
    13    10    11    2
    14    16    14    1
    15    16    17    1
    16     5    14    1
    17    11    12    2
    18    14    15    1
