@<TRIPOS>MOLECULE
3t82_SG4_A_1.pdb
 22 22 0 0 0
SMALL
GASTEIGER

@<TRIPOS>ATOM
      1  C1        17.1480    2.3090   11.7260 C.3   300  SG4300      0.3035
      2  O1        18.4300    1.9400   11.4020 O.3   300  SG4300     -0.1869
      3  C2        16.5330    3.4750   10.9130 C.3   300  SG4300      0.2541
      4  O2        16.4290    3.3320    9.5500 O.3   300  SG4300     -0.2135
      5  C3        16.8610    4.8610   11.4680 C.3   300  SG4300      0.2462
      6  O3        16.1600    5.9150   10.8620 O.3   300  SG4300     -0.4455
      7  C4        17.0120    4.9480   12.9860 C.3   300  SG4300      0.2407
      8  O4        17.5530    6.1170   13.5280 O.3   300  SG4300     -0.4457
      9  C5        17.4140    3.6530   13.7080 C.3   300  SG4300      0.1934
     10  O5        16.8020    2.4610   13.1430 O.3   300  SG4300     -0.3225
     11  C6        17.3250    3.7730   15.2070 C.3   300  SG4300      0.2072
     12  O6        16.0160    4.0260   15.6390 O.3   300  SG4300     -0.2246
     13  OAB       16.1620    3.6880   17.9910 O.3   300  SG4300     -0.0529
     14  NAH       15.7670    1.7370   16.5650 N.3   300  SG4300      0.0391
     15  SAI       15.4650    3.2520   16.7870 S.3   300  SG4300      0.0828
     16  OAQ       14.0320    3.5770   16.8710 O.3   300  SG4300     -0.0529
     17  OAW       15.6090    7.1130   13.8150 O.2   300  SG4300     -0.2501
     18  CAX       16.8720    7.1330   13.8620 C.2   300  SG4300      0.3176
     19  CAY       16.7280    6.8170   10.1520 C.2   300  SG4300      0.3176
     20  OAZ       17.9620    6.7480    9.9070 O.2   300  SG4300     -0.2501
     21  CBA       17.5920    8.3480   14.3520 C.3   300  SG4300      0.1212
     22  CBB       15.8970    7.9610    9.6240 C.3   300  SG4300      0.1212
@<TRIPOS>BOND
     1     4     3    1
     2    22    19    1
     3    20    19    2
     4    19     6    1
     5     6     5    1
     6     3     5    1
     7     3     1    1
     8     2     1    1
     9     5     7    1
    10     1    10    1
    11     7     8    1
    12     7     9    1
    13    10     9    1
    14     8    18    1
    15     9    11    1
    16    17    18    2
    17    18    21    1
    18    11    12    1
    19    12    15    1
    20    14    15    1
    21    15    16    1
    22    15    13    1
