@<TRIPOS>MOLECULE
3t83_SG5_A_1.pdb
 28 28 0 0 0
SMALL
GASTEIGER

@<TRIPOS>ATOM
      1  C1        17.2500    0.1640   12.0210 C.2   300  SG5300      0.3617
      2  O5        16.9470    0.2990   13.3080 O.3   300  SG5300     -0.4431
      3  C2        16.5780    1.1660   11.2220 C.3   300  SG5300      0.3094
      4  C3        17.0280    2.6100   11.5970 C.3   300  SG5300      0.2629
      5  C4        17.2010    2.7990   13.2620 C.3   300  SG5300      0.2549
      6  C5        17.6150    1.3570   13.9260 C.3   300  SG5300      0.2442
      7  O1A       18.5050   -0.2200   11.6140 O.2   300  SG5300     -0.2459
      8  O2A       16.6380    0.9710    9.8500 O.3   300  SG5300     -0.4366
      9  C2B       15.6410    1.1640    9.0760 C.2   300  SG5300      0.3175
     10  O2C       14.6960    1.9050    9.4540 O.2   300  SG5300     -0.2501
     11  C2D       15.8760    0.9360    7.6080 C.3   300  SG5300      0.1096
     12  C2E       15.9440    2.1330    6.7210 C.3   300  SG5300      0.0122
     13  O3A       16.3310    3.6600   10.9970 O.3   300  SG5300     -0.4439
     14  C3B       16.8990    4.5000   10.2080 C.2   300  SG5300      0.3171
     15  O3C       18.0100    4.2240    9.7000 O.2   300  SG5300     -0.2501
     16  C3D       16.0330    5.5950    9.6370 C.3   300  SG5300      0.1096
     17  C3E       16.4810    6.2490    8.3450 C.3   300  SG5300      0.0122
     18  O4A       17.9540    3.9120   13.6600 O.3   300  SG5300     -0.4444
     19  C4B       17.3890    5.0340   13.9370 C.2   300  SG5300      0.3171
     20  O4C       16.1500    5.1520   13.8350 O.2   300  SG5300     -0.2501
     21  C4D       18.2450    6.2150   14.3090 C.3   300  SG5300      0.1096
     22  C4E       19.3530    6.5700   13.3590 C.3   300  SG5300      0.0122
     23  C5A       17.4650    1.4870   15.4260 C.3   300  SG5300      0.2212
     24  O5B       16.1520    1.8700   15.7610 O.3   300  SG5300     -0.2233
     25  S5C       15.5310    1.1290   16.8980 S.3   300  SG5300      0.0829
     26  O5D       14.1040    1.4670   16.9110 O.3   300  SG5300     -0.0529
     27  O5E       16.2480    1.5170   18.1050 O.3   300  SG5300     -0.0529
     28  N5F       15.8200   -0.3960   16.7090 N.3   300  SG5300      0.0391
@<TRIPOS>BOND
     1    12    11    1
     2    11     9    1
     3    17    16    1
     4     9    10    2
     5     9     8    1
     6    16    14    1
     7    15    14    2
     8     8     3    1
     9    14    13    1
    10    13     4    1
    11     3     4    1
    12     3     1    1
    13     4     5    1
    14     7     1    2
    15     1     2    1
    16     5    18    1
    17     5     6    1
    18     2     6    1
    19    22    21    1
    20    18    19    1
    21    20    19    2
    22     6    23    1
    23    19    21    1
    24    23    24    1
    25    24    25    1
    26    28    25    1
    27    25    26    1
    28    25    27    1
