@<TRIPOS>MOLECULE
3t83_MG5_A_1.pdb
 28 28 0 0 0
SMALL
GASTEIGER

@<TRIPOS>ATOM
      1  O5        16.9470    0.2990   13.3080 O.3   301  MG5301     -0.4431
      2  C1        17.2500    0.1640   12.0210 C.2   301  MG5301      0.3617
      3  C2        16.5780    1.1660   11.2220 C.3   301  MG5301      0.3094
      4  O2A       16.6380    0.9710    9.8500 O.3   301  MG5301     -0.4366
      5  C2B       15.6410    1.1640    9.0760 C.2   301  MG5301      0.3175
      6  O2C       14.6960    1.9050    9.4540 O.2   301  MG5301     -0.2501
      7  C2D       15.8760    0.9360    7.6080 C.3   301  MG5301      0.1096
      8  C2E       15.9440    2.1330    6.7210 C.3   301  MG5301      0.0122
      9  C3        17.0280    2.6100   11.5970 C.3   301  MG5301      0.2629
     10  O3A       16.3310    3.6600   10.9970 O.3   301  MG5301     -0.4439
     11  C3B       16.8990    4.5000   10.2080 C.2   301  MG5301      0.3171
     12  O3C       18.0100    4.2240    9.7000 O.2   301  MG5301     -0.2501
     13  C3D       16.0330    5.5950    9.6370 C.3   301  MG5301      0.1096
     14  C3E       16.4810    6.2490    8.3450 C.3   301  MG5301      0.0122
     15  C4        17.2010    2.7990   13.2620 C.3   301  MG5301      0.2549
     16  O4A       17.9540    3.9120   13.6600 O.3   301  MG5301     -0.4444
     17  C4B       17.3890    5.0340   13.9370 C.2   301  MG5301      0.3171
     18  O4C       16.1500    5.1520   13.8350 O.2   301  MG5301     -0.2501
     19  C4D       18.2450    6.2150   14.3090 C.3   301  MG5301      0.1096
     20  C4E       19.3530    6.5700   13.3590 C.3   301  MG5301      0.0122
     21  C5        17.6150    1.3570   13.9260 C.3   301  MG5301      0.2442
     22  C5A       17.4650    1.4870   15.4260 C.3   301  MG5301      0.2212
     23  O5B       16.1520    1.8700   15.7610 O.3   301  MG5301     -0.2233
     24  S5C       15.5310    1.1290   16.8980 S.3   301  MG5301      0.0829
     25  O5D       14.1040    1.4670   16.9110 O.3   301  MG5301     -0.0529
     26  O5E       16.2480    1.5170   18.1050 O.3   301  MG5301     -0.0529
     27  N5F       15.8200   -0.3960   16.7090 N.3   301  MG5301      0.0391
     28  O1A       17.3620   -1.1060   11.4920 O.2   301  MG5301     -0.2459
@<TRIPOS>BOND
     1     8     7    1
     2     7     5    1
     3    14    13    1
     4     5     6    2
     5     5     4    1
     6    13    11    1
     7    12    11    2
     8     4     3    1
     9    11    10    1
    10    10     9    1
    11     3     9    1
    12     3     2    1
    13    28     2    2
    14     9    15    1
    15     2     1    1
    16    15    16    1
    17    15    21    1
    18     1    21    1
    19    20    19    1
    20    16    17    1
    21    18    17    2
    22    21    22    1
    23    17    19    1
    24    22    23    1
    25    23    24    1
    26    27    24    1
    27    24    25    1
    28    24    26    1
