@<TRIPOS>MOLECULE
3t84_SG6_A_1.pdb
 19 19 0 0 0
SMALL
GASTEIGER

@<TRIPOS>ATOM
      1  C1        16.8280   -0.9160   11.7370 C.3   300  SG6300      0.3024
      2  O5        16.7780   -0.7360   13.1360 O.3   300  SG6300     -0.3225
      3  C2        16.3060    0.2350   11.0090 C.3   300  SG6300      0.2445
      4  C3        16.9720    1.4900   11.2790 C.3   300  SG6300      0.2295
      5  C4        17.0290    1.7470   12.7340 C.3   300  SG6300      0.2311
      6  C5        17.3890    0.5030   13.5480 C.3   300  SG6300      0.1923
      7  O1A       18.1020   -1.2750   11.2620 O.3   300  SG6300     -0.1869
      8  O2A       16.2090   -0.0490    9.6460 O.3   300  SG6300     -0.2147
      9  O3A       16.5180    2.5410   10.4690 O.3   300  SG6300     -0.2162
     10  O4A       15.8980    2.4350   13.2230 O.3   300  SG6300     -0.4468
     11  C4B       14.8500    4.0770   14.6020 C.3   300  SG6300      0.1212
     12  C4C       16.0510    3.4480   13.9750 C.2   300  SG6300      0.3176
     13  O4D       17.1990    3.8120   14.3640 O.2   300  SG6300     -0.2501
     14  C5A       17.4320    0.6120   15.0700 C.3   300  SG6300      0.2072
     15  O5B       16.2230    0.9770   15.6230 O.3   300  SG6300     -0.2246
     16  S5C       15.4380    0.0960   16.5130 S.3   300  SG6300      0.0828
     17  O5D       14.0740    0.4180   16.9500 O.3   300  SG6300     -0.0529
     18  O5E       16.0570    0.6770   17.7030 O.3   300  SG6300     -0.0529
     19  N5F       15.8140   -1.4290   16.4490 N.3   300  SG6300      0.0391
@<TRIPOS>BOND
     1     8     3    1
     2     9     4    1
     3     3     4    1
     4     3     1    1
     5     7     1    1
     6     4     5    1
     7     1     2    1
     8     5    10    1
     9     5     6    1
    10     2     6    1
    11    10    12    1
    12     6    14    1
    13    12    13    2
    14    12    11    1
    15    14    15    1
    16    15    16    1
    17    19    16    1
    18    16    17    1
    19    16    18    1
