@<TRIPOS>MOLECULE
3t85_SG7_A_1.pdb
 22 22 0 0 0
SMALL
GASTEIGER

@<TRIPOS>ATOM
      1  C1        16.9100    1.9370   11.6300 C.3   300  SG7300      0.3035
      2  O5        16.8830    2.0640   13.0700 O.3   300  SG7300     -0.3225
      3  C2        16.5680    3.1850   10.8550 C.3   300  SG7300      0.2541
      4  C3        17.0400    4.4280   11.4420 C.3   300  SG7300      0.2462
      5  C4        16.8440    4.5030   12.8700 C.3   300  SG7300      0.2407
      6  C5        17.4380    3.2840   13.5290 C.3   300  SG7300      0.1934
      7  O1A       18.1250    1.4390   11.2350 O.3   300  SG7300     -0.1869
      8  O2A       15.1630    3.2430   10.7540 O.3   300  SG7300     -0.2135
      9  O3A       16.3210    5.5110   10.8810 O.3   300  SG7300     -0.4455
     10  C3B       16.9150    6.3120   10.0940 C.2   300  SG7300      0.3176
     11  C3C       16.2040    7.5370    9.5780 C.3   300  SG7300      0.1212
     12  O3D       18.1010    6.0840    9.7800 O.2   300  SG7300     -0.2501
     13  O4A       17.5150    5.6200   13.3900 O.3   300  SG7300     -0.4457
     14  C4B       17.8020    7.8540   14.2910 C.3   300  SG7300      0.1212
     15  C4C       16.9330    6.6940   13.8560 C.2   300  SG7300      0.3176
     16  O4D       15.6940    6.9050   13.6370 O.2   300  SG7300     -0.2501
     17  C5A       17.4160    2.9590   15.0090 C.3   300  SG7300      0.2072
     18  O5B       16.3320    3.5160   15.6880 O.3   300  SG7300     -0.2246
     19  S5C       15.4200    2.6410   16.4770 S.3   300  SG7300      0.0828
     20  O5D       14.0320    3.0260   16.7900 O.3   300  SG7300     -0.0529
     21  O5E       15.9420    3.1630   17.7480 O.3   300  SG7300     -0.0529
     22  N5F       15.8140    1.1460   16.6140 N.3   300  SG7300      0.0391
@<TRIPOS>BOND
     1    11    10    1
     2    12    10    2
     3    10     9    1
     4     8     3    1
     5     3     4    1
     6     3     1    1
     7     9     4    1
     8     7     1    1
     9     4     5    1
    10     1     2    1
    11     5    13    1
    12     5     6    1
    13     2     6    1
    14    13    15    1
    15     6    17    1
    16    16    15    2
    17    15    14    1
    18    17    18    1
    19    18    19    1
    20    19    22    1
    21    19    20    1
    22    19    21    1
