@<TRIPOS>MOLECULE
3t87_UBZ_A_1.pdb
 30 30 0 0 0
SMALL
GASTEIGER

@<TRIPOS>ATOM
      1  C3        15.2050   40.6830  -12.6390 C.ar  317  UBZ317     -0.0007
      2  C2        16.4470   40.2380  -13.0810 C.ar  317  UBZ317     -0.0002
      3  C1        17.5890   40.4010  -12.3030 C.ar  317  UBZ317     -0.0000
      4  C6        17.4710   41.0120  -11.0590 C.ar  317  UBZ317     -0.0002
      5  C5        16.2320   41.4390  -10.6070 C.ar  317  UBZ317     -0.0007
      6  C4        15.0920   41.2740  -11.3940 C.ar  317  UBZ317      0.0213
      7  C7        13.7350   41.7520  -10.9340 C.3   317  UBZ317      0.2368
      8  O8        12.8720   40.8870  -10.2030 O.3   317  UBZ317     -0.4285
      9  C9        12.9370   40.9870   -8.7860 C.2   317  UBZ317      0.4220
     10  O21       13.7490   41.7520   -8.2560 O.2   317  UBZ317     -0.2245
     11  N10       12.1190   40.1830   -8.1370 N.am  317  UBZ317     -0.1565
     12  C11       12.0350   40.1750   -6.7060 C.3   317  UBZ317      0.2238
     13  P12       11.5380   38.5960   -6.0270 P.3   317  UBZ317      0.3472
     14  O22       12.6200   37.5940   -6.2550 O.3   317  UBZ317     -0.1484
     15  O23       10.1880   38.1550   -6.5800 O.2   317  UBZ317     -0.2668
     16  N13       11.3240   38.9610   -4.4160 N.3   317  UBZ317     -0.1352
     17  C14       10.1480   38.5150   -3.6680 C.3   317  UBZ317      0.1594
     18  C15        8.9570   39.3990   -3.8990 C.2   317  UBZ317      0.2582
     19  O24        7.8180   38.9140   -3.8880 O.2   317  UBZ317     -0.2718
     20  C20       10.5130   38.5730   -2.1860 C.3   317  UBZ317      0.0273
     21  C21        9.4240   38.0420   -1.2450 C.3   317  UBZ317      0.0019
     22  C22        9.7360   38.4370    0.1820 C.3   317  UBZ317      0.0001
     23  C23        9.2400   36.5300   -1.3670 C.3   317  UBZ317      0.0001
     24  N16        9.2000   40.7070   -4.0720 N.am  317  UBZ317     -0.1944
     25  C17        8.0610   41.6080   -4.2940 C.3   317  UBZ317      0.1978
     26  C18        8.3270   42.5940   -5.3860 C.2   317  UBZ317      0.3842
     27  O32        7.3590   43.2540   -5.7740 O.co2 317  UBZ317     -0.2437
     28  C25        7.5500   42.1660   -2.9870 C.3   317  UBZ317      0.0333
     29  C26        8.6550   42.9150   -2.3660 C.3   317  UBZ317      0.0024
     30  O19        9.4730   42.6520   -5.9020 O.co2 317  UBZ317     -0.2437
@<TRIPOS>BOND
     1     2     1   ar
     2     2     3   ar
     3     1     6   ar
     4     3     4   ar
     5     6     7    1
     6     6     5   ar
     7     4     5   ar
     8     7     8    1
     9     8     9    1
    10     9    10    2
    11     9    11   am
    12    11    12    1
    13    12    13    1
    14    15    13    2
    15    14    13    1
    16    13    16    1
    17    30    26   ar
    18    27    26   ar
    19    26    25    1
    20    16    17    1
    21    25    24    1
    22    25    28    1
    23    24    18   am
    24    18    19    2
    25    18    17    1
    26    17    20    1
    27    28    29    1
    28    20    21    1
    29    23    21    1
    30    21    22    1
