@<TRIPOS>MOLECULE
3t8a_S0N_B_1.pdb
 40 42 0 0 0
SMALL
GASTEIGER

@<TRIPOS>ATOM
      1  C01       17.8700   52.7420  -62.4940 C.3   500  S0N500      0.0056
      2  C02       16.4360   53.2590  -62.3110 C.3   500  S0N500      0.0646
      3  C03       15.7330   52.4410  -61.2070 C.3   500  S0N500      0.0056
      4  C04       15.6130   53.0440  -63.6420 C.3   500  S0N500      0.1519
      5  O05       15.8110   54.2060  -64.4370 O.3   500  S0N500     -0.3138
      6  P06       14.9280   54.5230  -65.7890 P.3   500  S0N500      0.2188
      7  O07       14.3740   53.2140  -66.4180 O.3   500  S0N500     -0.4371
      8  O08       15.8350   55.2510  -66.8120 O.2   500  S0N500     -0.5170
      9  O09       13.6770   55.4580  -65.4010 O.3   500  S0N500     -0.2703
     10  P10       13.8840   56.9280  -64.8150 P.3   500  S0N500      0.2189
     11  O11       13.6160   58.0050  -65.9420 O.2   500  S0N500     -0.5170
     12  O12       15.3080   57.0820  -64.1970 O.3   500  S0N500     -0.4371
     13  O13       12.8140   57.1070  -63.6780 O.3   500  S0N500     -0.3112
     14  C14       11.4120   57.2390  -63.9750 C.3   500  S0N500      0.1812
     15  C15       10.7240   58.4310  -63.2270 C.3   500  S0N500      0.1795
     16  O16       10.7540   58.1450  -61.7730 O.3   500  S0N500     -0.3136
     17  C17       11.7640   59.0300  -61.1550 C.3   500  S0N500      0.3185
     18  N18       12.4220   58.1290  -60.1700 N.pl3 500  S0N500     -0.1439
     19  C19       12.9120   56.8920  -60.4240 C.3   500  S0N500      0.3377
     20  N20       13.4790   56.4100  -59.2410 N.2   500  S0N500     -0.2095
     21  C21       13.3320   57.3840  -58.2620 C.2   500  S0N500      0.2526
     22  C22       13.7170   57.4220  -56.8900 C.2   500  S0N500      0.4393
     23  N23       14.3980   56.2820  -56.2760 N.pl3 500  S0N500      0.2180
     24  N24       13.4380   58.5280  -56.1470 N.2   500  S0N500      0.0021
     25  C25       12.7930   59.5900  -56.7020 C.3   500  S0N500      0.5254
     26  N26       12.4060   59.5480  -58.0710 N.2   500  S0N500     -0.0055
     27  C27       12.6850   58.4430  -58.8140 C.2   500  S0N500      0.3518
     28  C28       12.6180   59.6320  -62.2670 C.3   500  S0N500      0.2543
     29  O29       13.0600   60.9950  -61.9180 O.3   500  S0N500     -0.2131
     30  C30       11.5910   59.6960  -63.3990 C.3   500  S0N500      0.1928
     31  O31       10.8130   60.9070  -63.2480 O.3   500  S0N500     -0.2673
     32  P32       10.7930   61.9730  -64.4410 P.3   500  S0N500      0.5327
     33  O33       11.6500   63.2100  -64.0150 O.3   500  S0N500     -0.1145
     34  O34        9.3080   62.3600  -64.6100 O.3   500  S0N500     -0.1145
     35  O35       11.3460   61.3250  -65.7800 O.2   500  S0N500     -0.2224
     36  C36       16.2880   54.7790  -61.8750 C.3   500  S0N500      0.2329
     37  O37       14.9040   55.0240  -61.8750 O.3   500  S0N500     -0.2131
     38  C38       16.8830   54.9920  -60.4720 C.2   500  S0N500      0.2912
     39  O39       17.8180   54.3570  -60.1230 O.2   500  S0N500     -0.2689
     40  N40       16.2990   55.9810  -59.5550 N.am  500  S0N500     -0.0856
@<TRIPOS>BOND
     1     8     6    2
     2     7     6    1
     3    11    10    2
     4     6     9    1
     5     6     5    1
     6    35    32    2
     7     9    10    1
     8    10    12    1
     9    10    13    1
    10    34    32    1
    11    32    33    1
    12    32    31    1
    13     5     4    1
    14    14    13    1
    15    14    15    1
    16     4     2    1
    17    30    31    1
    18    30    15    1
    19    30    28    1
    20    15    16    1
    21     1     2    1
    22     2    36    1
    23     2     3    1
    24    28    29    1
    25    28    17    1
    26    37    36    1
    27    36    38    1
    28    16    17    1
    29    17    18    1
    30    38    39    2
    31    38    40   am
    32    19    18    1
    33    19    20    1
    34    18    27    1
    35    20    21    2
    36    27    21    1
    37    27    26    2
    38    21    22    1
    39    26    25    1
    40    22    23    1
    41    22    24    2
    42    25    24    1
