@<TRIPOS>MOLECULE
3t8c_UBW_A_1.pdb
 31 31 0 0 0
SMALL
GASTEIGER

@<TRIPOS>ATOM
      1  C3        16.1810   41.4720  -10.6380 C.ar  317  UBW317     -0.0007
      2  C2        17.4360   41.0240  -11.0360 C.ar  317  UBW317     -0.0002
      3  C1        17.5760   40.3710  -12.2550 C.ar  317  UBW317     -0.0000
      4  C6        16.4690   40.1660  -13.0710 C.ar  317  UBW317     -0.0002
      5  C5        15.2160   40.6210  -12.6740 C.ar  317  UBW317     -0.0007
      6  C4        15.0750   41.2690  -11.4540 C.ar  317  UBW317      0.0213
      7  C7        13.7200   41.7640  -11.0120 C.3   317  UBW317      0.2368
      8  O8        13.0810   40.7260  -10.2600 O.3   317  UBW317     -0.4285
      9  C9        12.9750   40.8960   -8.8320 C.2   317  UBW317      0.4220
     10  O21       13.6570   41.7510   -8.2780 O.2   317  UBW317     -0.2245
     11  N10       12.1900   40.0940   -8.1500 N.am  317  UBW317     -0.1565
     12  C11       12.0100   40.1950   -6.7220 C.3   317  UBW317      0.2238
     13  P12       11.4920   38.6030   -6.0470 P.3   317  UBW317      0.3472
     14  O22       12.5910   37.6250   -6.2450 O.3   317  UBW317     -0.1484
     15  O23       10.1620   38.1410   -6.6140 O.2   317  UBW317     -0.2668
     16  N13       11.2860   38.9530   -4.4190 N.3   317  UBW317     -0.1352
     17  C14       10.1200   38.4780   -3.6770 C.3   317  UBW317      0.1594
     18  C15        8.9050   39.3280   -3.9640 C.2   317  UBW317      0.2582
     19  O28        7.7860   38.8210   -3.9920 O.2   317  UBW317     -0.2718
     20  C24       10.5080   38.5960   -2.2070 C.3   317  UBW317      0.0273
     21  C25        9.4040   38.1010   -1.2730 C.3   317  UBW317      0.0019
     22  C26        9.2080   36.5910   -1.3610 C.3   317  UBW317      0.0001
     23  C27        9.7130   38.4990    0.1680 C.3   317  UBW317      0.0001
     24  N16        9.1020   40.6340   -4.1560 N.am  317  UBW317     -0.1944
     25  C17        7.9530   41.4950   -4.4500 C.3   317  UBW317      0.1978
     26  C29        7.4880   42.1060   -3.1340 C.3   317  UBW317      0.0333
     27  C30        8.5480   42.9910   -2.5030 C.3   317  UBW317      0.0023
     28  C31        7.9710   43.7150   -1.3020 C.3   317  UBW317      0.0001
     29  C18        8.2650   42.5630   -5.4680 C.2   317  UBW317      0.3842
     30  O19        7.3200   43.2850   -5.8710 O.co2 317  UBW317     -0.2437
     31  O20        9.4310   42.6700   -5.9130 O.co2 317  UBW317     -0.2437
@<TRIPOS>BOND
     1     4     5   ar
     2     4     3   ar
     3     5     6   ar
     4     3     2   ar
     5     6     7    1
     6     6     1   ar
     7     2     1   ar
     8     7     8    1
     9     8     9    1
    10     9    10    2
    11     9    11   am
    12    11    12    1
    13    12    13    1
    14    15    13    2
    15    14    13    1
    16    13    16    1
    17    31    29   ar
    18    30    29   ar
    19    29    25    1
    20    25    24    1
    21    25    26    1
    22    16    17    1
    23    24    18   am
    24    19    18    2
    25    18    17    1
    26    17    20    1
    27    26    27    1
    28    27    28    1
    29    20    21    1
    30    22    21    1
    31    21    23    1
