@<TRIPOS>MOLECULE
3t8d_UBV_A_1.pdb
 32 32 0 0 0
SMALL
GASTEIGER

@<TRIPOS>ATOM
      1  C3        15.3100  -40.6690   12.7110 C.ar  317  UBV317     -0.0007
      2  C2        16.5830  -40.2690   13.1060 C.ar  317  UBV317     -0.0002
      3  C1        17.6730  -40.4920   12.2710 C.ar  317  UBV317     -0.0000
      4  C6        17.4880  -41.1110   11.0380 C.ar  317  UBV317     -0.0002
      5  C5        16.2160  -41.5050   10.6400 C.ar  317  UBV317     -0.0007
      6  C4        15.1300  -41.2880   11.4830 C.ar  317  UBV317      0.0213
      7  C7        13.7510  -41.7110   11.0450 C.3   317  UBV317      0.2368
      8  O8        13.1790  -40.6990   10.2230 O.3   317  UBV317     -0.4285
      9  C9        13.0220  -40.9460    8.8100 C.2   317  UBV317      0.4220
     10  O21       13.6580  -41.8540    8.2900 O.2   317  UBV317     -0.2245
     11  N10       12.2230  -40.1550    8.1200 N.am  317  UBV317     -0.1565
     12  C11       11.9740  -40.2890    6.7050 C.3   317  UBV317      0.2238
     13  P12       11.4940  -38.7060    5.9950 P.3   317  UBV317      0.3472
     14  O22       10.1630  -38.2690    6.5280 O.3   317  UBV317     -0.1484
     15  O23       12.5970  -37.7020    6.1660 O.2   317  UBV317     -0.2668
     16  N13       11.2610  -39.1400    4.3410 N.3   317  UBV317     -0.1352
     17  C14       10.1160  -38.6570    3.5930 C.3   317  UBV317      0.1594
     18  C15        8.8650  -39.4590    3.8590 C.2   317  UBV317      0.2582
     19  O28        7.7690  -38.9120    3.9070 O.2   317  UBV317     -0.2718
     20  C24       10.5080  -38.7460    2.1300 C.3   317  UBV317      0.0273
     21  C25        9.4660  -38.1910    1.1680 C.3   317  UBV317      0.0019
     22  C26        9.8340  -38.5580   -0.2710 C.3   317  UBV317      0.0001
     23  C27        9.2920  -36.6870    1.3480 C.3   317  UBV317      0.0001
     24  N16        9.0370  -40.7710    4.0190 N.am  317  UBV317     -0.1944
     25  C17        7.9240  -41.6750    4.2960 C.3   317  UBV317      0.1977
     26  C18        8.2890  -42.6580    5.3770 C.2   317  UBV317      0.3842
     27  O19        7.3670  -43.3370    5.8720 O.co2 317  UBV317     -0.2437
     28  C29        7.4930  -42.4050    3.0110 C.3   317  UBV317      0.0311
     29  C30        8.6110  -43.2260    2.3720 C.3   317  UBV317      0.0023
     30  C          6.8580  -41.4490    2.0040 C.3   317  UBV317      0.0023
     31  C31        8.0810  -44.1220    1.2690 C.3   317  UBV317      0.0001
     32  O20        9.4830  -42.7580    5.7580 O.co2 317  UBV317     -0.2437
@<TRIPOS>BOND
     1    22    21    1
     2    21    23    1
     3    21    20    1
     4    31    29    1
     5    30    28    1
     6    20    17    1
     7    29    28    1
     8    28    25    1
     9    17    18    1
    10    17    16    1
    11    18    19    2
    12    18    24   am
    13    24    25    1
    14    25    26    1
    15    16    13    1
    16    26    32   ar
    17    26    27   ar
    18    13    15    2
    19    13    14    1
    20    13    12    1
    21    12    11    1
    22    11     9   am
    23    10     9    2
    24     9     8    1
    25     8     7    1
    26     5     4   ar
    27     5     6   ar
    28     4     3   ar
    29     7     6    1
    30     6     1   ar
    31     3     2   ar
    32     1     2   ar
