@<TRIPOS>MOLECULE
3t8f_UBU_A_1.pdb
 26 26 0 0 0
SMALL
GASTEIGER

@<TRIPOS>ATOM
      1  C23       16.1130   41.3050  -10.6200 C.ar  317  UBU317     -0.0007
      2  C22       17.3540   40.8910  -11.0960 C.ar  317  UBU317     -0.0002
      3  C21       17.4570   40.3350  -12.3680 C.ar  317  UBU317     -0.0000
      4  C20       16.3250   40.2050  -13.1610 C.ar  317  UBU317     -0.0002
      5  C19       15.0830   40.6260  -12.6900 C.ar  317  UBU317     -0.0007
      6  C1        14.9790   41.1700  -11.4150 C.ar  317  UBU317      0.0213
      7  C2        13.6390   41.6290  -10.8870 C.3   317  UBU317      0.2368
      8  O3        13.0980   40.5860  -10.0830 O.3   317  UBU317     -0.4285
      9  C4        12.9650   40.7760   -8.6620 C.2   317  UBU317      0.4220
     10  O26       13.6530   41.6210   -8.1080 O.2   317  UBU317     -0.2245
     11  N5        12.1100   39.9820   -8.0360 N.am  317  UBU317     -0.1565
     12  C6        11.9920   40.0390   -6.5950 C.3   317  UBU317      0.2238
     13  P7        11.4770   38.4460   -5.9170 P.3   317  UBU317      0.3472
     14  O24       12.6570   37.4160   -6.1550 O.3   317  UBU317     -0.1484
     15  O8        10.1450   38.0310   -6.5100 O.2   317  UBU317     -0.2668
     16  N9        11.2570   38.7380   -4.2830 N.3   317  UBU317     -0.1352
     17  C10       10.0600   38.2960   -3.5730 C.3   317  UBU317      0.1594
     18  C11        8.8890   39.2190   -3.8070 C.2   317  UBU317      0.2577
     19  N12        9.1610   40.5190   -3.9390 N.am  317  UBU317     -0.2043
     20  C13        8.1190   41.5310   -4.0270 C.3   317  UBU317      0.1152
     21  C14        8.1930   42.5000   -2.8660 C.3   317  UBU317      0.0252
     22  C15       10.4450   38.3400   -2.0990 C.3   317  UBU317      0.0273
     23  C16        9.3170   37.8620   -1.1840 C.3   317  UBU317      0.0019
     24  C17        9.5890   38.2800    0.2590 C.3   317  UBU317      0.0001
     25  C18        9.1390   36.3540   -1.2580 C.3   317  UBU317      0.0001
     26  O25        7.7520   38.7630   -3.8570 O.2   317  UBU317     -0.2718
@<TRIPOS>BOND
     1     4     5   ar
     2     4     3   ar
     3     5     6   ar
     4     3     2   ar
     5     6     7    1
     6     6     1   ar
     7     2     1   ar
     8     7     8    1
     9     8     9    1
    10     9    10    2
    11     9    11   am
    12    11    12    1
    13    12    13    1
    14    15    13    2
    15    14    13    1
    16    13    16    1
    17    16    17    1
    18    20    19    1
    19    20    21    1
    20    19    18   am
    21    26    18    2
    22    18    17    1
    23    17    22    1
    24    22    23    1
    25    25    23    1
    26    23    24    1
