@<TRIPOS>MOLECULE
3t8g_UBT_A_1.pdb
 28 28 0 0 0
SMALL
GASTEIGER

@<TRIPOS>ATOM
      1  C3        15.1810   40.7390  -12.6920 C.ar  317  UBT317     -0.0007
      2  C2        16.4220   40.2820  -13.1220 C.ar  317  UBT317     -0.0002
      3  C1        17.5470   40.4400  -12.3200 C.ar  317  UBT317     -0.0000
      4  C6        17.4320   41.0580  -11.0770 C.ar  317  UBT317     -0.0002
      5  C5        16.1900   41.5080  -10.6450 C.ar  317  UBT317     -0.0007
      6  C4        15.0660   41.3470  -11.4490 C.ar  317  UBT317      0.0213
      7  C7        13.7250   41.8450  -10.9660 C.3   317  UBT317      0.2368
      8  O8        13.0350   40.7800  -10.3090 O.3   317  UBT317     -0.4285
      9  C9        12.5020   41.0270   -8.9860 C.2   317  UBT317      0.4220
     10  O19       12.0780   42.1420   -8.7620 O.2   317  UBT317     -0.2245
     11  N10       12.4800   40.0620   -8.0720 N.am  317  UBT317     -0.1565
     12  C11       11.9700   40.1960   -6.7150 C.3   317  UBT317      0.2238
     13  P12       11.4980   38.5930   -6.0310 P.3   317  UBT317      0.3472
     14  O20       10.1550   38.1420   -6.5730 O.2   317  UBT317     -0.2668
     15  O21       12.6330   37.6160   -6.2530 O.3   317  UBT317     -0.1484
     16  N13       11.3010   38.9250   -4.4010 N.3   317  UBT317     -0.1352
     17  C14       10.1200   38.4600   -3.6760 C.3   317  UBT317      0.1594
     18  C15        8.9030   39.3170   -3.9130 C.2   317  UBT317      0.2582
     19  O23        7.7920   38.7910   -3.9600 O.2   317  UBT317     -0.2718
     20  C18       10.4920   38.5570   -2.1980 C.3   317  UBT317      0.0273
     21  C20        9.3840   38.0440   -1.2670 C.3   317  UBT317      0.0019
     22  C22        9.1880   36.5360   -1.3690 C.3   317  UBT317      0.0001
     23  C24        9.6600   38.4430    0.1830 C.3   317  UBT317      0.0001
     24  N16        9.0870   40.6320   -4.0660 N.am  317  UBT317     -0.1920
     25  C17        7.9930   41.5760   -4.2670 C.3   317  UBT317      0.2285
     26  C27        8.2640   42.5570   -5.3840 C.2   317  UBT317      0.3865
     27  O28        9.4040   42.6250   -5.8970 O.co2 317  UBT317     -0.2437
     28  O31        7.3010   43.2670   -5.7650 O.co2 317  UBT317     -0.2437
@<TRIPOS>BOND
     1     2     1   ar
     2     2     3   ar
     3     1     6   ar
     4     3     4   ar
     5     6     7    1
     6     6     5   ar
     7     4     5   ar
     8     7     8    1
     9     8     9    1
    10     9    10    2
    11     9    11   am
    12    11    12    1
    13    12    13    1
    14    14    13    2
    15    15    13    1
    16    13    16    1
    17    27    26   ar
    18    28    26   ar
    19    26    25    1
    20    16    17    1
    21    25    24    1
    22    24    18   am
    23    19    18    2
    24    18    17    1
    25    17    20    1
    26    20    21    1
    27    22    21    1
    28    21    23    1
