@<TRIPOS>MOLECULE
3t8h_UBS_A_1.pdb
 31 31 0 0 0
SMALL
GASTEIGER

@<TRIPOS>ATOM
      1  C3        16.1760  -41.5340   10.5590 C.ar  317  UBS317     -0.0007
      2  C2        17.4260  -41.0870   10.9710 C.ar  317  UBS317     -0.0002
      3  C1        17.5740  -40.4820   12.2150 C.ar  317  UBS317     -0.0000
      4  C6        16.4690  -40.3150   13.0420 C.ar  317  UBS317     -0.0002
      5  C5        15.2180  -40.7690   12.6320 C.ar  317  UBS317     -0.0007
      6  C4        15.0750  -41.3720   11.3910 C.ar  317  UBS317      0.0213
      7  C7        13.7250  -41.8630   10.9240 C.3   317  UBS317      0.2368
      8  O8        13.0580  -40.7900   10.2560 O.3   317  UBS317     -0.4285
      9  C9        12.4590  -41.0480    8.9670 C.2   317  UBS317      0.4220
     10  O21       11.9210  -42.1240    8.8290 O.2   317  UBS317     -0.2245
     11  N10       12.4950  -40.1370    7.9980 N.am  317  UBS317     -0.1565
     12  C11       11.9220  -40.2910    6.6680 C.3   317  UBS317      0.2238
     13  P12       11.4600  -38.6890    5.9810 P.3   317  UBS317      0.3472
     14  O22       12.5710  -37.7270    6.1930 O.2   317  UBS317     -0.2668
     15  O23       10.1230  -38.2530    6.5250 O.3   317  UBS317     -0.1484
     16  N13       11.2590  -39.0480    4.3620 N.3   317  UBS317     -0.1352
     17  C14       10.0730  -38.6190    3.6180 C.3   317  UBS317      0.1594
     18  C15        8.8660  -39.5010    3.8230 C.2   317  UBS317      0.2582
     19  O24        7.7420  -39.0070    3.8750 O.2   317  UBS317     -0.2718
     20  C20       10.4890  -38.6640    2.1510 C.3   317  UBS317      0.0273
     21  C21        9.4070  -38.1280    1.2130 C.3   317  UBS317      0.0019
     22  C22        9.2100  -36.6210    1.3500 C.3   317  UBS317      0.0001
     23  C23        9.7380  -38.4920   -0.2330 C.3   317  UBS317      0.0001
     24  N16        9.0770  -40.8010    3.9700 N.am  317  UBS317     -0.1944
     25  C17        7.9310  -41.6670    4.2050 C.3   317  UBS317      0.1977
     26  C18        8.2080  -42.5950    5.3540 C.2   317  UBS317      0.3842
     27  O19        7.2260  -43.1880    5.8210 O.co2 317  UBS317     -0.2437
     28  C25        7.5690  -42.4550    2.9390 C.3   317  UBS317      0.0311
     29  C26        8.7210  -43.3210    2.4510 C.3   317  UBS317      0.0023
     30  C31        7.0480  -41.5550    1.8260 C.3   317  UBS317      0.0023
     31  O32        9.3670  -42.7290    5.8190 O.co2 317  UBS317     -0.2437
@<TRIPOS>BOND
     1    23    21    1
     2    21    22    1
     3    21    20    1
     4    30    28    1
     5    20    17    1
     6    29    28    1
     7    28    25    1
     8    17    18    1
     9    17    16    1
    10    18    19    2
    11    18    24   am
    12    24    25    1
    13    25    26    1
    14    16    13    1
    15    26    31   ar
    16    26    27   ar
    17    13    14    2
    18    13    15    1
    19    13    12    1
    20    12    11    1
    21    11     9   am
    22    10     9    2
    23     9     8    1
    24     8     7    1
    25     1     2   ar
    26     1     6   ar
    27     7     6    1
    28     2     3   ar
    29     6     5   ar
    30     3     4   ar
    31     5     4   ar
