@<TRIPOS>MOLECULE
3t8m_3T8_A_1.pdb
 38 42 0 0 0
SMALL
GASTEIGER

@<TRIPOS>ATOM
      1  C1        13.1760   62.6100   23.1590 C.3     1  3T81        0.1388
      2  N2        14.6110   62.3060   23.0680 N.am    1  3T81       -0.1998
      3  C3        15.5580   63.0380   22.4090 C.2     1  3T81        0.2649
      4  O4        15.3070   64.0690   21.7980 O.2     1  3T81       -0.2684
      5  C5        16.9690   62.5530   22.4320 C.ar    1  3T81        0.0581
      6  C6        17.9700   63.2590   21.7460 C.ar    1  3T81        0.0048
      7  C7        19.2770   62.7980   21.7610 C.ar    1  3T81        0.0037
      8  C8        19.6490   61.6460   22.4670 C.ar    1  3T81        0.0397
      9  C9        18.6430   60.9270   23.1550 C.ar    1  3T81        0.1391
     10  C10       17.3350   61.3880   23.1270 C.ar    1  3T81        0.0415
     11  O11       18.9810   59.8030   23.8290 O.3     1  3T81       -0.4751
     12  C12       19.9900   59.8790   24.8130 C.3     1  3T81        0.2101
     13  C13       21.3500   59.4490   24.2690 C.3     1  3T81        0.0742
     14  C14       21.8700   60.3310   23.1510 C.ar    1  3T81       -0.0117
     15  C15       21.0980   61.2430   22.4160 C.ar    1  3T81        0.0287
     16  S16       22.1520   62.0100   21.2610 S.2     1  3T81       -0.0826
     17  C17       23.6040   61.1500   21.7290 C.ar    1  3T81        0.0830
     18  C18       23.2080   60.3060   22.7490 C.ar    1  3T81        0.0074
     19  C19       24.9670   61.2800   21.1350 C.2     1  3T81        0.2588
     20  O20       25.8170   60.5190   21.5400 O.2     1  3T81       -0.2690
     21  N21       25.3570   62.1690   20.1490 N.am    1  3T81       -0.2522
     22  C22       26.7200   62.1280   19.6690 C.3     1  3T81        0.1204
     23  C23       24.5210   63.1150   19.5100 C.ar    1  3T81        0.0647
     24  C24       24.4320   64.4630   19.8770 C.ar    1  3T81        0.0159
     25  C25       23.5620   65.3120   19.1930 C.ar    1  3T81        0.0058
     26  C26       22.7430   64.8620   18.1260 C.ar    1  3T81        0.0545
     27  C27       22.8470   63.5160   17.7660 C.ar    1  3T81        0.0172
     28  C28       23.7280   62.6870   18.4410 C.ar    1  3T81        0.0715
     29 CL29       23.7950   61.0290   17.9670 Cl      1  3T81       -0.0809
     30  C30       21.8070   65.7890   17.4090 C.2     1  3T81        0.2491
     31  O31       22.0660   66.1760   16.2910 O.2     1  3T81       -0.2699
     32  N32       20.6560   66.2390   17.9830 N.am    1  3T81       -0.2732
     33  C33       19.7400   67.1620   17.2810 C.3     1  3T81        0.1110
     34  C34       19.4450   68.3540   18.2060 C.3     1  3T81        0.0939
     35  N35       18.8180   67.8460   19.4270 N.3     1  3T81       -0.2686
     36  C36       19.7980   67.0270   20.1590 C.3     1  3T81        0.0939
     37  C37       20.2370   65.8180   19.3260 C.3     1  3T81        0.1110
     38  C38       18.3570   68.9560   20.2740 C.3     1  3T81        0.0897
@<TRIPOS>BOND
     1    31    30    2
     2    33    32    1
     3    33    34    1
     4    30    32   am
     5    30    26    1
     6    27    26   ar
     7    27    28   ar
     8    29    28    1
     9    32    37    1
    10    26    25   ar
    11    34    35    1
    12    28    23   ar
    13    25    24   ar
    14    37    36    1
    15    35    36    1
    16    35    38    1
    17    23    24   ar
    18    23    21    1
    19    22    21    1
    20    21    19   am
    21    19    20    2
    22    19    17    1
    23    16    17   ar
    24    16    15   ar
    25    17    18   ar
    26     6     7   ar
    27     6     5   ar
    28     7     8   ar
    29     4     3    2
    30     3     5    1
    31     3     2   am
    32    15     8    1
    33    15    14   ar
    34     5    10   ar
    35     8     9   ar
    36    18    14   ar
    37     2     1    1
    38    10     9   ar
    39    14    13    1
    40     9    11    1
    41    11    12    1
    42    13    12    1
