@<TRIPOS>MOLECULE
3t8n_EDT_D_1.pdb
 20 19 0 0 0
SMALL
GASTEIGER

@<TRIPOS>ATOM
      1  O20      -48.7480  -32.3520  -39.6490 O.co2 135  EDT135     -0.2441
      2  C5       -49.9460  -32.4140  -39.5360 C.2   135  EDT135      0.3809
      3  O19      -50.6180  -31.4730  -38.9390 O.co2 135  EDT135     -0.2441
      4  C4       -50.6130  -33.6010  -40.2560 C.3   135  EDT135      0.1882
      5  N3       -52.0600  -33.4200  -39.9280 N.3   135  EDT135     -0.2524
      6  C2       -52.7520  -32.3710  -40.7160 C.3   135  EDT135      0.1882
      7  C1       -54.3010  -32.1390  -40.4330 C.2   135  EDT135      0.3809
      8  O18      -54.9790  -31.6780  -41.4090 O.co2 135  EDT135     -0.2441
      9  O17      -54.7900  -32.4330  -39.2790 O.co2 135  EDT135     -0.2441
     10  C6       -52.6800  -34.7560  -40.1810 C.3   135  EDT135      0.0905
     11  C7       -52.4500  -35.8970  -39.1380 C.3   135  EDT135      0.0905
     12  N8       -52.6330  -37.3250  -39.4880 N.3   135  EDT135     -0.2524
     13  C9       -51.3830  -37.6810  -40.2630 C.3   135  EDT135      0.1882
     14  C10      -51.6530  -38.9810  -41.0240 C.2   135  EDT135      0.3809
     15  O16      -50.7370  -39.3270  -41.7400 O.co2 135  EDT135     -0.2441
     16  O15      -52.7340  -39.6820  -40.8770 O.co2 135  EDT135     -0.2441
     17  C11      -52.8910  -38.2650  -38.3180 C.3   135  EDT135      0.1882
     18  C12      -54.2500  -37.9900  -37.5650 C.2   135  EDT135      0.3809
     19  O13      -55.2490  -37.4630  -38.1880 O.co2 135  EDT135     -0.2441
     20  O14      -54.3020  -38.2810  -36.3400 O.co2 135  EDT135     -0.2441
@<TRIPOS>BOND
     1    15    14   ar
     2     8     7   ar
     3    14    16   ar
     4    14    13    1
     5     6     7    1
     6     6     5    1
     7     7     9   ar
     8    13    12    1
     9     4     5    1
    10     4     2    1
    11    10     5    1
    12    10    11    1
    13     1     2   ar
    14     2     3   ar
    15    12    11    1
    16    12    17    1
    17    17    18    1
    18    19    18   ar
    19    18    20   ar
