@<TRIPOS>MOLECULE
3t8o_ATP_A_1.pdb
 31 33 0 0 0
SMALL
GASTEIGER

@<TRIPOS>ATOM
      1  PG        -8.7820   29.2460   44.0830 P.3   562  ATP562      0.5373
      2  O1G       -7.4440   28.5440   44.0720 O.3   562  ATP562     -0.1143
      3  O2G       -9.9500   28.3540   43.6980 O.2   562  ATP562     -0.2221
      4  O3G       -9.0450   30.1390   45.2360 O.3   562  ATP562     -0.1143
      5  PB        -7.6470   31.2920   42.3840 P.3   562  ATP562      0.2277
      6  O1B       -7.8990   32.5490   43.2020 O.3   562  ATP562     -0.4368
      7  O2B       -6.2720   30.7040   42.3250 O.2   562  ATP562     -0.5168
      8  O3B       -8.7240   30.1870   42.7520 O.3   562  ATP562     -0.2258
      9  PA        -7.9070   31.1060   39.4600 P.3   562  ATP562      0.2189
     10  O1A       -6.5090   31.2400   38.9400 O.2   562  ATP562     -0.5170
     11  O2A       -8.4600   29.7430   39.4670 O.3   562  ATP562     -0.4371
     12  O3A       -8.0750   31.7600   40.9130 O.3   562  ATP562     -0.2700
     13  O5'       -8.7560   32.1740   38.6080 O.3   562  ATP562     -0.3112
     14  C5'      -10.0450   32.7220   38.9670 C.3   562  ATP562      0.1813
     15  C4'      -10.9650   32.8250   37.7470 C.3   562  ATP562      0.1821
     16  O4'      -10.4280   33.7190   36.7620 O.3   562  ATP562     -0.3135
     17  C3'      -11.0520   31.5130   36.9860 C.3   562  ATP562      0.2184
     18  O3'      -12.0930   30.6600   37.3730 O.3   562  ATP562     -0.2174
     19  C2'      -11.3030   31.8900   35.5570 C.3   562  ATP562      0.2570
     20  O2'      -12.6860   32.1150   35.3180 O.3   562  ATP562     -0.2130
     21  C1'      -10.5380   33.1790   35.4220 C.3   562  ATP562      0.3186
     22  N9        -9.2510   32.7990   34.7950 N.pl3 562  ATP562     -0.1439
     23  C8        -8.1620   32.3240   35.4390 C.3   562  ATP562      0.3377
     24  N7        -7.1390   32.0810   34.5600 N.2   562  ATP562     -0.2095
     25  C5        -7.5640   32.3870   33.3310 C.2   562  ATP562      0.2526
     26  C6        -6.9950   32.3460   31.9720 C.2   562  ATP562      0.4393
     27  N6        -5.7400   31.9240   31.7550 N.pl3 562  ATP562      0.2180
     28  N1        -7.7510   32.7230   30.9410 N.2   562  ATP562      0.0021
     29  C2        -9.0190   33.1320   31.1330 C.3   562  ATP562      0.5254
     30  N3        -9.5950   33.1950   32.3520 N.2   562  ATP562     -0.0055
     31  C4        -8.9490   32.8450   33.4850 C.2   562  ATP562      0.3518
@<TRIPOS>BOND
     1    28    29    1
     2    28    26    2
     3    29    30    1
     4    27    26    1
     5    26    25    1
     6    30    31    2
     7    25    31    1
     8    25    24    2
     9    31    22    1
    10    24    23    1
    11    22    21    1
    12    22    23    1
    13    20    19    1
    14    21    19    1
    15    21    16    1
    16    19    17    1
    17    16    15    1
    18    17    18    1
    19    17    15    1
    20    15    14    1
    21    13    14    1
    22    13     9    1
    23    10     9    2
    24     9    11    1
    25     9    12    1
    26    12     5    1
    27     7     5    2
    28     5     8    1
    29     5     6    1
    30     8     1    1
    31     3     1    2
    32     2     1    1
    33     1     4    1
