@<TRIPOS>MOLECULE
3t8s_I3P_B_1.pdb
 24 24 0 0 0
SMALL
GASTEIGER

@<TRIPOS>ATOM
      1  C1       -37.8860   -5.8440   26.0430 C.3   603  I3P603      0.1918
      2  C2       -36.5920   -6.4210   26.6520 C.3   603  I3P603      0.2147
      3  C3       -35.3340   -6.0540   25.8660 C.3   603  I3P603      0.2146
      4  C4       -35.2600   -4.5640   25.5350 C.3   603  I3P603      0.1892
      5  C5       -36.5350   -4.0720   24.8440 C.3   603  I3P603      0.1891
      6  C6       -37.7960   -4.3550   25.6590 C.3   603  I3P603      0.2120
      7  O1       -38.9620   -6.0780   26.9700 O.3   603  I3P603     -0.2673
      8  O2       -36.4530   -6.0340   28.0350 O.3   603  I3P603     -0.2176
      9  O3       -34.1840   -6.4800   26.6240 O.3   603  I3P603     -0.2176
     10  O4       -34.1510   -4.3460   24.6660 O.3   603  I3P603     -0.2674
     11  O5       -36.4180   -2.6630   24.6490 O.3   603  I3P603     -0.2674
     12  O6       -38.9470   -3.9470   24.8900 O.3   603  I3P603     -0.2177
     13  P1       -40.3850   -6.7460   26.5360 P.3   603  I3P603      0.5327
     14  O11      -41.2960   -5.5530   26.2840 O.3   603  I3P603     -0.1145
     15  O12      -40.7750   -7.6260   27.7080 O.3   603  I3P603     -0.1145
     16  O13      -40.1310   -7.5600   25.2840 O.2   603  I3P603     -0.2224
     17  P4       -32.6260   -4.5020   25.1610 P.3   603  I3P603      0.5327
     18  O41      -32.5800   -3.9240   26.5810 O.3   603  I3P603     -0.1145
     19  O42      -32.4340   -5.9950   25.0440 O.3   603  I3P603     -0.1145
     20  O43      -31.8610   -3.6940   24.1260 O.2   603  I3P603     -0.2224
     21  P5       -35.9860   -2.0540   23.2020 P.3   603  I3P603      0.5327
     22  O51      -36.1760   -0.5640   23.4190 O.3   603  I3P603     -0.1145
     23  O52      -34.5140   -2.3930   23.0000 O.3   603  I3P603     -0.1145
     24  O53      -36.9320   -2.7280   22.2080 O.2   603  I3P603     -0.2224
@<TRIPOS>BOND
     1    24    21    2
     2    23    21    1
     3    21    22    1
     4    21    11    1
     5    20    17    2
     6    11     5    1
     7    10    17    1
     8    10     4    1
     9     5     4    1
    10     5     6    1
    11    12     6    1
    12    19    17    1
    13    17    18    1
    14    16    13    2
    15     4     3    1
    16     6     1    1
    17     3     9    1
    18     3     2    1
    19     1     2    1
    20     1     7    1
    21    14    13    1
    22    13     7    1
    23    13    15    1
    24     2     8    1
