@<TRIPOS>MOLECULE
3t8v_BTJ_A_1.pdb
 40 41 0 0 0
SMALL
GASTEIGER

@<TRIPOS>ATOM
      1  C1        17.1810   10.1600    9.1020 C.3   1092  BTJ1092     0.0334
      2  N1        17.7000    8.5330   11.6650 N.am  1092  BTJ1092    -0.2013
      3  O1        17.5120   10.5880   12.4180 O.2   1092  BTJ1092    -0.2715
      4  C2        16.4170   10.2120   10.3750 C.3   1092  BTJ1092     0.1729
      5  N2        15.3610    3.7680   18.2320 N.am  1092  BTJ1092    -0.2051
      6  O2        16.6370    7.4320   13.7240 O.3   1092  BTJ1092    -0.3492
      7  C3        17.2900    9.8390   11.6300 C.2   1092  BTJ1092     0.2613
      8  O3        15.0070    6.6780   15.9580 O.3   1092  BTJ1092    -0.3417
      9  C4        18.6740    7.8900   12.5170 C.3   1092  BTJ1092     0.1472
     10  O4        17.0630    5.4080   17.9540 O.2   1092  BTJ1092    -0.2706
     11  C5        18.0080    7.7510   13.8370 C.3   1092  BTJ1092     0.1656
     12  N5        15.3430   11.2020   10.4350 N.am  1092  BTJ1092    -0.1956
     13  C6        16.3470    6.1440   14.0830 C.3   1092  BTJ1092     0.1742
     14  N6        11.6960   11.9490   12.3850 N.3   1092  BTJ1092    -0.1293
     15  C7        14.9950    6.0270   14.7500 C.3   1092  BTJ1092     0.1748
     16  C8        14.9870    6.1370   17.3150 C.3   1092  BTJ1092     0.2287
     17  C9        15.9090    5.0740   17.8530 C.2   1092  BTJ1092     0.2715
     18  O9        14.4000    9.8790   11.7200 O.2   1092  BTJ1092    -0.2705
     19  C10       14.8540    3.2950   19.5880 C.3   1092  BTJ1092     0.0955
     20  O10       12.2300   11.2290   18.7310 O.3   1092  BTJ1092    -0.4706
     21  C11       15.7450    2.4660   20.4030 C.3   1092  BTJ1092     0.0234
     22  O11       13.1400   12.7170   10.3530 O.3   1092  BTJ1092    -0.2116
     23  C25       13.4670    2.8700   20.0240 C.3   1092  BTJ1092     0.0234
     24  C39       14.5130   10.9860   11.1860 C.2   1092  BTJ1092     0.2737
     25  C40       13.8220   12.2620   11.3210 C.3   1092  BTJ1092     0.2467
     26  C41       13.0250   12.0510   12.4680 C.3   1092  BTJ1092     0.1355
     27  C42       13.3320   13.0210   13.5500 C.3   1092  BTJ1092     0.0485
     28  C43       13.0210   12.5130   14.9800 C.ar  1092  BTJ1092    -0.0204
     29  C44       12.8930   13.3220   15.9910 C.ar  1092  BTJ1092    -0.0011
     30  C45       12.6200   12.7210   17.1860 C.ar  1092  BTJ1092     0.0366
     31  C46       12.5080   11.4460   17.5540 C.ar  1092  BTJ1092     0.1390
     32  C47       12.5880   10.6400   16.6480 C.ar  1092  BTJ1092     0.0366
     33  C48       12.8120   11.1470   15.4230 C.ar  1092  BTJ1092    -0.0011
     34  C49       11.9270   10.0960   19.4650 C.3   1092  BTJ1092     0.2320
     35  C50       13.2360    9.3660   19.6940 C.ar  1092  BTJ1092     0.0212
     36  C51       13.3370    7.9020   19.8050 C.ar  1092  BTJ1092    -0.0007
     37  C52       14.5520    7.3470   20.1750 C.ar  1092  BTJ1092    -0.0002
     38  C53       15.6870    8.1620   20.4000 C.ar  1092  BTJ1092    -0.0000
     39  C54       15.5790    9.5520   20.3000 C.ar  1092  BTJ1092    -0.0002
     40  C55       14.4600   10.1590   19.9250 C.ar  1092  BTJ1092    -0.0007
@<TRIPOS>BOND
     1     1     4    1
     2    22    25    1
     3     4    12    1
     4     4     7    1
     5    12    24   am
     6    24    25    1
     7    24    18    2
     8    25    26    1
     9     7     2   am
    10     7     3    2
    11     2     9    1
    12    14    26    1
    13    26    27    1
    14     9    11    1
    15    27    28    1
    16     6    11    1
    17     6    13    1
    18    13    15    1
    19    15     8    1
    20    28    33   ar
    21    28    29   ar
    22    33    32   ar
    23     8    16    1
    24    29    30   ar
    25    32    31   ar
    26    30    31   ar
    27    16    17    1
    28    31    20    1
    29    17    10    2
    30    17     5   am
    31     5    19    1
    32    20    34    1
    33    34    35    1
    34    19    23    1
    35    19    21    1
    36    35    36   ar
    37    35    40   ar
    38    36    37   ar
    39    40    39   ar
    40    37    38   ar
    41    39    38   ar
