@<TRIPOS>MOLECULE
3t8x_T8X_C_1.pdb
 31 29 0 0 0
SMALL
GASTEIGER

@<TRIPOS>ATOM
      1  C7        85.8760   -8.9650   81.2550 C.3   304  T8X304      0.0000
      2  C8        86.0040  -10.1560   80.2650 C.3   304  T8X304      0.0000
      3  C9        86.7400   -9.8530   78.9410 C.3   304  T8X304      0.0000
      4  C10       87.7100  -10.9900   78.4990 C.3   304  T8X304      0.0000
      5  C11       88.9860  -10.4410   77.8070 C.3   304  T8X304      0.0000
      6  C12       90.0960  -11.4950   77.6280 C.3   304  T8X304      0.0000
      7  C13       91.4860  -10.8690   77.3670 C.3   304  T8X304      0.0000
      8  C14       92.4140  -11.7600   76.5130 C.3   304  T8X304      0.0000
      9  C15       93.7780  -11.1050   76.1970 C.3   304  T8X304      0.0000
     10  C16       93.8410  -10.5640   74.7570 C.3   304  T8X304      0.0000
     11  C17       95.2840  -10.4680   74.2270 C.3   304  T8X304      0.0000
     12  C18       95.8700   -9.0630   74.3530 C.3   304  T8X304      0.0000
     13  C19       95.2200   -8.1550   73.3150 C.3   304  T8X304      0.0000
     14  C23       80.8310   -4.8340   72.5830 C.3   304  T8X304      0.0000
     15  C24       82.1390   -5.6360   72.5280 C.3   304  T8X304      0.0000
     16  C25       82.8210   -5.6610   73.8950 C.3   304  T8X304      0.0000
     17  C26       83.9300   -6.7420   74.1640 C.3   304  T8X304      0.0000
     18  C27       84.7980   -7.1620   73.0250 C.3   304  T8X304      0.0000
     19  C28       86.1300   -7.7420   73.5670 C.3   304  T8X304      0.0000
     20  C29       87.1350   -6.6170   73.8630 C.3   304  T8X304      0.0000
     21  C30       88.5490   -7.0850   74.2650 C.3   304  T8X304      0.0000
     22  C31       89.5990   -5.9330   74.1880 C.3   304  T8X304      0.0000
     23  C32       91.0710   -6.2940   74.5440 C.3   304  T8X304      0.0000
     24  C33       92.0270   -6.3390   73.3160 C.3   304  T8X304      0.0000
     25  C49       80.2700   -4.3590   71.2440 C.3   304  T8X304      0.0000
     26  C50       81.1420   -3.2640   70.6980 C.3   304  T8X304      0.0000
     27  C51       80.4920   -2.3030   69.7300 C.3   304  T8X304      0.0000
     28  C52       80.6220   -2.8780   68.3330 C.3   304  T8X304      0.0000
     29  C54       93.2940   -5.4940   73.5210 C.3   304  T8X304      0.0000
     30  C55       80.2370   -1.8650   67.3170 C.3   304  T8X304      0.0000
     31  C56       80.2680   -2.5330   65.9490 C.3   304  T8X304      0.0000
@<TRIPOS>BOND
     1    31    30    1
     2    30    28    1
     3    28    27    1
     4    27    26    1
     5    26    25    1
     6    25    14    1
     7    15    14    1
     8    15    16    1
     9    18    19    1
    10    18    17    1
    11    13    12    1
    12    24    29    1
    13    24    23    1
    14    19    20    1
    15    20    21    1
    16    16    17    1
    17    22    21    1
    18    22    23    1
    19    11    12    1
    20    11    10    1
    21    10     9    1
    22     9     8    1
    23     8     7    1
    24     7     6    1
    25     6     5    1
    26     5     4    1
    27     4     3    1
    28     3     2    1
    29     2     1    1
