@<TRIPOS>MOLECULE
3t8x_FUC_A_1.pdb
 10 10 0 0 0
SMALL
GASTEIGER

@<TRIPOS>ATOM
      1  C1        20.9490  -28.8280   22.6530 C.3   1002  FUC1002     0.1776
      2  C2        21.2270  -27.2950   22.7870 C.3   1002  FUC1002     0.2141
      3  C3        22.3780  -27.2220   23.7780 C.3   1002  FUC1002     0.2172
      4  C4        23.5340  -28.1760   23.4190 C.3   1002  FUC1002     0.2116
      5  C5        23.1350  -29.5640   22.8700 C.3   1002  FUC1002     0.1483
      6  C6        24.3490  -30.1810   22.1500 C.3   1002  FUC1002     0.0349
      7  O2        20.1730  -26.5630   23.3650 O.3   1002  FUC1002    -0.2176
      8  O3        22.8710  -25.9070   23.9070 O.3   1002  FUC1002    -0.2175
      9  O4        24.4160  -27.5380   22.5260 O.3   1002  FUC1002    -0.2177
     10  O5        21.9380  -29.5950   22.0870 O.3   1002  FUC1002    -0.3508
@<TRIPOS>BOND
     1    10     1    1
     2    10     5    1
     3     6     5    1
     4     9     4    1
     5     1     2    1
     6     2     7    1
     7     2     3    1
     8     5     4    1
     9     4     3    1
    10     3     8    1
