@<TRIPOS>MOLECULE
3t91_GL0_B_1.pdb
 12 12 0 0 0
SMALL
GASTEIGER

@<TRIPOS>ATOM
      1  O2        -8.3360  -27.3770  -14.4750 O.3   900  GL0900     -0.2148
      2  C1        -9.2580  -26.8440  -12.4460 C.3   900  GL0900      0.3024
      3  C2        -8.6720  -26.2820  -13.6960 C.3   900  GL0900      0.2434
      4  C3        -7.4220  -25.4890  -13.3980 C.3   900  GL0900      0.2199
      5  C4        -7.2400  -25.0860  -11.9300 C.3   900  GL0900      0.2144
      6  C5        -8.4000  -25.3460  -10.9550 C.3   900  GL0900      0.1836
      7  C6        -8.6530  -24.1350  -10.0540 C.3   900  GL0900      0.2142
      8  O1       -10.3580  -27.5640  -12.8890 O.3   900  GL0900     -0.1869
      9  O4        -6.9820  -23.7060  -11.9480 O.3   900  GL0900     -0.2176
     10  O5        -9.5840  -25.7610  -11.6120 O.3   900  GL0900     -0.3236
     11  O6       -10.0220  -23.7740   -9.8980 O.3   900  GL0900     -0.2176
     12  O3        -6.3510  -26.2930  -13.8180 O.3   900  GL0900     -0.2174
@<TRIPOS>BOND
     1     1     3    1
     2    12     4    1
     3     3     4    1
     4     3     2    1
     5     4     5    1
     6     8     2    1
     7     2    10    1
     8     9     5    1
     9     5     6    1
    10    10     6    1
    11     6     7    1
    12     7    11    1
