@<TRIPOS>MOLECULE
3t91_MAN_B_1.pdb
 12 12 0 0 0
SMALL
GASTEIGER

@<TRIPOS>ATOM
      1  C1        -9.4340  -26.3790  -12.8590 C.3   901  MAN901      0.3024
      2  C2        -8.1100  -27.0040  -13.2210 C.3   901  MAN901      0.2434
      3  C3        -7.0630  -25.9250  -13.2650 C.3   901  MAN901      0.2199
      4  C4        -7.5490  -24.7680  -12.4050 C.3   901  MAN901      0.2144
      5  C5        -8.2400  -25.3050  -11.1500 C.3   901  MAN901      0.1836
      6  C6        -8.5200  -24.1970  -10.1370 C.3   901  MAN901      0.2142
      7  O1       -10.3770  -27.3770  -13.1110 O.3   901  MAN901     -0.1869
      8  O2        -8.2720  -27.5270  -14.5050 O.3   901  MAN901     -0.2148
      9  O3        -6.9530  -25.5420  -14.6130 O.3   901  MAN901     -0.2174
     10  O4        -6.4510  -23.9520  -12.0760 O.3   901  MAN901     -0.2176
     11  O5        -9.4370  -25.9780  -11.5030 O.3   901  MAN901     -0.3236
     12  O6        -9.8990  -23.8940  -10.0130 O.3   901  MAN901     -0.2176
@<TRIPOS>BOND
     1     9     3    1
     2     8     2    1
     3     3     2    1
     4     3     4    1
     5     2     1    1
     6     7     1    1
     7     1    11    1
     8     4    10    1
     9     4     5    1
    10    11     5    1
    11     5     6    1
    12     6    12    1
