@<TRIPOS>MOLECULE
3t92_TCE_A_1.pdb
 16 15 0 0 0
SMALL
GASTEIGER

@<TRIPOS>ATOM
      1  O16       11.7370    9.6440    3.5000 O.co2 125  TCE125     -0.2456
      2  C14       12.9770    9.7850    3.5730 C.2   125  TCE125      0.3652
      3  O15       13.6900   10.0710    2.5880 O.co2 125  TCE125     -0.2456
      4  C5        13.6630    9.5980    4.9020 C.3   125  TCE125      0.1187
      5  C2        13.1560   10.5720    5.9540 C.3   125  TCE125      0.0333
      6  P         13.9650   12.2440    5.8340 P.3   125  TCE125     -0.0779
      7  C3        14.1160   13.2770    7.3780 C.3   125  TCE125      0.0333
      8  C6        15.2140   12.6770    8.2520 C.3   125  TCE125      0.1187
      9  C8        15.3150   13.2870    9.6330 C.2   125  TCE125      0.3652
     10  O10       16.0340   12.6950   10.4680 O.co2 125  TCE125     -0.2456
     11  O9        14.6960   14.3450    9.9010 O.co2 125  TCE125     -0.2456
     12  C1        14.6180   12.8410    4.1920 C.3   125  TCE125      0.0333
     13  C4        14.2590   14.3020    3.9650 C.3   125  TCE125      0.1187
     14  C11       15.1180   15.1920    4.8280 C.2   125  TCE125      0.3652
     15  O12       14.6860   16.3310    5.1160 O.co2 125  TCE125     -0.2456
     16  O13       16.2200   14.7540    5.2240 O.co2 125  TCE125     -0.2456
@<TRIPOS>BOND
     1     3     2   ar
     2     1     2   ar
     3     2     4    1
     4    13    12    1
     5    13    14    1
     6    12     6    1
     7    14    15   ar
     8    14    16   ar
     9     4     5    1
    10     6     5    1
    11     6     7    1
    12     7     8    1
    13     8     9    1
    14     9    11   ar
    15     9    10   ar
