@<TRIPOS>MOLECULE
3t93_GLU_B_1.pdb
 10 9 0 0 0
SMALL
GASTEIGER

@<TRIPOS>ATOM
      1  N          4.1650  -38.8330  -27.3690 N.3   274  GLU274     -0.1208
      2  CA         3.8930  -37.7550  -26.3790 C.3   274  GLU274      0.1949
      3  C          2.4230  -37.5940  -26.0690 C.2   274  GLU274      0.3819
      4  O          2.0830  -36.7690  -25.2100 O.co2 274  GLU274     -0.2441
      5  CB         4.4680  -36.4050  -26.8100 C.3   274  GLU274      0.0424
      6  CG         6.0060  -36.3350  -26.6310 C.3   274  GLU274      0.1161
      7  CD         6.4640  -36.2540  -25.1580 C.2   274  GLU274      0.3649
      8  OE1        7.6870  -36.4100  -24.9290 O.co2 274  GLU274     -0.2457
      9  OE2        5.6300  -35.9720  -24.2470 O.co2 274  GLU274     -0.2457
     10  OXT        1.5830  -38.3210  -26.6230 O.co2 274  GLU274     -0.2441
@<TRIPOS>BOND
     1     1     2    1
     2     5     6    1
     3     5     2    1
     4     6     7    1
     5    10     3   ar
     6     2     3    1
     7     3     4   ar
     8     7     8   ar
     9     7     9   ar
