@<TRIPOS>MOLECULE
3t94_MTA_A_1.pdb
 20 22 0 0 0
SMALL
GASTEIGER

@<TRIPOS>ATOM
      1  CS       -26.7530   -5.8940    7.3120 C.3   901  MTA901      0.0693
      2  S5'      -26.9830   -4.6800    6.0600 S.3   901  MTA901     -0.1367
      3  C5'      -25.6570   -4.8770    4.8790 C.3   901  MTA901      0.0899
      4  C4'      -25.6690   -6.1750    4.0580 C.3   901  MTA901      0.1630
      5  O4'      -26.8430   -6.2740    3.2680 O.3   901  MTA901     -0.3153
      6  C2'      -25.1980   -6.6820    1.7120 C.3   901  MTA901      0.2569
      7  O2'      -24.5530   -7.7810    1.0620 O.3   901  MTA901     -0.2130
      8  C3'      -24.5400   -6.2550    3.0300 C.3   901  MTA901      0.2168
      9  O3'      -23.5330   -7.1660    3.5050 O.3   901  MTA901     -0.2175
     10  C1'      -26.6350   -7.0420    2.0580 C.3   901  MTA901      0.3185
     11  N9       -27.6970   -6.3970    1.2920 N.pl3 901  MTA901     -0.1439
     12  C8       -28.9990   -6.5510    1.6270 C.3   901  MTA901      0.3377
     13  N7       -29.8110   -5.7950    0.8720 N.2   901  MTA901     -0.2095
     14  C5       -29.0170   -5.1060    0.0290 C.2   901  MTA901      0.2526
     15  C6       -29.2490   -4.1170   -1.0220 C.2   901  MTA901      0.4393
     16  N6       -30.4960   -3.7050   -1.3440 N.pl3 901  MTA901      0.2180
     17  N1       -28.1710   -3.6310   -1.6570 N.2   901  MTA901      0.0021
     18  C2       -26.9280   -4.0310   -1.3530 C.3   901  MTA901      0.5254
     19  N3       -26.6270   -4.9320   -0.4020 N.2   901  MTA901     -0.0055
     20  C4       -27.6290   -5.4870    0.3170 C.2   901  MTA901      0.3518
@<TRIPOS>BOND
     1    17    18    1
     2    17    15    2
     3    18    19    1
     4    16    15    1
     5    15    14    1
     6    19    20    2
     7    14    20    1
     8    14    13    2
     9    20    11    1
    10    13    12    1
    11     7     6    1
    12    11    12    1
    13    11    10    1
    14     6    10    1
    15     6     8    1
    16    10     5    1
    17     8     9    1
    18     8     4    1
    19     5     4    1
    20     4     3    1
    21     3     2    1
    22     2     1    1
