@<TRIPOS>MOLECULE
3t96_IWD_B_1.pdb
 15 15 0 0 0
SMALL
GASTEIGER

@<TRIPOS>ATOM
      1  N1        -5.5950   36.2570  -26.6760 N.am  601  IWD601     -0.2009
      2  C2        -6.1910   36.1170  -25.4430 C.1   601  IWD601      0.2827
      3  O2        -5.5490   36.0010  -24.4420 O.2   601  IWD601     -0.1919
      4  N3        -7.5980   36.1050  -25.3810 N.2   601  IWD601     -0.2448
      5  C4        -8.3390   36.2560  -26.5710 C.1   601  IWD601      0.2229
      6  O4        -9.7060   36.2540  -26.3130 O.2   601  IWD601     -0.2081
      7  C5        -7.7400   36.4250  -27.8850 C.2   601  IWD601      0.1404
      8  I5        -8.5970   36.7120  -29.8720 I     601  IWD601     -0.0273
      9  C6        -6.3530   36.4130  -27.8740 C.2   601  IWD601      0.0956
     10  C7        -4.1530   36.3580  -26.7420 C.3   601  IWD601      0.1396
     11  C8        -3.6640   37.7710  -26.4080 C.3   601  IWD601      0.2151
     12  N8        -4.0090   38.7360  -27.4150 N.3   601  IWD601     -0.1189
     13  C9        -2.1880   37.7210  -26.0480 C.2   601  IWD601      0.3836
     14  O91       -1.3590   38.3300  -26.6510 O.co2 601  IWD601     -0.2440
     15  O92       -1.8460   36.7160  -25.1570 O.co2 601  IWD601     -0.2440
@<TRIPOS>BOND
     1     8     7    1
     2     7     9    2
     3     7     5    1
     4     9     1    1
     5    12    11    1
     6    10     1    1
     7    10    11    1
     8     1     2   am
     9    14    13   ar
    10     5     6    2
    11     5     4    2
    12    11    13    1
    13    13    15   ar
    14     2     4    2
    15     2     3    2
