@<TRIPOS>MOLECULE
3t99_ADP_A_1.pdb
 27 29 0 0 0
SMALL
GASTEIGER

@<TRIPOS>ATOM
      1  PB       -17.7540  -11.2420   10.4090 P.3   401  ADP401      0.5373
      2  O1B      -17.0860  -11.3210   11.8780 O.3   401  ADP401     -0.1143
      3  O2B      -16.5320  -11.1990    9.4270 O.2   401  ADP401     -0.2221
      4  O3B      -18.5800  -12.4420   10.1490 O.3   401  ADP401     -0.1143
      5  PA       -19.7760   -9.4980    9.4340 P.3   401  ADP401      0.2231
      6  O1A      -19.5250   -8.3370    8.5440 O.2   401  ADP401     -0.5169
      7  O2A      -20.3370  -10.7740    8.9130 O.3   401  ADP401     -0.4370
      8  O3A      -18.4300   -9.8010   10.2430 O.3   401  ADP401     -0.2261
      9  O5'      -20.7940   -9.0040   10.6160 O.3   401  ADP401     -0.3111
     10  C5'      -21.3090   -9.9150   11.6040 C.3   401  ADP401      0.1813
     11  C4'      -22.8590   -9.8900   11.6570 C.3   401  ADP401      0.1821
     12  O4'      -23.1520   -8.4790   11.9020 O.3   401  ADP401     -0.3135
     13  C3'      -23.5010  -10.1100   10.2910 C.3   401  ADP401      0.2184
     14  O3'      -23.6800  -11.4810    9.9790 O.3   401  ADP401     -0.2174
     15  C2'      -24.8410   -9.4390   10.4870 C.3   401  ADP401      0.2570
     16  O2'      -25.7690  -10.2900   11.1790 O.3   401  ADP401     -0.2130
     17  C1'      -24.4680   -8.2120   11.3140 C.3   401  ADP401      0.3186
     18  N9       -24.2760   -7.0930   10.3270 N.pl3 401  ADP401     -0.1439
     19  C8       -22.9940   -6.8500    9.6320 C.3   401  ADP401      0.3377
     20  N7       -23.1650   -5.5070    9.1020 N.2   401  ADP401     -0.2095
     21  C5       -24.4640   -5.2080    9.1870 C.2   401  ADP401      0.2526
     22  C6       -25.1860   -4.1440    8.6740 C.2   401  ADP401      0.4393
     23  N6       -24.5800   -3.1960    7.9550 N.pl3 401  ADP401      0.2180
     24  N1       -26.5080   -4.0940    8.9140 N.2   401  ADP401      0.0021
     25  C2       -27.1330   -5.0240    9.6360 C.3   401  ADP401      0.5254
     26  N3       -26.4820   -6.0490   10.1570 N.2   401  ADP401     -0.0055
     27  C4       -25.1500   -6.1750    9.9390 C.2   401  ADP401      0.3518
@<TRIPOS>BOND
     1    23    22    1
     2     6     5    2
     3    22    24    2
     4    22    21    1
     5     7     5    1
     6    24    25    1
     7    20    21    2
     8    20    19    1
     9    21    27    1
    10     3     1    2
    11     5     8    1
    12     5     9    1
    13    19    18    1
    14    25    26    1
    15    27    26    2
    16    27    18    1
    17    14    13    1
    18     4     1    1
    19     8     1    1
    20    13    15    1
    21    13    11    1
    22    18    17    1
    23     1     2    1
    24    15    16    1
    25    15    17    1
    26     9    10    1
    27    17    12    1
    28    10    11    1
    29    11    12    1
