@<TRIPOS>MOLECULE
3t9a_ANP_A_1.pdb
 31 33 0 0 0
SMALL
GASTEIGER

@<TRIPOS>ATOM
      1  PG         2.3850   13.6090    9.4150 P.3   401  ANP401      0.4884
      2  O1G        3.5450   13.9620    8.4120 O.2   401  ANP401     -0.2331
      3  O2G        2.2990   14.6660   10.4790 O.3   401  ANP401     -0.1240
      4  O3G        1.0430   13.5580    8.5890 O.3   401  ANP401     -0.1240
      5  PB         1.9100   10.7200    9.9120 P.3   401  ANP401      0.4669
      6  O1B        1.1310   10.4340   11.1370 O.3   401  ANP401     -0.1253
      7  O2B        1.1680   10.6250    8.6030 O.2   401  ANP401     -0.2351
      8  N3B        2.7520   12.1120   10.0900 N.3   401  ANP401     -0.0163
      9  PA         4.2810    9.2440    8.9390 P.3   401  ANP401      0.2220
     10  O1A        3.8540    8.1770    8.0340 O.2   401  ANP401     -0.5170
     11  O2A        4.8110   10.5140    8.4150 O.3   401  ANP401     -0.4370
     12  O3A        3.0600    9.5580    9.9960 O.3   401  ANP401     -0.2360
     13  O5'        5.3210    8.6180    9.9600 O.3   401  ANP401     -0.3111
     14  C5'        5.8450    9.5340   10.9510 C.3   401  ANP401      0.1813
     15  C4'        7.3820    9.5050   10.9990 C.3   401  ANP401      0.1821
     16  O4'        7.7980    8.1980   11.4050 O.3   401  ANP401     -0.3135
     17  C3'        8.0270    9.7320    9.6450 C.3   401  ANP401      0.2184
     18  O3'        8.1720   11.1220    9.4460 O.3   401  ANP401     -0.2174
     19  C2'        9.3680    9.0220    9.8130 C.3   401  ANP401      0.2570
     20  O2'       10.2920    9.7860   10.6030 O.3   401  ANP401     -0.2130
     21  C1'        8.9490    7.7750   10.5940 C.3   401  ANP401      0.3186
     22  N9         8.6330    6.6650    9.6200 N.pl3 401  ANP401     -0.1439
     23  C8         7.3040    6.4240    9.0470 C.3   401  ANP401      0.3377
     24  N7         7.4670    5.1630    8.3350 N.2   401  ANP401     -0.2095
     25  C5         8.7550    4.8060    8.4080 C.2   401  ANP401      0.2526
     26  C6         9.4370    3.7260    7.8630 C.2   401  ANP401      0.4393
     27  N6         8.7950    2.8210    7.1240 N.pl3 401  ANP401      0.2180
     28  N1        10.7480    3.5990    8.1160 N.2   401  ANP401      0.0021
     29  C2        11.4060    4.4920    8.8530 C.3   401  ANP401      0.5254
     30  N3        10.7880    5.5500    9.3940 N.2   401  ANP401     -0.0055
     31  C4         9.4640    5.7190    9.1920 C.2   401  ANP401      0.3518
@<TRIPOS>BOND
     1    27    26    1
     2    26    28    2
     3    26    25    1
     4    10     9    2
     5    28    29    1
     6    24    25    2
     7    24    23    1
     8    25    31    1
     9     2     1    2
    10    11     9    1
    11     4     1    1
    12     7     5    2
    13    29    30    1
    14     9    13    1
    15     9    12    1
    16    23    22    1
    17    31    30    2
    18    31    22    1
    19     1     8    1
    20     1     3    1
    21    18    17    1
    22    22    21    1
    23    17    19    1
    24    17    15    1
    25    19    21    1
    26    19    20    1
    27     5    12    1
    28     5     8    1
    29     5     6    1
    30    13    14    1
    31    21    16    1
    32    14    15    1
    33    15    16    1
