@<TRIPOS>MOLECULE
3t9b_ANP_A_1.pdb
 31 33 0 0 0
SMALL
GASTEIGER

@<TRIPOS>ATOM
      1  PG         2.1070   13.3160    9.4360 P.3   401  ANP401      0.4884
      2  O1G        3.3080   13.6920    8.4500 O.2   401  ANP401     -0.2331
      3  O2G        1.9760   14.3750   10.5020 O.3   401  ANP401     -0.1240
      4  O3G        0.7490   13.1730    8.6130 O.3   401  ANP401     -0.1240
      5  PB         1.6800   10.4720    9.9090 P.3   401  ANP401      0.4669
      6  O1B        0.8910   10.1210   11.1200 O.3   401  ANP401     -0.1253
      7  O2B        0.9680   10.4420    8.6100 O.2   401  ANP401     -0.2351
      8  N3B        2.5150   11.8600   10.1560 N.3   401  ANP401     -0.0163
      9  PA         4.0010    8.9230    8.8730 P.3   401  ANP401      0.2220
     10  O1A        3.6300    7.8360    7.9400 O.2   401  ANP401     -0.5170
     11  O2A        4.4940   10.1940    8.3470 O.3   401  ANP401     -0.4370
     12  O3A        2.7670    9.2570    9.9100 O.3   401  ANP401     -0.2360
     13  O5'        5.0180    8.3750    9.9470 O.3   401  ANP401     -0.3111
     14  C5'        5.5810    9.2680   10.9630 C.3   401  ANP401      0.1813
     15  C4'        7.1070    9.1950   11.0410 C.3   401  ANP401      0.1821
     16  O4'        7.4790    7.8290   11.3160 O.3   401  ANP401     -0.3135
     17  C3'        7.7040    9.4820    9.6620 C.3   401  ANP401      0.2184
     18  O3'        7.8680   10.8950    9.4760 O.3   401  ANP401     -0.2174
     19  C2'        9.0360    8.7620    9.7810 C.3   401  ANP401      0.2570
     20  O2'        9.9620    9.5130   10.5760 O.3   401  ANP401     -0.2130
     21  C1'        8.6470    7.5060   10.5800 C.3   401  ANP401      0.3186
     22  N9         8.3540    6.4170    9.6320 N.pl3 401  ANP401     -0.1439
     23  C8         7.0540    6.2050    9.0020 C.3   401  ANP401      0.3377
     24  N7         7.2410    4.9510    8.3080 N.2   401  ANP401     -0.2095
     25  C5         8.5260    4.5990    8.4090 C.2   401  ANP401      0.2526
     26  C6         9.2340    3.5360    7.8600 C.2   401  ANP401      0.4393
     27  N6         8.6110    2.6490    7.0810 N.pl3 401  ANP401      0.2180
     28  N1        10.5480    3.4180    8.1380 N.2   401  ANP401      0.0021
     29  C2        11.1650    4.3000    8.9250 C.3   401  ANP401      0.5254
     30  N3        10.5190    5.3280    9.4690 N.2   401  ANP401     -0.0055
     31  C4         9.2030    5.4930    9.2240 C.2   401  ANP401      0.3518
@<TRIPOS>BOND
     1    27    26    1
     2    26    28    2
     3    26    25    1
     4    10     9    2
     5    28    29    1
     6    24    25    2
     7    24    23    1
     8    11     9    1
     9    25    31    1
    10     2     1    2
    11     7     5    2
    12     4     1    1
    13     9    12    1
    14     9    13    1
    15    29    30    1
    16    23    22    1
    17    31    30    2
    18    31    22    1
    19     1     8    1
    20     1     3    1
    21    18    17    1
    22    22    21    1
    23    17    19    1
    24    17    15    1
    25    19    20    1
    26    19    21    1
    27     5    12    1
    28     5     8    1
    29     5     6    1
    30    13    14    1
    31    21    16    1
    32    14    15    1
    33    15    16    1
