@<TRIPOS>MOLECULE
3t9c_IHP_A_1.pdb
 36 36 0 0 0
SMALL
GASTEIGER

@<TRIPOS>ATOM
      1  C1         0.9350   19.5230    9.9600 C.3   501  IHP501      0.1863
      2  C2        -0.5370   19.8820    9.8010 C.3   501  IHP501      0.1863
      3  C3        -1.1930   19.7400   11.1820 C.3   501  IHP501      0.1863
      4  C4        -0.5620   20.6500   12.2340 C.3   501  IHP501      0.1863
      5  C5         0.9660   20.5180   12.2940 C.3   501  IHP501      0.1863
      6  C6         1.6340   20.5080   10.9080 C.3   501  IHP501      0.1863
      7  O11        1.5580   19.5230    8.6830 O.3   501  IHP501     -0.2675
      8  P1         1.6030   18.1300    7.8340 P.3   501  IHP501      0.5327
      9  O21        1.9340   18.7460    6.3560 O.2   501  IHP501     -0.2224
     10  O31        0.3870   17.2850    7.8550 O.3   501  IHP501     -0.1145
     11  O41        2.8880   17.2880    8.3900 O.3   501  IHP501     -0.1145
     12  O12       -0.6340   21.2180    9.3470 O.3   501  IHP501     -0.2675
     13  P2        -1.1530   21.5230    7.8570 P.3   501  IHP501      0.5327
     14  O22       -1.2590   23.1090    7.8200 O.3   501  IHP501     -0.1145
     15  O32       -0.3060   20.9490    6.7990 O.2   501  IHP501     -0.2224
     16  O42       -2.6960   21.0250    7.8440 O.3   501  IHP501     -0.1145
     17  O13       -2.6110   19.9440   11.1270 O.3   501  IHP501     -0.2675
     18  P3        -3.5240   18.6210   11.2850 P.3   501  IHP501      0.5327
     19  O23       -3.3970   18.2270   12.8400 O.3   501  IHP501     -0.1145
     20  O33       -3.0200   17.5320   10.3940 O.2   501  IHP501     -0.2224
     21  O43       -5.0690   19.1420   10.9940 O.3   501  IHP501     -0.1145
     22  O14       -1.0530   20.2070   13.4730 O.3   501  IHP501     -0.2675
     23  P4        -2.0310   21.1150   14.3580 P.3   501  IHP501      0.5327
     24  O24       -3.4220   20.3000   14.3660 O.3   501  IHP501     -0.1145
     25  O34       -2.1610   22.5240   13.9100 O.2   501  IHP501     -0.2224
     26  O44       -1.3740   20.9080   15.8340 O.3   501  IHP501     -0.1145
     27  O15        1.4830   21.5680   13.1090 O.3   501  IHP501     -0.2675
     28  P5         2.1080   21.2130   14.6100 P.3   501  IHP501      0.5327
     29  O25        1.9240   19.8170   15.0750 O.3   501  IHP501     -0.1145
     30  O35        1.4560   22.3220   15.5820 O.3   501  IHP501     -0.1145
     31  O45        3.6450   21.6040   14.4960 O.2   501  IHP501     -0.2224
     32  O16        2.9870   20.0950   11.0540 O.3   501  IHP501     -0.2675
     33  P6         4.1160   21.2290   11.0270 P.3   501  IHP501      0.5327
     34  O26        5.1670   20.7380   12.1420 O.3   501  IHP501     -0.1145
     35  O36        3.6300   22.6180   11.2760 O.3   501  IHP501     -0.1145
     36  O46        4.8780   21.1100    9.6020 O.2   501  IHP501     -0.2224
@<TRIPOS>BOND
     1     9     8    2
     2    15    13    2
     3    14    13    1
     4     8    10    1
     5     8    11    1
     6     8     7    1
     7    16    13    1
     8    13    12    1
     9     7     1    1
    10    12     2    1
    11    36    33    2
    12     2     1    1
    13     2     3    1
    14     1     6    1
    15    20    18    2
    16     6    32    1
    17     6     5    1
    18    21    18    1
    19    33    32    1
    20    33    35    1
    21    33    34    1
    22    17     3    1
    23    17    18    1
    24     3     4    1
    25    18    19    1
    26     4     5    1
    27     4    22    1
    28     5    27    1
    29    27    28    1
    30    22    23    1
    31    25    23    2
    32    23    24    1
    33    23    26    1
    34    31    28    2
    35    28    29    1
    36    28    30    1
