@<TRIPOS>MOLECULE
3t9c_ANP_A_1.pdb
 31 33 0 0 0
SMALL
GASTEIGER

@<TRIPOS>ATOM
      1  PG         2.1640   13.3540    9.3420 P.3   401  ANP401      0.4884
      2  O1G        3.3450   13.7280    8.3630 O.2   401  ANP401     -0.2331
      3  O2G        2.0190   14.4030   10.3990 O.3   401  ANP401     -0.1240
      4  O3G        0.7920   13.2240    8.4800 O.3   401  ANP401     -0.1240
      5  PB         1.7240   10.5130    9.8570 P.3   401  ANP401      0.4669
      6  O1B        0.9170   10.1070   11.0520 O.3   401  ANP401     -0.1253
      7  O2B        1.0280   10.4800    8.5460 O.2   401  ANP401     -0.2351
      8  N3B        2.5800   11.8870   10.0560 N.3   401  ANP401     -0.0163
      9  PA         4.0420    8.9960    8.8340 P.3   401  ANP401      0.2220
     10  O1A        3.6850    7.8810    7.9260 O.2   401  ANP401     -0.5170
     11  O2A        4.5220   10.2620    8.2570 O.3   401  ANP401     -0.4370
     12  O3A        2.8540    9.3370    9.8970 O.3   401  ANP401     -0.2360
     13  O5'        5.1000    8.4770    9.9150 O.3   401  ANP401     -0.3111
     14  C5'        5.6340    9.4260   10.8990 C.3   401  ANP401      0.1813
     15  C4'        7.1710    9.3330   11.0280 C.3   401  ANP401      0.1821
     16  O4'        7.5240    7.9870   11.2940 O.3   401  ANP401     -0.3135
     17  C3'        7.8030    9.6010    9.6770 C.3   401  ANP401      0.2184
     18  O3'        7.9500   10.9900    9.5080 O.3   401  ANP401     -0.2174
     19  C2'        9.1540    8.9110    9.8440 C.3   401  ANP401      0.2570
     20  O2'       10.0480    9.6870   10.6690 O.3   401  ANP401     -0.2130
     21  C1'        8.7430    7.6610   10.6160 C.3   401  ANP401      0.3186
     22  N9         8.4750    6.5440    9.6790 N.pl3 401  ANP401     -0.1439
     23  C8         7.1820    6.3320    9.0250 C.3   401  ANP401      0.3377
     24  N7         7.3660    5.0800    8.3140 N.2   401  ANP401     -0.2095
     25  C5         8.6540    4.7380    8.4310 C.2   401  ANP401      0.2526
     26  C6         9.3580    3.6810    7.8920 C.2   401  ANP401      0.4393
     27  N6         8.7270    2.8130    7.0970 N.pl3 401  ANP401      0.2180
     28  N1        10.6660    3.5500    8.1650 N.2   401  ANP401      0.0021
     29  C2        11.2970    4.4310    8.9450 C.3   401  ANP401      0.5254
     30  N3        10.6540    5.4560    9.4960 N.2   401  ANP401     -0.0055
     31  C4         9.3300    5.6270    9.2640 C.2   401  ANP401      0.3518
@<TRIPOS>BOND
     1    27    26    1
     2    26    28    2
     3    26    25    1
     4    10     9    2
     5    28    29    1
     6    11     9    1
     7    24    25    2
     8    24    23    1
     9     2     1    2
    10    25    31    1
    11     4     1    1
    12     7     5    2
    13     9    12    1
    14     9    13    1
    15    29    30    1
    16    23    22    1
    17    31    30    2
    18    31    22    1
    19     1     8    1
    20     1     3    1
    21    18    17    1
    22    17    19    1
    23    17    15    1
    24    22    21    1
    25    19    21    1
    26    19    20    1
    27     5    12    1
    28     5     8    1
    29     5     6    1
    30    13    14    1
    31    21    16    1
    32    14    15    1
    33    15    16    1
