@<TRIPOS>MOLECULE
3t9d_I7P_A_1.pdb
 40 40 0 0 0
SMALL
GASTEIGER

@<TRIPOS>ATOM
      1  C1         0.9850   19.1470   10.0610 C.3   501  I7P501      0.1863
      2  C2        -0.4900   19.5090    9.8360 C.3   501  I7P501      0.1863
      3  C3        -1.2140   19.4450   11.2000 C.3   501  I7P501      0.1863
      4  C4        -0.6150   20.4230   12.2100 C.3   501  I7P501      0.1862
      5  C5         0.8910   20.2030   12.3640 C.3   501  I7P501      0.1818
      6  C6         1.6390   20.1440   11.0240 C.3   501  I7P501      0.1862
      7  O11        1.6900   19.1540    8.8100 O.3   501  I7P501     -0.2675
      8  O12       -0.5860   20.8230    9.2910 O.3   501  I7P501     -0.2675
      9  O13       -2.6170   19.7190   11.0540 O.3   501  I7P501     -0.2675
     10  O14       -1.2010   20.1220   13.4650 O.3   501  I7P501     -0.2675
     11  O15        1.4440   21.2640   13.1510 O.3   501  I7P501     -0.3111
     12  O16        2.9670   19.7090   11.3070 O.3   501  I7P501     -0.2675
     13  O21        2.5730   16.6960    9.1540 O.3   501  I7P501     -0.1145
     14  O22       -2.6660   20.7970    7.7480 O.3   501  I7P501     -0.1145
     15  O23       -3.4540   18.0360   12.7940 O.3   501  I7P501     -0.1145
     16  O24       -3.7100   20.6430   13.7340 O.3   501  I7P501     -0.1145
     17  O25        1.7640   19.5770   15.0810 O.2   501  I7P501     -0.5169
     18  O26        5.3570   20.2730   12.0230 O.3   501  I7P501     -0.1145
     19  O31        0.5580   17.1880    7.6020 O.3   501  I7P501     -0.1145
     20  O32       -0.4160   20.0610    6.7570 O.2   501  I7P501     -0.2224
     21  O33       -3.1510   17.3080   10.2980 O.2   501  I7P501     -0.2224
     22  O34       -2.0190   22.6020   13.6110 O.2   501  I7P501     -0.2224
     23  O35        1.0220   21.9940   15.5130 O.3   501  I7P501     -0.4370
     24  O36        3.7990   22.2060   11.3080 O.3   501  I7P501     -0.1145
     25  O41        2.9500   17.9510    6.9130 O.2   501  I7P501     -0.2224
     26  O42       -0.7550   22.5160    7.3860 O.3   501  I7P501     -0.1145
     27  O43       -5.0650   18.9640   10.9100 O.3   501  I7P501     -0.1145
     28  O44       -2.0650   21.0330   15.6950 O.3   501  I7P501     -0.1145
     29  O45        3.3680   21.4550   14.7050 O.3   501  I7P501     -0.2261
     30  O46        4.6530   20.5300    9.5620 O.2   501  I7P501     -0.2224
     31  O55        3.6180   22.2770   17.1500 O.3   501  I7P501     -0.1143
     32  O65        5.5420   22.6000   15.4760 O.3   501  I7P501     -0.1143
     33  O75        3.3420   23.9900   15.2030 O.2   501  I7P501     -0.2221
     34  PA1        2.0040   17.7540    8.0490 P.3   501  I7P501      0.5327
     35  PA2       -1.0900   21.1330    7.7590 P.3   501  I7P501      0.5327
     36  PA3       -3.6780   18.5150   11.2520 P.3   501  I7P501      0.5327
     37  PA4       -2.2420   21.1170   14.2240 P.3   501  I7P501      0.5327
     38  PA5        1.8130   21.0200   14.7240 P.3   501  I7P501      0.2231
     39  PA6        4.2050   20.6690   10.9710 P.3   501  I7P501      0.5327
     40  PB5        3.9200   22.6790   15.6100 P.3   501  I7P501      0.5373
@<TRIPOS>BOND
     1    20    35    2
     2    25    34    2
     3    26    35    1
     4    19    34    1
     5    14    35    1
     6    35     8    1
     7    34     7    1
     8    34    13    1
     9     7     1    1
    10     8     2    1
    11    30    39    2
    12     2     1    1
    13     2     3    1
    14     1     6    1
    15    21    36    2
    16    27    36    1
    17    39    12    1
    18    39    24    1
    19    39    18    1
    20     6    12    1
    21     6     5    1
    22     9     3    1
    23     9    36    1
    24     3     4    1
    25    36    15    1
    26     4     5    1
    27     4    10    1
    28     5    11    1
    29    11    38    1
    30    10    37    1
    31    22    37    2
    32    16    37    1
    33    37    28    1
    34    29    38    1
    35    29    40    1
    36    38    17    2
    37    38    23    1
    38    33    40    2
    39    32    40    1
    40    40    31    1
