@<TRIPOS>MOLECULE
3t9d_ANP_A_1.pdb
 31 33 0 0 0
SMALL
GASTEIGER

@<TRIPOS>ATOM
      1  PG         2.0690   13.3150    9.3300 P.3   401  ANP401      0.4884
      2  O1G        3.2750   13.5720    8.3410 O.2   401  ANP401     -0.2331
      3  O2G        1.8290   14.3350   10.3430 O.3   401  ANP401     -0.1240
      4  O3G        0.7270   13.0730    8.3870 O.3   401  ANP401     -0.1240
      5  PB         1.6110   10.4670    9.9170 P.3   401  ANP401      0.4669
      6  O1B        0.8580   10.1220   11.1360 O.3   401  ANP401     -0.1253
      7  O2B        0.8530   10.4480    8.6320 O.2   401  ANP401     -0.2351
      8  N3B        2.4340   11.8420   10.1390 N.3   401  ANP401     -0.0163
      9  PA         3.9420    8.9550    8.9590 P.3   401  ANP401      0.2220
     10  O1A        3.6200    7.8510    8.0260 O.2   401  ANP401     -0.5170
     11  O2A        4.4970   10.1950    8.4010 O.3   401  ANP401     -0.4370
     12  O3A        2.7000    9.2590    9.9280 O.3   401  ANP401     -0.2360
     13  O5'        4.9340    8.3950   10.0540 O.3   401  ANP401     -0.3111
     14  C5'        5.4650    9.2820   11.0420 C.3   401  ANP401      0.1813
     15  C4'        6.9960    9.2430   11.0780 C.3   401  ANP401      0.1821
     16  O4'        7.4080    7.8970   11.3350 O.3   401  ANP401     -0.3135
     17  C3'        7.6020    9.5980    9.7390 C.3   401  ANP401      0.2184
     18  O3'        7.7740   11.0030    9.6660 O.3   401  ANP401     -0.2174
     19  C2'        8.9400    8.8990    9.8080 C.3   401  ANP401      0.2570
     20  O2'        9.8850    9.6450   10.6180 O.3   401  ANP401     -0.2130
     21  C1'        8.5930    7.6240   10.5520 C.3   401  ANP401      0.3186
     22  N9         8.3030    6.5000    9.6240 N.pl3 401  ANP401     -0.1439
     23  C8         7.0080    6.1410    9.0620 C.3   401  ANP401      0.3377
     24  N7         7.3230    4.9610    8.2910 N.2   401  ANP401     -0.2095
     25  C5         8.6300    4.7030    8.3940 C.2   401  ANP401      0.2526
     26  C6         9.3610    3.7130    7.8600 C.2   401  ANP401      0.4393
     27  N6         8.7320    2.8220    7.0780 N.pl3 401  ANP401      0.2180
     28  N1        10.6730    3.6110    8.0920 N.2   401  ANP401      0.0021
     29  C2        11.3100    4.5570    8.8800 C.3   401  ANP401      0.5254
     30  N3        10.5320    5.5750    9.4450 N.2   401  ANP401     -0.0055
     31  C4         9.2090    5.6190    9.1930 C.2   401  ANP401      0.3518
@<TRIPOS>BOND
     1    27    26    1
     2    26    28    2
     3    26    25    1
     4    10     9    2
     5    28    29    1
     6    24    25    2
     7    24    23    1
     8     2     1    2
     9     4     1    1
    10    25    31    1
    11    11     9    1
    12     7     5    2
    13    29    30    1
    14     9    12    1
    15     9    13    1
    16    23    22    1
    17    31    30    2
    18    31    22    1
    19     1     8    1
    20     1     3    1
    21    22    21    1
    22    18    17    1
    23    17    19    1
    24    17    15    1
    25    19    21    1
    26    19    20    1
    27     5    12    1
    28     5     8    1
    29     5     6    1
    30    13    14    1
    31    21    16    1
    32    14    15    1
    33    15    16    1
