@<TRIPOS>MOLECULE
3t9e_I7P_A_1.pdb
 40 40 0 0 0
SMALL
GASTEIGER

@<TRIPOS>ATOM
      1  C1         0.6260   18.4440   10.0990 C.3   501  I7P501      0.1863
      2  C2        -0.8330   18.8790    9.9140 C.3   501  I7P501      0.1863
      3  C3        -1.5130   18.9460   11.2890 C.3   501  I7P501      0.1863
      4  C4        -0.8380   19.9600   12.2120 C.3   501  I7P501      0.1862
      5  C5         0.6540   19.6400   12.3480 C.3   501  I7P501      0.1818
      6  C6         1.3750   19.4360   11.0000 C.3   501  I7P501      0.1862
      7  O11        1.2880   18.4460    8.8400 O.3   501  I7P501     -0.2675
      8  O12       -0.8340   20.1830    9.3200 O.3   501  I7P501     -0.2675
      9  O13       -2.8900   19.3210   11.1380 O.3   501  I7P501     -0.2675
     10  O14       -1.3760   19.7300   13.4900 O.3   501  I7P501     -0.2675
     11  O15        1.2820   20.7090   13.0440 O.3   501  I7P501     -0.3111
     12  O16        2.6580   18.8550   11.2800 O.3   501  I7P501     -0.2675
     13  O21        1.5750   15.8640    9.0000 O.3   501  I7P501     -0.1145
     14  O22       -3.0460   20.4910    7.9860 O.3   501  I7P501     -0.1145
     15  O23       -3.9280   17.8160   12.9360 O.3   501  I7P501     -0.1145
     16  O24       -3.8850   20.0380   13.9810 O.3   501  I7P501     -0.1145
     17  O25        1.6680   19.1440   15.0430 O.2   501  I7P501     -0.5169
     18  O26        5.1070   19.0520   11.9410 O.3   501  I7P501     -0.1145
     19  O31       -0.0230   16.9670    7.2700 O.3   501  I7P501     -0.1145
     20  O32       -1.1940   19.2080    6.9260 O.2   501  I7P501     -0.2224
     21  O33       -3.5870   16.9130   10.5760 O.2   501  I7P501     -0.2224
     22  O34       -2.4520   22.0940   13.5410 O.2   501  I7P501     -0.2224
     23  O35        0.8370   21.5700   15.3270 O.3   501  I7P501     -0.4370
     24  O36        3.9250   21.1520   10.9470 O.3   501  I7P501     -0.1145
     25  O41        2.5510   17.2600    7.0050 O.2   501  I7P501     -0.2224
     26  O42       -0.8820   21.7490    7.3460 O.3   501  I7P501     -0.1145
     27  O43       -5.3930   18.8020   10.9900 O.3   501  I7P501     -0.1145
     28  O44       -2.0930   20.7000   15.7240 O.3   501  I7P501     -0.1145
     29  O45        3.2050   21.0610   14.5920 O.3   501  I7P501     -0.2261
     30  O46        4.4400   19.1060    9.4600 O.2   501  I7P501     -0.2224
     31  O55        3.4600   22.3070   16.8460 O.3   501  I7P501     -0.1143
     32  O65        5.3790   22.2940   15.0930 O.3   501  I7P501     -0.1143
     33  O75        3.1860   23.6810   14.6930 O.2   501  I7P501     -0.2221
     34  PA1        1.4410   17.0900    7.9670 P.3   501  I7P501      0.5327
     35  PA2       -1.4590   20.4920    7.8370 P.3   501  I7P501      0.5327
     36  PA3       -4.0420   18.2090   11.3740 P.3   501  I7P501      0.5327
     37  PA4       -2.4250   20.6790   14.2640 P.3   501  I7P501      0.5327
     38  PA5        1.6690   20.5710   14.6240 P.3   501  I7P501      0.2231
     39  PA6        4.0620   19.5600   10.8410 P.3   501  I7P501      0.5327
     40  PB5        3.7590   22.4360   15.2920 P.3   501  I7P501      0.5373
@<TRIPOS>BOND
     1    20    35    2
     2    25    34    2
     3    19    34    1
     4    26    35    1
     5    35    14    1
     6    35     8    1
     7    34     7    1
     8    34    13    1
     9     7     1    1
    10     8     2    1
    11    30    39    2
    12     2     1    1
    13     2     3    1
    14     1     6    1
    15    21    36    2
    16    39    24    1
    17    39    12    1
    18    39    18    1
    19    27    36    1
    20     6    12    1
    21     6     5    1
    22     9     3    1
    23     9    36    1
    24     3     4    1
    25    36    15    1
    26     4     5    1
    27     4    10    1
    28     5    11    1
    29    11    38    1
    30    10    37    1
    31    22    37    2
    32    16    37    1
    33    37    28    1
    34    29    38    1
    35    29    40    1
    36    38    17    2
    37    38    23    1
    38    33    40    2
    39    32    40    1
    40    40    31    1
