@<TRIPOS>MOLECULE
3t9e_ADP_A_1.pdb
 27 29 0 0 0
SMALL
GASTEIGER

@<TRIPOS>ATOM
      1  PB         1.7810   10.5560    9.7030 P.3   401  ADP401      0.5373
      2  O1B        1.1730   10.4590   11.2000 O.3   401  ADP401     -0.1143
      3  O2B        0.5810   10.3920    8.6800 O.2   401  ADP401     -0.2221
      4  O3B        2.5500   11.8120    9.4880 O.3   401  ADP401     -0.1143
      5  PA         3.9430    8.9200    8.7050 P.3   401  ADP401      0.2231
      6  O1A        3.6820    7.7470    7.8270 O.2   401  ADP401     -0.5169
      7  O2A        4.5110   10.1520    8.0680 O.3   401  ADP401     -0.4370
      8  O3A        2.6440    9.2100    9.5800 O.3   401  ADP401     -0.2261
      9  O5'        4.8990    8.4070    9.8470 O.3   401  ADP401     -0.3111
     10  C5'        5.3230    9.2600   10.9250 C.3   401  ADP401      0.1813
     11  C4'        6.8700    9.3230   11.0050 C.3   401  ADP401      0.1821
     12  O4'        7.3280    7.9750   11.2920 O.3   401  ADP401     -0.3135
     13  C3'        7.5290    9.6710    9.6810 C.3   401  ADP401      0.2184
     14  O3'        7.6340   11.0830    9.5160 O.3   401  ADP401     -0.2174
     15  C2'        8.9180    9.0320    9.8520 C.3   401  ADP401      0.2570
     16  O2'        9.8110    9.7780   10.7230 O.3   401  ADP401     -0.2130
     17  C1'        8.5570    7.7360   10.5640 C.3   401  ADP401      0.3186
     18  N9         8.3360    6.6340    9.6050 N.pl3 401  ADP401     -0.1439
     19  C8         7.0360    6.3340    8.9960 C.3   401  ADP401      0.3377
     20  N7         7.2970    5.1190    8.2420 N.2   401  ADP401     -0.2095
     21  C5         8.5950    4.8270    8.3560 C.2   401  ADP401      0.2526
     22  C6         9.3500    3.7880    7.8210 C.2   401  ADP401      0.4393
     23  N6         8.7730    2.8880    7.0180 N.pl3 401  ADP401      0.2180
     24  N1        10.6660    3.7190    8.0960 N.2   401  ADP401      0.0021
     25  C2        11.2380    4.6350    8.8750 C.3   401  ADP401      0.5254
     26  N3        10.5560    5.6390    9.4270 N.2   401  ADP401     -0.0055
     27  C4         9.2330    5.7480    9.1920 C.2   401  ADP401      0.3518
@<TRIPOS>BOND
     1    23    22    1
     2    22    24    2
     3    22    21    1
     4     6     5    2
     5     7     5    1
     6    24    25    1
     7    20    21    2
     8    20    19    1
     9    21    27    1
    10     3     1    2
    11     5     8    1
    12     5     9    1
    13    25    26    1
    14    19    18    1
    15    27    26    2
    16    27    18    1
    17     4     1    1
    18    14    13    1
    19     8     1    1
    20    18    17    1
    21    13    15    1
    22    13    11    1
    23     1     2    1
    24     9    10    1
    25    15    17    1
    26    15    16    1
    27    17    12    1
    28    10    11    1
    29    11    12    1
