@<TRIPOS>MOLECULE
3t9f_I8P_A_1.pdb
 44 44 0 0 0
SMALL
GASTEIGER

@<TRIPOS>ATOM
      1  C1         0.8330   18.4860    9.9280 C.3   501  I8P501      0.1818
      2  C2        -0.6280   18.9530    9.7860 C.3   501  I8P501      0.1862
      3  C3        -1.3290   18.8720   11.1580 C.3   501  I8P501      0.1863
      4  C4        -0.6480   19.7830   12.1680 C.3   501  I8P501      0.1862
      5  C5         0.8470   19.4680   12.2810 C.3   501  I8P501      0.1818
      6  C6         1.5950   19.3580   10.9370 C.3   501  I8P501      0.1860
      7  O11        1.4820   18.4910    8.6550 O.3   501  I8P501     -0.3111
      8  O12       -0.6710   20.3030    9.2850 O.3   501  I8P501     -0.2675
      9  O13       -2.7110   19.2320   11.0460 O.3   501  I8P501     -0.2675
     10  O14       -1.2500   19.5530   13.4280 O.3   501  I8P501     -0.2675
     11  O15        1.4600   20.5130   13.0110 O.3   501  I8P501     -0.3111
     12  O16        2.8330   18.7530   11.2500 O.3   501  I8P501     -0.2675
     13  O21        0.1760   17.4670    6.7490 O.2   501  I8P501     -0.5169
     14  O22       -0.5050   21.8430    7.2350 O.3   501  I8P501     -0.1145
     15  O23       -3.7020   17.6240   12.7310 O.3   501  I8P501     -0.1145
     16  O24       -3.7790   20.0650   13.7170 O.3   501  I8P501     -0.1145
     17  O25        1.7910   18.9760   15.0470 O.2   501  I8P501     -0.5169
     18  O26        5.3860   18.8530   11.7630 O.3   501  I8P501     -0.1145
     19  O31        2.6930   17.1220    6.9390 O.3   501  I8P501     -0.4370
     20  O32       -1.2730   19.4310    6.8940 O.2   501  I8P501     -0.2224
     21  O33       -3.2840   16.8580   10.3090 O.2   501  I8P501     -0.2224
     22  O34       -2.1670   21.9790   13.4380 O.2   501  I8P501     -0.2224
     23  O35        0.9670   21.4060   15.2580 O.3   501  I8P501     -0.4370
     24  O36        4.1130   20.9750   10.9370 O.3   501  I8P501     -0.1145
     25  O41        1.0030   15.9420    8.5080 O.3   501  I8P501     -0.2261
     26  O42       -2.8130   21.1020    8.0250 O.3   501  I8P501     -0.1145
     27  O43       -5.2160   18.5620   10.7840 O.3   501  I8P501     -0.1145
     28  O44       -2.0940   20.5790   15.6360 O.3   501  I8P501     -0.1145
     29  O45        3.3380   20.8380   14.5050 O.3   501  I8P501     -0.2261
     30  O46        4.4600   18.9360    9.3160 O.2   501  I8P501     -0.2224
     31  O51        0.5070   13.5350    8.6170 O.3   501  I8P501     -0.1143
     32  O55        3.2600   23.4330   14.6320 O.2   501  I8P501     -0.2221
     33  O61        3.0420   14.0700    7.9870 O.2   501  I8P501     -0.2221
     34  O65        5.5000   22.0430   15.0930 O.3   501  I8P501     -0.1143
     35  O71        2.1690   14.4970   10.3880 O.3   501  I8P501     -0.1143
     36  O75        3.5980   22.0090   16.8180 O.3   501  I8P501     -0.1143
     37  PA1        1.3830   17.2470    7.5930 P.3   501  I8P501      0.2231
     38  PA2       -1.3200   20.6040    7.7970 P.3   501  I8P501      0.5327
     39  PA3       -3.8460   18.0640   11.1930 P.3   501  I8P501      0.5327
     40  PA4       -2.3070   20.5710   14.1560 P.3   501  I8P501      0.5327
     41  PA5        1.8090   20.3790   14.5760 P.3   501  I8P501      0.2231
     42  PA6        4.2440   19.3540   10.7290 P.3   501  I8P501      0.5327
     43  PB1        1.7690   14.5170    8.9470 P.3   501  I8P501      0.5373
     44  PB5        3.8850   22.0880   15.3540 P.3   501  I8P501      0.5373
@<TRIPOS>BOND
     1    13    37    2
     2    20    38    2
     3    19    37    1
     4    14    38    1
     5    37    25    1
     6    37     7    1
     7    38    26    1
     8    38     8    1
     9    33    43    2
    10    25    43    1
    11    31    43    1
    12     7     1    1
    13    43    35    1
    14     8     2    1
    15    30    42    2
    16     2     1    1
    17     2     3    1
    18     1     6    1
    19    21    39    2
    20    42    24    1
    21    42    12    1
    22    42    18    1
    23    27    39    1
    24     6    12    1
    25     6     5    1
    26     9     3    1
    27     9    39    1
    28     3     4    1
    29    39    15    1
    30     4     5    1
    31     4    10    1
    32     5    11    1
    33    11    41    1
    34    10    40    1
    35    22    40    2
    36    16    40    1
    37    40    28    1
    38    29    41    1
    39    29    44    1
    40    41    17    2
    41    41    23    1
    42    32    44    2
    43    34    44    1
    44    44    36    1
