@<TRIPOS>MOLECULE
3t9f_ADP_A_1.pdb
 27 29 0 0 0
SMALL
GASTEIGER

@<TRIPOS>ATOM
      1  PB         1.7310   10.4260    9.8620 P.3   401  ADP401      0.5373
      2  O1B        1.2320   10.3420   11.2730 O.3   401  ADP401     -0.1143
      3  O2B        0.5390   10.3730    8.8880 O.2   401  ADP401     -0.2221
      4  O3B        2.6230   11.7050    9.5880 O.3   401  ADP401     -0.1143
      5  PA         3.9090    8.7820    8.7740 P.3   401  ADP401      0.2231
      6  O1A        3.6450    7.6610    7.8650 O.2   401  ADP401     -0.5169
      7  O2A        4.5080   10.0290    8.2030 O.3   401  ADP401     -0.4370
      8  O3A        2.5480    9.0330    9.5320 O.3   401  ADP401     -0.2261
      9  O5'        4.8070    8.2950    9.9950 O.3   401  ADP401     -0.3111
     10  C5'        5.2770    9.2430   10.9750 C.3   401  ADP401      0.1813
     11  C4'        6.8220    9.2450   11.0380 C.3   401  ADP401      0.1821
     12  O4'        7.2590    7.9090   11.3570 O.3   401  ADP401     -0.3135
     13  C3'        7.4920    9.5830    9.7040 C.3   401  ADP401      0.2184
     14  O3'        7.6750   10.9950    9.5930 O.3   401  ADP401     -0.2174
     15  C2'        8.8320    8.8850    9.8650 C.3   401  ADP401      0.2570
     16  O2'        9.7160    9.6360   10.7110 O.3   401  ADP401     -0.2130
     17  C1'        8.4530    7.6080   10.6100 C.3   401  ADP401      0.3186
     18  N9         8.2410    6.4950    9.6550 N.pl3 401  ADP401     -0.1439
     19  C8         6.9360    6.1610    9.0760 C.3   401  ADP401      0.3377
     20  N7         7.2360    4.9830    8.2730 N.2   401  ADP401     -0.2095
     21  C5         8.5250    4.6770    8.4130 C.2   401  ADP401      0.2526
     22  C6         9.2820    3.6480    7.8700 C.2   401  ADP401      0.4393
     23  N6         8.6990    2.7480    7.0690 N.pl3 401  ADP401      0.2180
     24  N1        10.5960    3.5790    8.1530 N.2   401  ADP401      0.0021
     25  C2        11.1610    4.4740    8.9670 C.3   401  ADP401      0.5254
     26  N3        10.4610    5.4750    9.5080 N.2   401  ADP401     -0.0055
     27  C4         9.1480    5.6000    9.2480 C.2   401  ADP401      0.3518
@<TRIPOS>BOND
     1    23    22    1
     2     6     5    2
     3    22    24    2
     4    22    21    1
     5    24    25    1
     6     7     5    1
     7    20    21    2
     8    20    19    1
     9    21    27    1
    10     5     8    1
    11     5     9    1
    12     3     1    2
    13    25    26    1
    14    19    18    1
    15    27    26    2
    16    27    18    1
    17     8     1    1
    18     4     1    1
    19    14    13    1
    20    18    17    1
    21    13    15    1
    22    13    11    1
    23     1     2    1
    24    15    17    1
    25    15    16    1
    26     9    10    1
    27    17    12    1
    28    10    11    1
    29    11    12    1
