@<TRIPOS>MOLECULE
3t9h_KAI_B_1.pdb
 15 15 0 0 0
SMALL
GASTEIGER

@<TRIPOS>ATOM
      1  N         -4.3810   38.0810  -28.0390 N.3   401  KAI401     -0.2084
      2  CD        -4.7790   36.9590  -28.9610 C.3   401  KAI401      0.0893
      3  CD1       -5.9840   34.4180  -29.8700 C.3   401  KAI401      0.0000
      4  CD2       -4.9890   33.1800  -27.8270 C.3   401  KAI401      0.0000
      5  CA        -4.0090   37.3400  -26.7760 C.3   401  KAI401      0.1760
      6  CB        -4.8180   36.0250  -26.9390 C.3   401  KAI401      0.0363
      7  CB1       -6.3450   36.0790  -26.7410 C.3   401  KAI401      0.1018
      8  CG        -4.3320   35.6430  -28.3170 C.3   401  KAI401      0.0196
      9  CG1       -6.7420   35.5150  -25.3900 C.3   401  KAI401      0.4260
     10  CG2       -4.8270   34.2940  -28.8820 C.3   401  KAI401      0.0014
     11  C         -2.5310   37.0660  -26.6490 C.2   401  KAI401      0.3803
     12  O         -1.7250   38.0600  -27.2240 O.co2 401  KAI401     -0.2441
     13  OD1       -8.0300   35.8760  -24.9610 O.2   401  KAI401     -0.2671
     14  OD2       -5.7300   35.6590  -24.4160 O.2   401  KAI401     -0.2671
     15  OXT       -2.1550   36.4540  -25.4500 O.co2 401  KAI401     -0.2441
@<TRIPOS>BOND
     1     3    10    1
     2     2     8    1
     3     2     1    1
     4    10     8    1
     5    10     4    1
     6     8     6    1
     7     1     5    1
     8    12    11   ar
     9     6     5    1
    10     6     7    1
    11     5    11    1
    12     7     9    1
    13    11    15   ar
    14     9    13    1
    15     9    14    1
