@<TRIPOS>MOLECULE
3t9i_3T9_A_1.pdb
 24 27 0 0 0
SMALL
GASTEIGER

@<TRIPOS>ATOM
      1  N1       -22.7530   38.3290   -0.6270 N.2   401  3T9401     -0.1376
      2  C2       -22.0590   36.3650    0.1430 C.2   401  3T9401      0.0910
      3  C3       -22.2290   36.2710   -1.2190 C.1   401  3T9401      0.1076
      4  C4       -22.3760   37.6820    0.5070 C.2   401  3T9401      0.1136
      5  N5       -22.6570   37.4480   -1.7170 N.2   401  3T9401     -0.0817
      6  N6       -21.9920   35.1350   -1.9140 N.2   401  3T9401     -0.3529
      7  C7       -21.5520   34.0350   -1.2620 C.2   401  3T9401      0.1248
      8  C8       -21.6140   35.2450    0.8480 C.2   401  3T9401     -0.0060
      9  C9       -21.3290   32.7940   -2.0640 C.ar  401  3T9401      0.0299
     10  C10      -22.1970   32.5540   -3.1250 C.ar  401  3T9401      0.0425
     11  C11      -22.0700   31.4130   -3.9070 C.ar  401  3T9401      0.1774
     12  C12      -21.0710   30.5010   -3.6240 C.ar  401  3T9401      0.2293
     13  C13      -22.3970   38.3080    1.8650 C.ar  401  3T9401      0.0201
     14  C14      -21.3690   34.0690    0.1280 C.3   401  3T9401      0.0866
     15  C15      -20.3330   31.8690   -1.7710 C.ar  401  3T9401      0.0057
     16  C16      -20.2020   30.7230   -2.5530 C.ar  401  3T9401      0.0453
     17  O17      -22.9220   31.1750   -4.9580 O.3   401  3T9401     -0.4682
     18  O18      -20.9620   29.3870   -4.4050 O.3   401  3T9401     -0.2833
     19  C19      -22.3660   39.6960    1.9930 C.ar  401  3T9401      0.0016
     20  C20      -22.4870   37.5210    3.0090 C.ar  401  3T9401      0.0016
     21  C21      -24.0210   32.0450   -5.2270 C.3   401  3T9401      0.2526
     22  C22      -22.5260   38.1170    4.2710 C.ar  401  3T9401      0.0000
     23  C23      -22.4030   40.2930    3.2560 C.ar  401  3T9401      0.0000
     24  C24      -22.4830   39.5050    4.3980 C.ar  401  3T9401      0.0000
@<TRIPOS>BOND
     1    21    17    1
     2    17    11    1
     3    18    12    1
     4    11    12   ar
     5    11    10   ar
     6    12    16   ar
     7    10     9   ar
     8    16    15   ar
     9     9    15   ar
    10     9     7    1
    11     6     7    2
    12     6     3    2
    13     5     3    2
    14     5     1    1
    15     7    14    1
    16     3     2    1
    17     1     4    2
    18    14     8    1
    19     2     4    1
    20     2     8    2
    21     4    13    1
    22    13    19   ar
    23    13    20   ar
    24    19    23   ar
    25    20    22   ar
    26    23    24   ar
    27    22    24   ar
