@<TRIPOS>MOLECULE
3t9q_GL0_A_1.pdb
 12 12 0 0 0
SMALL
GASTEIGER

@<TRIPOS>ATOM
      1  O2        15.5670   23.5930  -12.2300 O.3     5  GL05       -0.2148
      2  C1        15.9850   22.3920  -10.0720 C.3     5  GL05        0.3024
      3  C2        15.3780   22.3730  -11.4920 C.3     5  GL05        0.2434
      4  C3        13.8950   21.9520  -11.4630 C.3     5  GL05        0.2199
      5  C4        13.3730   21.1920  -10.2140 C.3     5  GL05        0.2144
      6  C5        14.2750   21.0850   -8.9600 C.3     5  GL05        0.1836
      7  C6        13.9640   19.8010   -8.1330 C.3     5  GL05        0.2142
      8  O1        17.3970   22.4980  -10.1410 O.3     5  GL05       -0.1869
      9  O4        12.9950   19.8940  -10.6280 O.3     5  GL05       -0.2176
     10  O5        15.6450   21.2130   -9.3370 O.3     5  GL05       -0.3236
     11  O6        14.4130   19.7810   -6.7800 O.3     5  GL05       -0.2176
     12  O3        13.0720   23.0780  -11.6810 O.3     5  GL05       -0.2174
@<TRIPOS>BOND
     1     1     3    1
     2    12     4    1
     3     3     4    1
     4     3     2    1
     5     4     5    1
     6     9     5    1
     7     5     6    1
     8     8     2    1
     9     2    10    1
    10    10     6    1
    11     6     7    1
    12     7    11    1
