@<TRIPOS>MOLECULE
3t9t_IAQ_A_1.pdb
 32 35 0 0 0
SMALL
GASTEIGER

@<TRIPOS>ATOM
      1  C4        -1.9210    7.1390    8.4490 C.ar  800  IAQ800     -0.0030
      2  C5        -1.0540    6.9140    9.5170 C.ar  800  IAQ800     -0.0002
      3  C6        -1.1050    5.7200   10.2300 C.ar  800  IAQ800      0.0013
      4  C7        -3.7870    6.4000    6.9330 C.3   800  IAQ800      0.0324
      5  C13       -8.5800    2.6600   10.9270 C.2   800  IAQ800      0.0367
      6  C15       -8.2370    4.4370   12.5330 C.2   800  IAQ800      0.1384
      7  C21       -7.4530    1.2600    8.4700 C.ar  800  IAQ800      0.1830
      8  C24      -11.4350    3.1850   11.8580 C.3   800  IAQ800      0.1204
      9  C26       -9.0120    2.1240   14.5890 C.2   800  IAQ800      0.0551
     10  C28       -8.5850    2.6970   15.7210 C.2   800  IAQ800     -0.0041
     11  O27      -11.2890    2.3770   14.5550 O.2   800  IAQ800     -0.2696
     12  C25      -10.2510    2.5520   13.9160 C.2   800  IAQ800      0.2527
     13  C29       -9.1980    3.8920   16.3970 C.3   800  IAQ800      0.0991
     14  N30       -8.9740    3.9130   17.8350 N.3   800  IAQ800     -0.2665
     15  C32      -10.1560    3.4450   18.5460 C.3   800  IAQ800      0.0899
     16  C31       -8.6320    5.2620   18.2690 C.3   800  IAQ800      0.0899
     17  N23      -10.2270    3.0390   12.6660 N.am  800  IAQ800     -0.2516
     18  C14       -9.0070    3.3830   12.0540 C.2   800  IAQ800      0.0794
     19  F22       -8.6120    5.1550   13.6080 F     800  IAQ800     -0.2071
     20  C16       -7.0300    4.7490   11.9010 C.3   800  IAQ800      0.1182
     21  C11       -6.5970    4.0290   10.7900 C.2   800  IAQ800      0.1335
     22  N10       -5.4090    4.3760   10.2090 N.2   800  IAQ800     -0.3861
     23  C12       -7.3780    2.9840   10.2850 C.2   800  IAQ800      0.0926
     24  N17       -6.8980    2.2770    9.1550 N.ar  800  IAQ800     -0.2823
     25  N20       -6.6370    0.9180    7.4420 N.ar  800  IAQ800     -0.2219
     26  C19       -5.5540    1.7250    7.4650 C.ar  800  IAQ800      0.1221
     27  C18       -5.7420    2.6040    8.5770 C.ar  800  IAQ800      0.1306
     28  C9        -4.9450    3.7200    9.1260 C.2   800  IAQ800      0.2207
     29  N8        -3.7930    3.9970    8.4800 N.pl3 800  IAQ800     -0.1826
     30  C2        -2.9030    4.9640    8.8230 C.ar  800  IAQ800      0.0692
     31  C3        -2.8460    6.1500    8.0920 C.ar  800  IAQ800     -0.0065
     32  C1        -2.0330    4.7330    9.8930 C.ar  800  IAQ800      0.0163
@<TRIPOS>BOND
     1     4    31    1
     2    25    26   ar
     3    25     7   ar
     4    26    27   ar
     5    31     1   ar
     6    31    30   ar
     7     1     2   ar
     8     7    24   ar
     9    29    30    1
    10    29    28    1
    11    27    28    1
    12    27    24   ar
    13    30    32   ar
    14    28    22    2
    15    24    23    1
    16     2     3   ar
    17    32     3   ar
    18    22    21    2
    19    23    21    1
    20    23     5    2
    21    21    20    1
    22     5    18    1
    23     8    17    1
    24    20     6    1
    25    18     6    2
    26    18    17    1
    27     6    19    1
    28    17    12   am
    29    12    11    2
    30    12     9    1
    31     9    10    2
    32    10    13    1
    33    13    14    1
    34    14    16    1
    35    14    15    1
