@<TRIPOS>MOLECULE
3t9u_CNI_A_1.pdb
 17 18 0 0 0
SMALL
GASTEIGER

@<TRIPOS>ATOM
      1  C1        20.0930   26.4110   20.2170 C.1   400  CNI400      0.3027
      2  C2        19.2130   27.4790   20.7330 C.1   400  CNI400      0.3027
      3  C3        20.2170   27.5540   18.2050 C.ar  400  CNI400      0.1771
      4  C4        19.3850   28.5620   18.7070 C.ar  400  CNI400      0.1762
      5  C5        20.7040   27.6130   16.9020 C.ar  400  CNI400      0.0605
      6  C6        19.0430   29.6490   17.9030 C.ar  400  CNI400      0.0477
      7  C8        19.5350   29.7510   16.6190 C.ar  400  CNI400      0.0936
      8  O1        20.3760   25.4180   21.0460 O.2   400  CNI400     -0.1961
      9  O2        18.7660   27.3460   21.9700 O.2   400  CNI400     -0.1961
     10  N2        18.8940   28.5190   19.9580 N.2   400  CNI400     -0.3206
     11  N1        20.5600   26.4940   18.9570 N.2   400  CNI400     -0.3206
     12  C7        20.3940   28.6820   16.0880 C.ar  400  CNI400      0.1552
     13  N3        20.8540   28.7420   14.7490 N.pl3 400  CNI400      0.0584
     14  O3        21.8980   29.2470   14.4000 O.2   400  CNI400     -0.1261
     15  O5        20.1420   28.2830   13.8770 O.2   400  CNI400     -0.1261
     16  C         19.1450   30.6970   15.8650 C.1   400  CNI400      0.1022
     17  N17       18.7830   31.4790   15.1310 N.1   400  CNI400     -0.1908
@<TRIPOS>BOND
     1    15    13    2
     2    14    13    2
     3    13    12    1
     4    17    16    3
     5    16     7    1
     6    12     7   ar
     7    12     5   ar
     8     7     6   ar
     9     5     3   ar
    10     6     4   ar
    11     3     4   ar
    12     3    11    2
    13     4    10    2
    14    11     1    2
    15    10     2    2
    16     1     2    1
    17     1     8    2
    18     2     9    2
