@<TRIPOS>MOLECULE
3t9v_CNI_A_1.pdb
 17 18 0 0 0
SMALL
GASTEIGER

@<TRIPOS>ATOM
      1  C1       -16.0360   -5.0480  -26.7310 C.1   400  CNI400      0.3027
      2  C2       -16.3870   -4.2830  -27.9700 C.1   400  CNI400      0.3027
      3  C3       -18.0620   -4.4990  -25.8350 C.ar  400  CNI400      0.1771
      4  C4       -18.4010   -3.7500  -27.0510 C.ar  400  CNI400      0.1762
      5  C5       -18.9430   -4.5920  -24.7480 C.ar  400  CNI400      0.0605
      6  C6       -19.6410   -3.0910  -27.1420 C.ar  400  CNI400      0.0477
      7  C8       -20.5070   -3.1960  -26.0730 C.ar  400  CNI400      0.0936
      8  O1       -14.8400   -5.7410  -26.6400 O.2   400  CNI400     -0.1961
      9  O2       -15.4330   -4.1540  -28.9350 O.2   400  CNI400     -0.1961
     10  N2       -17.5260   -3.6590  -28.0720 N.2   400  CNI400     -0.3206
     11  N1       -16.8830   -5.1190  -25.7510 N.2   400  CNI400     -0.3206
     12  C7       -20.1440   -3.9760  -24.8590 C.ar  400  CNI400      0.1552
     13  N3       -21.1090   -4.0310  -23.7810 N.pl3 400  CNI400      0.0584
     14  O3       -22.1260   -4.9970  -23.6820 O.2   400  CNI400     -0.1261
     15  O5       -21.2110   -2.9250  -22.9520 O.2   400  CNI400     -0.1261
     16  C        -21.8400   -2.4710  -26.1240 C.1   400  CNI400      0.1022
     17  N17      -22.8380   -1.9420  -26.1250 N.1   400  CNI400     -0.1908
@<TRIPOS>BOND
     1     9     2    2
     2    10     2    2
     3    10     4    2
     4     2     1    1
     5     6     4   ar
     6     6     7   ar
     7     4     3   ar
     8     1     8    2
     9     1    11    2
    10    17    16    3
    11    16     7    1
    12     7    12   ar
    13     3    11    2
    14     3     5   ar
    15    12     5   ar
    16    12    13    1
    17    13    14    2
    18    13    15    2
