@<TRIPOS>MOLECULE
3t9x_GLU_B_1.pdb
 10 9 0 0 0
SMALL
GASTEIGER

@<TRIPOS>ATOM
      1  N         -4.0780  -18.3120   54.3970 N.3   274  GLU274     -0.1208
      2  CA        -3.7720  -19.3410   55.4060 C.3   274  GLU274      0.1949
      3  C         -2.2780  -19.4800   55.6860 C.2   274  GLU274      0.3819
      4  O         -1.8650  -20.3450   56.4700 O.co2 274  GLU274     -0.2441
      5  CB        -4.3320  -20.6980   54.9870 C.3   274  GLU274      0.0424
      6  CG        -5.8670  -20.8030   55.1270 C.3   274  GLU274      0.1161
      7  CD        -6.3300  -20.9160   56.5780 C.2   274  GLU274      0.3649
      8  OE1       -7.5460  -20.7410   56.8220 O.co2 274  GLU274     -0.2457
      9  OE2       -5.4910  -21.1890   57.4680 O.co2 274  GLU274     -0.2457
     10  OXT       -1.4650  -18.7450   55.1240 O.co2 274  GLU274     -0.2441
@<TRIPOS>BOND
     1     1     2    1
     2     5     6    1
     3     5     2    1
     4    10     3   ar
     5     6     7    1
     6     2     3    1
     7     3     4   ar
     8     7     8   ar
     9     7     9   ar
