@<TRIPOS>MOLECULE
3ta0_ATP_A_1.pdb
 31 33 0 0 0
SMALL
GASTEIGER

@<TRIPOS>ATOM
      1  PG       -57.7280  -16.6320  -15.4520 P.3   200  ATP200      0.5373
      2  O1G      -58.2010  -16.0980  -14.0800 O.3   200  ATP200     -0.1143
      3  O2G      -56.1890  -16.5250  -15.4880 O.3   200  ATP200     -0.1143
      4  O3G      -58.1390  -18.0420  -15.7170 O.2   200  ATP200     -0.2221
      5  PB       -58.9860  -14.5780  -17.0300 P.3   200  ATP200      0.2277
      6  O1B      -60.3390  -14.8180  -16.3440 O.3   200  ATP200     -0.4368
      7  O2B      -59.6020  -14.5910  -18.4230 O.2   200  ATP200     -0.5168
      8  O3B      -58.1100  -15.8580  -16.7680 O.3   200  ATP200     -0.2258
      9  PA       -57.2060  -12.8850  -15.7380 P.3   200  ATP200      0.2189
     10  O1A      -57.2900  -13.2740  -14.2700 O.3   200  ATP200     -0.4371
     11  O2A      -56.1310  -13.8010  -16.3900 O.2   200  ATP200     -0.5170
     12  O3A      -58.5190  -13.1720  -16.4930 O.3   200  ATP200     -0.2700
     13  O5'      -56.8100  -11.3260  -16.0130 O.3   200  ATP200     -0.3112
     14  C5'      -57.0340  -10.3010  -15.0610 C.3   200  ATP200      0.1813
     15  C4'      -56.3150   -9.0200  -15.5250 C.3   200  ATP200      0.1821
     16  O4'      -54.8890   -9.2240  -15.5190 O.3   200  ATP200     -0.3135
     17  C3'      -56.6550   -8.6000  -16.9420 C.3   200  ATP200      0.2184
     18  O3'      -57.8780   -7.9290  -17.0350 O.3   200  ATP200     -0.2174
     19  C2'      -55.4570   -7.7520  -17.3840 C.3   200  ATP200      0.2570
     20  O2'      -55.5460   -6.4160  -16.8460 O.3   200  ATP200     -0.2130
     21  C1'      -54.3440   -8.5450  -16.7130 C.3   200  ATP200      0.3186
     22  N9       -53.6640   -9.5080  -17.5430 N.pl3 200  ATP200     -0.1439
     23  C8       -53.9830  -10.8250  -17.7140 C.3   200  ATP200      0.3377
     24  N7       -53.1530  -11.4470  -18.5180 N.2   200  ATP200     -0.2095
     25  C5       -52.2430  -10.5040  -18.8920 C.2   200  ATP200      0.2526
     26  C6       -51.1000  -10.5500  -19.7370 C.2   200  ATP200      0.4393
     27  N6       -50.7080  -11.7050  -20.3640 N.pl3 200  ATP200      0.2180
     28  N1       -50.3630   -9.3850  -19.9080 N.2   200  ATP200      0.0021
     29  C2       -50.7730   -8.2340  -19.2780 C.3   200  ATP200      0.5254
     30  N3       -51.8520   -8.0830  -18.4410 N.2   200  ATP200     -0.0055
     31  C4       -52.5440   -9.2550  -18.2930 C.2   200  ATP200      0.3518
@<TRIPOS>BOND
     1    27    26    1
     2    28    26    2
     3    28    29    1
     4    26    25    1
     5    29    30    1
     6    25    24    2
     7    25    31    1
     8    24    23    1
     9    30    31    2
    10     7     5    2
    11    31    22    1
    12    23    22    1
    13    22    21    1
    14    19    17    1
    15    19    20    1
    16    19    21    1
    17    18    17    1
    18     5     8    1
    19     5    12    1
    20     5     6    1
    21    17    15    1
    22     8     1    1
    23    21    16    1
    24    12     9    1
    25    11     9    2
    26    13     9    1
    27    13    14    1
    28     9    10    1
    29     4     1    2
    30    15    16    1
    31    15    14    1
    32     3     1    1
    33     1     2    1
