@<TRIPOS>MOLECULE
3ta1_ADP_A_1.pdb
 27 29 0 0 0
SMALL
GASTEIGER

@<TRIPOS>ATOM
      1  PB         4.4500  -14.4340  -14.8080 P.3   119  ADP119      0.5373
      2  O1B        5.2200  -15.3710  -15.7710 O.2   119  ADP119     -0.2221
      3  O2B        3.6410  -15.2120  -13.8340 O.3   119  ADP119     -0.1143
      4  O3B        5.5160  -13.6110  -14.1080 O.3   119  ADP119     -0.1143
      5  PA         3.8330  -12.6540  -16.8640 P.3   119  ADP119      0.2231
      6  O1A        4.5180  -13.4840  -17.9300 O.2   119  ADP119     -0.5169
      7  O2A        2.5180  -12.0450  -17.3070 O.3   119  ADP119     -0.4370
      8  O3A        3.5200  -13.5490  -15.6440 O.3   119  ADP119     -0.2261
      9  O5'        4.8920  -11.4950  -16.4640 O.3   119  ADP119     -0.3111
     10  C5'        4.5140  -10.6570  -15.4110 C.3   119  ADP119      0.1813
     11  C4'        5.2720   -9.3360  -15.6180 C.3   119  ADP119      0.1821
     12  O4'        6.6890   -9.5730  -15.6290 O.3   119  ADP119     -0.3135
     13  C3'        4.9460   -8.7260  -16.9780 C.3   119  ADP119      0.2184
     14  O3'        3.7570   -7.9130  -16.9820 O.3   119  ADP119     -0.2174
     15  C2'        6.2390   -7.9110  -17.3100 C.3   119  ADP119      0.2570
     16  O2'        6.1580   -6.6840  -16.6060 O.3   119  ADP119     -0.2130
     17  C1'        7.3300   -8.7740  -16.6930 C.3   119  ADP119      0.3186
     18  N9         8.0440   -9.7080  -17.5980 N.pl3 119  ADP119     -0.1439
     19  C8         7.7420  -11.0130  -17.9150 C.3   119  ADP119      0.3377
     20  N7         8.6530  -11.5580  -18.7230 N.2   119  ADP119     -0.2095
     21  C5         9.5900  -10.5500  -18.9230 C.2   119  ADP119      0.2526
     22  C6        10.7950  -10.4790  -19.6850 C.2   119  ADP119      0.4393
     23  N6        11.2720  -11.5970  -20.3690 N.pl3 119  ADP119      0.2180
     24  N1        11.4920   -9.2940  -19.6930 N.2   119  ADP119      0.0021
     25  C2        11.0330   -8.2200  -19.0260 C.3   119  ADP119      0.5254
     26  N3         9.8830   -8.2170  -18.2580 N.2   119  ADP119     -0.0055
     27  C4         9.2260   -9.3930  -18.2630 C.2   119  ADP119      0.3518
@<TRIPOS>BOND
     1    23    22    1
     2    24    22    2
     3    24    25    1
     4    22    21    1
     5    25    26    1
     6    21    20    2
     7    21    27    1
     8    20    19    1
     9    27    26    2
    10    27    18    1
    11     6     5    2
    12    19    18    1
    13    18    17    1
    14    15    13    1
    15    15    17    1
    16    15    16    1
    17     7     5    1
    18    14    13    1
    19    13    11    1
    20     5     9    1
    21     5     8    1
    22    17    12    1
    23     9    10    1
    24     2     1    2
    25     8     1    1
    26    12    11    1
    27    11    10    1
    28     1     4    1
    29     1     3    1
