@<TRIPOS>MOLECULE
3ta2_AKG_A_1.pdb
 10 9 0 0 0
SMALL
GASTEIGER

@<TRIPOS>ATOM
      1  C1         0.6400   19.1920   41.7660 C.2   120  AKG120      0.4219
      2  O1         1.6010   18.8020   42.3430 O.co2 120  AKG120     -0.2373
      3  O2         0.6620   19.2880   40.4980 O.co2 120  AKG120     -0.2373
      4  C2        -0.5900   19.6300   42.4500 C.2   120  AKG120      0.2526
      5  O5        -1.5210   19.9880   41.7310 O.2   120  AKG120     -0.2843
      6  C3        -0.5770   19.6400   43.9990 C.3   120  AKG120      0.0881
      7  C4        -1.9170   19.8200   44.6500 C.3   120  AKG120      0.1224
      8  C5        -2.5500   18.4460   44.7180 C.2   120  AKG120      0.3653
      9  O3        -2.1340   17.4740   44.1190 O.co2 120  AKG120     -0.2456
     10  O4        -3.6010   18.2270   45.4750 O.co2 120  AKG120     -0.2456
@<TRIPOS>BOND
     1     3     1   ar
     2     5     4    2
     3     1     2   ar
     4     1     4    1
     5     4     6    1
     6     6     7    1
     7     9     8   ar
     8     7     8    1
     9     8    10   ar
