@<TRIPOS>MOLECULE
3ta2_ATP_A_1.pdb
 31 33 0 0 0
SMALL
GASTEIGER

@<TRIPOS>ATOM
      1  PG        -3.3650   20.6660   37.5590 P.3   121  ATP121      0.5373
      2  O1G       -2.7130   21.9260   37.0300 O.2   121  ATP121     -0.2221
      3  O2G       -2.9750   20.3200   38.9430 O.3   121  ATP121     -0.1143
      4  O3G       -4.8290   20.7150   37.4500 O.3   121  ATP121     -0.1143
      5  PB        -1.5870   18.6000   36.7260 P.3   121  ATP121      0.2277
      6  O1B       -0.9740   18.3180   35.3500 O.2   121  ATP121     -0.5168
      7  O2B       -0.6300   19.3360   37.6700 O.3   121  ATP121     -0.4368
      8  O3B       -2.9010   19.4230   36.6070 O.3   121  ATP121     -0.2258
      9  PA        -2.4890   16.9130   38.8100 P.3   121  ATP121      0.2189
     10  O1A       -1.8270   17.8030   39.7800 O.3   121  ATP121     -0.4371
     11  O2A       -3.9820   16.8710   38.8740 O.2   121  ATP121     -0.5170
     12  O3A       -1.9950   17.2320   37.3750 O.3   121  ATP121     -0.2700
     13  O5'       -1.9230   15.3850   38.9880 O.3   121  ATP121     -0.3112
     14  C5'       -2.7090   14.4110   39.7070 C.3   121  ATP121      0.1813
     15  C4'       -1.8130   13.1440   39.9230 C.3   121  ATP121      0.1821
     16  O4'       -1.5930   12.6800   38.5750 O.3   121  ATP121     -0.3135
     17  C3'       -0.4010   13.4420   40.4780 C.3   121  ATP121      0.2184
     18  O3'       -0.3520   13.6450   41.8650 O.3   121  ATP121     -0.2174
     19  C2'        0.3870   12.1810   39.9890 C.3   121  ATP121      0.2570
     20  O2'        0.0570   11.0590   40.8230 O.3   121  ATP121     -0.2130
     21  C1'       -0.2790   12.0910   38.5640 C.3   121  ATP121      0.3186
     22  N9         0.4760   12.7010   37.5090 N.pl3 121  ATP121     -0.1439
     23  C8         0.5070   14.0410   37.1360 C.3   121  ATP121      0.3377
     24  N7         1.2620   14.2130   36.1200 N.2   121  ATP121     -0.2095
     25  C5         1.8490   12.9790   35.8350 C.2   121  ATP121      0.2526
     26  C6         2.8000   12.5690   34.8220 C.2   121  ATP121      0.4393
     27  N6         3.3390   13.3730   33.8440 N.pl3 121  ATP121      0.2180
     28  N1         3.1980   11.2900   34.8300 N.2   121  ATP121      0.0021
     29  C2         2.6120   10.4090   35.7470 C.3   121  ATP121      0.5254
     30  N3         1.7070   10.7250   36.7450 N.2   121  ATP121     -0.0055
     31  C4         1.3840   12.0280   36.7060 C.2   121  ATP121      0.3518
@<TRIPOS>BOND
     1    27    26    1
     2    26    28    2
     3    26    25    1
     4    28    29    1
     5     6     5    2
     6    29    30    1
     7    25    24    2
     8    25    31    1
     9    24    23    1
    10     8     5    1
    11     8     1    1
    12    31    30    2
    13    31    22    1
    14     5    12    1
    15     5     7    1
    16     2     1    2
    17    23    22    1
    18    12     9    1
    19     4     1    1
    20    22    21    1
    21     1     3    1
    22    21    16    1
    23    21    19    1
    24    16    15    1
    25     9    11    2
    26     9    13    1
    27     9    10    1
    28    13    14    1
    29    14    15    1
    30    15    17    1
    31    19    17    1
    32    19    20    1
    33    17    18    1
