@<TRIPOS>MOLECULE
3ta3_FUC_A_1.pdb
 10 10 0 0 0
SMALL
GASTEIGER

@<TRIPOS>ATOM
      1  C1        24.6030   10.0110   -9.2530 C.3   513  FUC513      0.1776
      2  C2        25.8680    9.2070   -9.6230 C.3   513  FUC513      0.2141
      3  C3        26.3150    9.5390  -11.0580 C.3   513  FUC513      0.2172
      4  C4        26.5920   11.0310  -11.1240 C.3   513  FUC513      0.2116
      5  C5        25.2760   11.7450  -10.8240 C.3   513  FUC513      0.1483
      6  C6        25.4560   13.2580  -10.9290 C.3   513  FUC513      0.0349
      7  O2        25.6690    7.8180   -9.4380 O.3   513  FUC513     -0.2176
      8  O3        27.4390    8.7990  -11.4980 O.3   513  FUC513     -0.2175
      9  O4        27.5670   11.3980  -10.1630 O.3   513  FUC513     -0.2177
     10  O5        24.7940   11.3980   -9.5270 O.3   513  FUC513     -0.3508
@<TRIPOS>BOND
     1     8     3    1
     2     4     3    1
     3     4     5    1
     4     4     9    1
     5     3     2    1
     6     6     5    1
     7     5    10    1
     8     2     7    1
     9     2     1    1
    10    10     1    1
