@<TRIPOS>MOLECULE
3ta3_NAG_A_1.pdb
 14 14 0 0 0
SMALL
GASTEIGER

@<TRIPOS>ATOM
      1  C1        45.4870   41.5120  -17.6850 C.3   500  NAG500      0.1665
      2  C2        46.1560   42.8830  -17.8190 C.3   500  NAG500      0.1576
      3  C3        47.2730   42.9350  -18.8670 C.3   500  NAG500      0.2069
      4  C4        48.2060   41.7360  -18.7330 C.3   500  NAG500      0.2134
      5  C5        47.3330   40.4840  -18.8430 C.3   500  NAG500      0.1809
      6  C6        48.1600   39.1990  -18.9560 C.3   500  NAG500      0.2141
      7  C7        45.0480   45.0280  -17.4730 C.2   500  NAG500      0.2420
      8  C8        43.9210   45.9270  -17.8940 C.3   500  NAG500      0.0964
      9  N2        45.1310   43.8670  -18.1200 N.am  500  NAG500     -0.2019
     10  O3        47.9920   44.1270  -18.6820 O.3   500  NAG500     -0.2184
     11  O4        49.2400   41.7670  -19.7010 O.3   500  NAG500     -0.2176
     12  O5        46.4490   40.4610  -17.7270 O.3   500  NAG500     -0.3489
     13  O6        48.4440   38.6450  -17.6890 O.3   500  NAG500     -0.2176
     14  O7        45.8330   45.3680  -16.5850 O.2   500  NAG500     -0.2733
@<TRIPOS>BOND
     1    11     4    1
     2     6     5    1
     3     6    13    1
     4     3     4    1
     5     3    10    1
     6     3     2    1
     7     5     4    1
     8     5    12    1
     9     9     2    1
    10     9     7   am
    11     8     7    1
    12     2     1    1
    13    12     1    1
    14     7    14    2
