@<TRIPOS>MOLECULE
3ta4_TO2_F_1.pdb
 24 25 0 0 0
SMALL
GASTEIGER

@<TRIPOS>ATOM
      1  CAA        3.3150  -49.1670   37.7050 C.3   312  TO2312      0.2526
      2  CAB       -5.0220  -53.1490   43.9700 C.3   312  TO2312      0.2526
      3  CAC       -3.8840  -49.0570   44.6440 C.3   312  TO2312      0.2526
      4  OAD       -1.3030  -48.4670   39.5690 O.3   312  TO2312     -0.2163
      5  OAE        1.4720  -50.1320   42.2630 O.3   312  TO2312     -0.2143
      6  CAF        3.3500  -53.2530   37.3530 C.ar  312  TO2312      0.0033
      7  CAG        2.4950  -54.0570   38.0940 C.ar  312  TO2312      0.0033
      8  CAH        3.2620  -51.8720   37.4690 C.ar  312  TO2312      0.0400
      9  CAI        1.5650  -53.4750   38.9410 C.ar  312  TO2312      0.0400
     10  CAJ       -0.7910  -52.2170   42.2180 C.ar  312  TO2312      0.0016
     11  CAK       -1.7350  -53.0110   42.8640 C.ar  312  TO2312      0.0398
     12  CAL       -1.8070  -50.2580   43.1630 C.ar  312  TO2312      0.0383
     13  CAM       -1.1100  -49.8830   39.5300 C.3   312  TO2312      0.2283
     14  OAN        2.3030  -49.9190   38.3780 O.3   312  TO2312     -0.4684
     15  OAO       -3.6360  -53.2220   44.2970 O.3   312  TO2312     -0.4684
     16  OAP       -3.7170  -50.4730   44.5960 O.3   312  TO2312     -0.4684
     17  OAQ        0.5080  -51.6150   39.9360 O.3   312  TO2312     -0.4704
     18  CAR       -0.8240  -50.8350   42.3610 C.ar  312  TO2312      0.0146
     19  CAS        2.3280  -51.2880   38.3190 C.ar  312  TO2312      0.1724
     20  CAT       -2.7160  -52.4290   43.6590 C.ar  312  TO2312      0.1724
     21  CAU       -2.7510  -51.0500   43.8110 C.ar  312  TO2312      0.1721
     22  CAV        1.4670  -52.0930   39.0660 C.ar  312  TO2312      0.1723
     23  CAW        0.1710  -49.9620   41.6800 C.3   312  TO2312      0.2166
     24  CAX        0.2220  -50.2390   40.1790 C.3   312  TO2312      0.2330
@<TRIPOS>BOND
     1     6     8   ar
     2     6     7   ar
     3     8    19   ar
     4     1    14    1
     5     7     9   ar
     6    19    14    1
     7    19    22   ar
     8     9    22   ar
     9    22    17    1
    10    13     4    1
    11    13    24    1
    12    17    24    1
    13    24    23    1
    14    23     5    1
    15    23    18    1
    16    10    18   ar
    17    10    11   ar
    18    18    12   ar
    19    11    20   ar
    20    12    21   ar
    21    20    21   ar
    22    20    15    1
    23    21    16    1
    24     2    15    1
    25    16     3    1
