@<TRIPOS>MOLECULE
3tah_BGO_A_1.pdb
 38 41 0 0 0
SMALL
GASTEIGER

@<TRIPOS>ATOM
      1  C'         6.5850    8.6180    4.3290 C.2   300  BGO300      0.3425
      2  N1        12.5030   10.8110   -1.7640 N.2   300  BGO300     -0.2485
      3  C2        12.4130   10.4900   -0.3910 C.1   300  BGO300      0.2531
      4  N2        13.4590   10.6780    0.4030 N.pl3 300  BGO300     -0.0226
      5  N3        11.2690    9.9880    0.1010 N.2   300  BGO300     -0.3074
      6  C4        10.2120    9.8080   -0.7200 C.2   300  BGO300      0.2300
      7  C5        10.2420   10.1080   -2.0880 C.2   300  BGO300      0.2182
      8  C6        11.4180   10.6290   -2.6280 C.1   300  BGO300      0.2372
      9  O6        11.5230   10.9260   -3.8250 O.2   300  BGO300     -0.2069
     10  N7         9.0390    9.8070   -2.5770 N.2   300  BGO300     -0.2322
     11  C8         8.2690    9.3330   -1.5950 C.3   300  BGO300      0.2246
     12  N9         8.9990    9.3470   -0.4720 N.pl3 300  BGO300     -0.2353
     13  PA         4.3970    7.0610   -1.2290 P.3   300  BGO300      0.2231
     14  PB         3.2620    5.0160   -2.9690 P.3   300  BGO300      0.5373
     15  C1'        7.2130    8.6300    5.7400 C.ar  300  BGO300      0.0904
     16  O1'        5.5120    9.1660    4.1120 O.2   300  BGO300     -0.2448
     17  O1A        4.1590    8.1930   -2.1290 O.2   300  BGO300     -0.5169
     18  C1B        8.6730    8.9270    0.8570 C.3   300  BGO300      0.2305
     19  O1B        3.9310    4.4700   -4.1500 O.2   300  BGO300     -0.2221
     20  C2'        6.7020    9.4520    6.7550 C.ar  300  BGO300      0.0716
     21  N2'        5.6500   10.2540    6.5650 N.pl3 300  BGO300     -0.2355
     22  O2'        7.2400   10.4050    1.9930 O.3   300  BGO300     -0.2146
     23  O2A        3.4480    6.7950   -0.0980 O.3   300  BGO300     -0.4370
     24  C2B        7.3400    9.1410    1.3680 C.3   300  BGO300      0.2406
     25  O2B        2.2580    6.0290   -3.2410 O.3   300  BGO300     -0.1143
     26  C3'        7.3140    9.4210    8.0040 C.ar  300  BGO300      0.0163
     27  O3'        7.2100    8.0390    3.3400 O.3   300  BGO300     -0.4437
     28  O3A        4.4740    5.6810   -2.0850 O.3   300  BGO300     -0.2261
     29  C3B        6.5360    8.1400    2.0710 C.3   300  BGO300      0.2329
     30  O3B        2.7930    3.9570   -2.0170 O.3   300  BGO300     -0.1143
     31  C4'        8.4080    8.6100    8.2390 C.ar  300  BGO300      0.0013
     32  O4'        8.5390    7.4630    0.7700 O.3   300  BGO300     -0.3314
     33  C4B        7.2420    6.9640    1.3990 C.3   300  BGO300      0.1895
     34  C5'        8.9240    7.7940    7.2400 C.ar  300  BGO300      0.0003
     35  O5'        5.8850    7.1960   -0.6280 O.3   300  BGO300     -0.3111
     36  C5B        6.4300    6.2490    0.3040 C.3   300  BGO300      0.1824
     37  C6'        8.3180    7.8070    5.9780 C.ar  300  BGO300      0.0077
     38  CM'        4.7910   10.7300    7.6650 C.3   300  BGO300      0.1355
@<TRIPOS>BOND
     1    19    14    2
     2     9     8    2
     3    25    14    1
     4    14    28    1
     5    14    30    1
     6     8     7    1
     7     8     2    2
     8    10     7    2
     9    10    11    1
    10    17    13    2
    11     7     6    1
    12    28    13    1
    13     2     3    2
    14    11    12    1
    15    13    35    1
    16    13    23    1
    17     6    12    1
    18     6     5    2
    19    35    36    1
    20    12    18    1
    21     3     5    2
    22     3     4    1
    23    36    33    1
    24    32    18    1
    25    32    33    1
    26    18    24    1
    27    24    22    1
    28    24    29    1
    29    33    29    1
    30    29    27    1
    31    27     1    1
    32    16     1    2
    33     1    15    1
    34    15    37   ar
    35    15    20   ar
    36    37    34   ar
    37    21    20    1
    38    21    38    1
    39    20    26   ar
    40    34    31   ar
    41    26    31   ar
