@<TRIPOS>MOLECULE
3taj_NBO_A_1.pdb
 17 18 0 0 0
SMALL
GASTEIGER

@<TRIPOS>ATOM
      1  C1         7.5330   18.3450   19.7110 C.3   700  NBO700      0.0723
      2  O1         9.9150   18.7430   19.6970 O.2   700  NBO700     -0.2960
      3  C2         8.9060   18.4630   19.1180 C.2   700  NBO700      0.1514
      4  C3         9.1020   18.2240   17.6450 C.3   700  NBO700      0.0692
      5  C4        10.6290   18.1210   17.6080 C.3   700  NBO700      0.0341
      6 C10'       10.2760   15.9840   16.3550 C.ar  700  NBO700     -0.0043
      7  C1'       11.1270   16.9050   16.8920 C.ar  700  NBO700     -0.0218
      8 C11'       14.8480   12.7000   12.8680 C.3   700  NBO700      0.2525
      9  C2'       12.4710   16.7720   16.7820 C.ar  700  NBO700     -0.0043
     10  O2'       14.6180   12.5190   14.2100 O.3   700  NBO700     -0.4714
     11  C3'       13.0060   15.6930   16.1260 C.ar  700  NBO700     -0.0001
     12  C4'       14.3730   15.5760   16.0420 C.ar  700  NBO700      0.0031
     13  C5'       14.8950   14.5210   15.3810 C.ar  700  NBO700      0.0369
     14  C6'       14.0850   13.5700   14.8650 C.ar  700  NBO700      0.1387
     15  C7'       12.7230   13.6990   14.9360 C.ar  700  NBO700      0.0369
     16  C8'       12.1650   14.7650   15.5830 C.ar  700  NBO700      0.0030
     17  C9'       10.7950   14.8900   15.7000 C.ar  700  NBO700     -0.0002
@<TRIPOS>BOND
     1     8    10    1
     2    10    14    1
     3    14    15   ar
     4    14    13   ar
     5    15    16   ar
     6    13    12   ar
     7    16    17   ar
     8    16    11   ar
     9    17     6   ar
    10    12    11   ar
    11    11     9   ar
    12     6     7   ar
    13     9     7   ar
    14     7     5    1
    15     5     4    1
    16     4     3    1
    17     3     2    2
    18     3     1    1
