@<TRIPOS>MOLECULE
3tam_M06_A_1.pdb
 28 31 0 0 0
SMALL
GASTEIGER

@<TRIPOS>ATOM
      1  C         10.8920   12.2740   15.8080 C.ar  561  M06561      0.0190
      2  N          8.0650   12.4240   15.3740 N.ar  561  M06561     -0.2858
      3  O         10.6010   11.5280   17.9940 O.3   561  M06561     -0.4489
      4 CL         10.2250   15.8730   20.5460 Cl    561  M06561     -0.0821
      5  C1        10.3260   12.7320   14.5600 C.ar  561  M06561      0.0177
      6  C2         8.9730   12.7600   14.3940 C.ar  561  M06561      0.0785
      7  C3         8.5070   11.9540   16.6470 C.ar  561  M06561      0.2955
      8  C4        10.0440   11.9130   16.8010 C.ar  561  M06561      0.1971
      9  C5        10.3600   12.1910   19.1510 C.ar  561  M06561      0.1470
     10  C6        12.3960   12.2560   15.8910 C.3   561  M06561      0.0344
     11  C7        10.1040   11.3690   20.2570 C.ar  561  M06561      0.0478
     12  C8         9.9160   11.9710   21.5020 C.ar  561  M06561      0.0723
     13  C9         9.9460   13.4050   21.6650 C.ar  561  M06561      0.0219
     14  C10       10.1850   14.1810   20.4870 C.ar  561  M06561      0.0614
     15  C11       10.4020   13.5830   19.2260 C.ar  561  M06561      0.0489
     16  O12        7.7480   11.5940   17.5800 O.2   561  M06561     -0.2636
     17  C13        6.4720   11.0820   14.4480 C.2   561  M06561      0.1135
     18  N14        6.7570   10.8120   13.1260 N.2   561  M06561     -0.1409
     19  N15        6.5790    9.4780   13.0210 N.2   561  M06561     -0.0938
     20  C16        6.2210    8.8770   14.1930 C.1   561  M06561      0.0578
     21  C17        6.1310    9.8900   15.1740 C.2   561  M06561      0.0813
     22  N18        5.9940    7.5660   14.4010 N.2   561  M06561     -0.1908
     23  C19        5.6820    7.2510   15.7350 C.2   561  M06561      0.1096
     24  C20        5.5270    8.1440   16.8230 C.2   561  M06561      0.0222
     25  C21        5.7690    9.5060   16.5260 C.2   561  M06561      0.0130
     26  C22        6.6150   12.4790   15.0240 C.3   561  M06561      0.1574
     27  C23        9.6830   11.1460   22.6000 C.1   561  M06561      0.1005
     28  N24        9.4950   10.4750   23.4920 N.1   561  M06561     -0.1908
@<TRIPOS>BOND
     1    19    18    1
     2    19    20    2
     3    18    17    2
     4    20    22    2
     5    20    21    1
     6     6     5   ar
     7     6     2   ar
     8    22    23    1
     9    17    26    1
    10    17    21    1
    11     5     1   ar
    12    26     2    1
    13    21    25    2
    14     2     7   ar
    15    23    24    2
    16     1    10    1
    17     1     8   ar
    18    25    24    1
    19     7     8   ar
    20     7    16    2
    21     8     3    1
    22     3     9    1
    23     9    15   ar
    24     9    11   ar
    25    15    14   ar
    26    11    12   ar
    27    14     4    1
    28    14    13   ar
    29    12    13   ar
    30    12    27    1
    31    27    28    3
