@<TRIPOS>MOLECULE
3tan_DCP_A_1.pdb
 32 33 0 0 0
SMALL
GASTEIGER

@<TRIPOS>ATOM
      1  N1        -7.8370   35.0340   23.2670 N.am  201  DCP201     -0.1978
      2  C2        -7.3300   34.3160   22.2590 C.1   201  DCP201      0.2745
      3  N3        -8.0890   33.5870   21.4340 N.2   201  DCP201     -0.3067
      4  C4        -9.4160   33.5470   21.6200 C.2   201  DCP201      0.1840
      5  C5       -10.0030   34.2850   22.6620 C.2   201  DCP201      0.0061
      6  C6        -9.1760   35.0380   23.4990 C.2   201  DCP201      0.0157
      7  O2        -6.0970   34.3370   22.1260 O.2   201  DCP201     -0.1926
      8  N4       -10.1670   32.7860   20.8120 N.pl3 201  DCP201     -0.3326
      9  C1'       -6.8900   35.8330   24.1190 C.3   201  DCP201      0.1424
     10  C2'       -6.4410   37.0760   23.4090 C.3   201  DCP201      0.0199
     11  C3'       -7.3470   38.0290   23.8820 C.3   201  DCP201      0.0875
     12  C4'       -7.5120   37.6460   25.2970 C.3   201  DCP201      0.1107
     13  O4'       -7.4760   36.2460   25.3100 O.3   201  DCP201     -0.3495
     14  O3'       -6.8400   39.3020   23.7730 O.3   201  DCP201     -0.3890
     15  C5'       -8.7990   38.1310   25.8340 C.3   201  DCP201      0.0879
     16  O5'       -9.8790   37.4570   25.4890 O.3   201  DCP201     -0.2809
     17  PA       -11.3220   38.0340   25.6540 P.3   201  DCP201      0.5320
     18  O1A      -12.2650   37.1980   24.9020 O.2   201  DCP201     -0.2224
     19  O2A      -11.3570   39.3660   25.1520 O.3   201  DCP201     -0.1145
     20  O3A      -11.7230   37.9880   27.1170 O.3   201  DCP201     -0.1145
     21  H5       -10.9750   34.2680   22.8000 H     201  DCP201      0.0676
     22  H6        -9.5520   35.5650   24.2180 H     201  DCP201      0.0794
     23 HN41       -9.7710   32.3050   20.1330 H     201  DCP201      0.1447
     24 HN42      -11.1270   32.7400   20.9450 H     201  DCP201      0.1447
     25  H1'       -6.0860   35.1910   24.3280 H     201  DCP201      0.0820
     26 H2'1       -5.5180   37.3080   23.6590 H     201  DCP201      0.0333
     27 H2'2       -6.5320   36.9700   22.4170 H     201  DCP201      0.0333
     28  H3'       -8.2670   37.9950   23.3840 H     201  DCP201      0.0621
     29  H4'       -6.7300   38.0300   25.7810 H     201  DCP201      0.0646
     30 HO3'       -7.0960   39.6590   22.9810 H     201  DCP201      0.2099
     31 H5'1       -8.9150   39.0480   25.5520 H     201  DCP201      0.0592
     32 H5'2       -8.7380   38.1190   26.8370 H     201  DCP201      0.0592
@<TRIPOS>BOND
     1    23     8    1
     2     8    24    1
     3     8     4    1
     4     3     4    2
     5     3     2    2
     6     4     5    1
     7     7     2    2
     8     2     1   am
     9    27    10    1
    10     5    21    1
    11     5     6    2
    12    30    14    1
    13     1     6    1
    14     1     9    1
    15    28    11    1
    16    10    26    1
    17    10    11    1
    18    10     9    1
    19     6    22    1
    20    14    11    1
    21    11    12    1
    22     9    25    1
    23     9    13    1
    24    18    17    2
    25    19    17    1
    26    12    13    1
    27    12    29    1
    28    12    15    1
    29    16    17    1
    30    16    15    1
    31    31    15    1
    32    17    20    1
    33    15    32    1
