@<TRIPOS>MOLECULE
3tao_PGH_A_1.pdb
 10 9 0 0 0
SMALL
GASTEIGER

@<TRIPOS>ATOM
      1  C1       -22.2280    7.3000   12.3210 C.2   268  PGH268      0.1177
      2  C2       -23.7250    7.4090   12.4640 C.3   268  PGH268      0.2044
      3  N2       -21.6150    6.3080   12.9490 N.am  268  PGH268     -0.2004
      4  O2       -20.3250    5.9940   12.6460 O.3   268  PGH268     -0.4026
      5  O1       -21.5370    8.2480   11.5620 O.2   268  PGH268     -0.5374
      6  O1P      -24.0590    8.7400   12.8080 O.3   268  PGH268     -0.2633
      7  O2P      -25.5210   10.4580   13.8580 O.3   268  PGH268     -0.1145
      8  O3P      -26.1630    8.0020   14.0740 O.3   268  PGH268     -0.1145
      9  O4P      -26.4470    9.2160   11.9200 O.2   268  PGH268     -0.2224
     10  P        -25.6050    9.0890   13.1770 P.3   268  PGH268      0.5330
@<TRIPOS>BOND
     1     5     1    2
     2     9    10    2
     3     1     2    1
     4     1     3   am
     5     2     6    1
     6     4     3    1
     7     6    10    1
     8    10     7    1
     9    10     8    1
