@<TRIPOS>MOLECULE
3tax_UDP_A_1.pdb
 25 26 0 0 0
SMALL
GASTEIGER

@<TRIPOS>ATOM
      1  N1        34.0020   27.8910   14.4030 N.am  1212  UDP1212    -0.1766
      2  C2        35.1080   27.4060   14.9990 C.1   1212  UDP1212     0.2845
      3  N3        35.7040   28.1590   15.9160 N.2   1212  UDP1212    -0.2452
      4  C4        35.2010   29.3940   16.3510 C.1   1212  UDP1212     0.2182
      5  C5        34.0550   29.9090   15.7380 C.2   1212  UDP1212     0.1242
      6  C6        33.4720   29.1550   14.7520 C.2   1212  UDP1212     0.0929
      7  O2        35.6030   26.2910   14.7220 O.2   1212  UDP1212    -0.1918
      8  O4        35.7540   30.0170   17.2230 O.2   1212  UDP1212    -0.2085
      9  C1'       33.3810   27.1790   13.2760 C.3   1212  UDP1212     0.2401
     10  C2'       31.8800   26.8670   13.4070 C.3   1212  UDP1212     0.2319
     11  O2'       31.7640   25.6460   14.1660 O.3   1212  UDP1212    -0.2157
     12  C3'       31.5640   26.6150   11.8710 C.3   1212  UDP1212     0.2158
     13  C4'       32.5020   27.6720   11.1720 C.3   1212  UDP1212     0.1799
     14  O4'       33.4750   28.0860   12.1310 O.3   1212  UDP1212    -0.3320
     15  O3'       31.9820   25.2540   11.4270 O.3   1212  UDP1212    -0.2175
     16  C5'       31.7990   28.9370   10.6070 C.3   1212  UDP1212     0.1813
     17  O5'       31.1990   28.4800    9.4180 O.3   1212  UDP1212    -0.3111
     18  PA        30.0290   29.4410    8.9100 P.3   1212  UDP1212     0.2231
     19  O1A       29.6350   28.9660    7.6010 O.2   1212  UDP1212    -0.5169
     20  O2A       30.3590   30.9670    8.9920 O.3   1212  UDP1212    -0.4370
     21  O3A       28.8940   29.1340   10.0940 O.3   1212  UDP1212    -0.2261
     22  PB        27.3430   29.2940    9.8410 P.3   1212  UDP1212     0.5373
     23  O1B       26.9230   29.4660   11.2210 O.3   1212  UDP1212    -0.1143
     24  O2B       26.6850   28.0230    9.1750 O.3   1212  UDP1212    -0.1143
     25  O3B       27.0090   30.5770    8.9950 O.2   1212  UDP1212    -0.2221
@<TRIPOS>BOND
     1    19    18    2
     2    18    20    1
     3    18    17    1
     4    18    21    1
     5    25    22    2
     6    24    22    1
     7    17    16    1
     8    22    21    1
     9    22    23    1
    10    16    13    1
    11    13    12    1
    12    13    14    1
    13    15    12    1
    14    12    10    1
    15    14     9    1
    16     9    10    1
    17     9     1    1
    18    10    11    1
    19     1     6    1
    20     1     2   am
    21     7     2    2
    22     6     5    2
    23     2     3    2
    24     5     4    1
    25     3     4    2
    26     4     8    2
