@<TRIPOS>MOLECULE
3tay_MN0_A_1.pdb
 23 23 0 0 0
SMALL
GASTEIGER

@<TRIPOS>ATOM
      1  C1       -33.0300   39.1750   21.9960 C.2   1000  MN01000     0.4152
      2  C2       -32.9430   40.7070   21.8010 C.3   1000  MN01000     0.2863
      3  O2       -33.5240   41.0360   20.5190 O.3   1000  MN01000    -0.3233
      4  C3       -33.7840   41.4780   22.8470 C.3   1000  MN01000     0.1028
      5  C4       -33.0640   41.6730   24.2000 C.3   1000  MN01000     0.1797
      6  O4       -33.7510   42.6740   24.9500 O.3   1000  MN01000    -0.2210
      7  C5       -31.5870   42.0920   24.0570 C.3   1000  MN01000     0.1555
      8  N5       -30.9630   42.1400   25.4010 N.am  1000  MN01000    -0.1998
      9  C6       -30.8580   41.1390   23.0990 C.3   1000  MN01000     0.1733
     10  O6       -31.5680   41.1690   21.8130 O.3   1000  MN01000    -0.3239
     11  C7       -29.3980   41.4580   22.7390 C.3   1000  MN01000     0.2135
     12  O7       -29.2970   42.8390   22.3530 O.3   1000  MN01000    -0.2176
     13  C8       -28.9030   40.5570   21.5950 C.3   1000  MN01000     0.2173
     14  O8       -29.3290   39.2050   21.8000 O.3   1000  MN01000    -0.2175
     15  C9       -27.3820   40.5780   21.4730 C.3   1000  MN01000     0.2175
     16  O9       -27.0150   39.7480   20.3720 O.3   1000  MN01000    -0.2175
     17  C10      -30.0060   43.0140   25.7480 C.2   1000  MN01000     0.2751
     18  O10      -29.5170   43.8460   24.9890 O.2   1000  MN01000    -0.2705
     19  C11      -29.4990   42.9240   27.1940 C.3   1000  MN01000     0.2680
     20  O11      -30.1850   41.9260   27.9510 O.3   1000  MN01000    -0.2098
     21  C12      -32.9670   40.2900   19.4210 C.3   1000  MN01000     0.1772
     22  O1B      -31.9570   38.5340   22.0650 O.co2 1000  MN01000    -0.2402
     23  O1A      -34.1700   38.6740   22.0320 O.co2 1000  MN01000    -0.2402
@<TRIPOS>BOND
     1    21     3    1
     2    16    15    1
     3     3     2    1
     4    15    13    1
     5    13    14    1
     6    13    11    1
     7     2    10    1
     8     2     1    1
     9     2     4    1
    10    10     9    1
    11     1    23   ar
    12     1    22   ar
    13    12    11    1
    14    11     9    1
    15     4     5    1
    16     9     7    1
    17     7     5    1
    18     7     8    1
    19     5     6    1
    20    18    17    2
    21     8    17   am
    22    17    19    1
    23    19    20    1
