@<TRIPOS>MOLECULE
3taz_DA_B_1.pdb
 22 24 0 0 0
SMALL
GASTEIGER

@<TRIPOS>ATOM
      1  OP3       57.9820   76.8350  105.0980 O.3   453  DA453      -0.1145
      2  P         57.6100   75.4240  104.8510 P.3   453  DA453       0.5327
      3  OP1       58.4480   74.9530  103.7310 O.2   453  DA453      -0.2224
      4  OP2       57.6860   74.7170  106.1450 O.3   453  DA453      -0.1145
      5  O5'       56.0820   75.3740  104.3590 O.3   453  DA453      -0.2675
      6  C5'       55.2810   74.1850  104.4860 C.3   453  DA453       0.1859
      7  C4'       53.9880   74.2540  103.6790 C.3   453  DA453       0.1796
      8  O4'       54.3060   74.2460  102.2690 O.3   453  DA453      -0.3155
      9  C3'       53.0430   73.0680  103.8230 C.3   453  DA453       0.1883
     10  O3'       51.7330   73.4060  103.4010 O.3   453  DA453      -0.2202
     11  C2'       53.6570   72.0470  102.8750 C.3   453  DA453       0.1151
     12  C1'       54.2270   72.9250  101.7630 C.3   453  DA453       0.2873
     13  N9        55.5730   72.5560  101.3250 N.pl3 453  DA453      -0.1460
     14  C8        56.3520   73.2690  100.4540 C.3   453  DA453       0.3377
     15  N7        57.5270   72.7290  100.2280 N.2   453  DA453      -0.2095
     16  C5        57.5220   71.5800  101.0070 C.2   453  DA453       0.2526
     17  C6        58.4830   70.5670  101.2080 C.2   453  DA453       0.4393
     18  N6        59.6770   70.5610  100.6110 N.pl3 453  DA453       0.2180
     19  N1        58.1690   69.5600  102.0500 N.2   453  DA453       0.0021
     20  C2        56.9730   69.5680  102.6460 C.3   453  DA453       0.5254
     21  N3        55.9900   70.4610  102.5350 N.2   453  DA453      -0.0055
     22  C4        56.3250   71.4560  101.6930 C.2   453  DA453       0.3518
@<TRIPOS>BOND
     1    15    14    1
     2    15    16    2
     3    14    13    1
     4    18    17    1
     5    16    17    1
     6    16    22    1
     7    17    19    2
     8    13    22    1
     9    13    12    1
    10    22    21    2
    11    12     8    1
    12    12    11    1
    13    19    20    1
    14     8     7    1
    15    21    20    1
    16    11     9    1
    17    10     9    1
    18     7     9    1
    19     7     6    1
    20     3     2    2
    21     5     6    1
    22     5     2    1
    23     2     1    1
    24     2     4    1
