@<TRIPOS>MOLECULE
3tb0_MN0_A_1.pdb
 23 23 0 0 0
SMALL
GASTEIGER

@<TRIPOS>ATOM
      1  C1       -14.1010   19.9450  -18.0620 C.2   301  MN0301      0.4152
      2  C2       -12.9610   19.8760  -19.1080 C.3   301  MN0301      0.2863
      3  O2       -13.4440   20.0960  -20.4690 O.3   301  MN0301     -0.3233
      4  C3       -11.8640   20.9580  -18.8010 C.3   301  MN0301      0.1028
      5  C4       -10.9290   20.5410  -17.6390 C.3   301  MN0301      0.1797
      6  O4        -9.8210   21.4550  -17.5570 O.3   301  MN0301     -0.2210
      7  C5       -10.4220   19.1010  -17.8150 C.3   301  MN0301      0.1555
      8  N5        -9.7210   18.7330  -16.5870 N.am  301  MN0301     -0.1998
      9  C6       -11.6510   18.1520  -17.9880 C.3   301  MN0301      0.1733
     10  O6       -12.4120   18.5370  -19.1560 O.3   301  MN0301     -0.3239
     11  C7       -11.3020   16.6470  -18.0900 C.3   301  MN0301      0.2135
     12  O7       -10.5390   16.4150  -19.2850 O.3   301  MN0301     -0.2176
     13  C8       -12.5830   15.7880  -18.1370 C.3   301  MN0301      0.2173
     14  O8       -13.5700   16.2820  -17.2170 O.3   301  MN0301     -0.2175
     15  C9       -12.2380   14.3230  -17.8490 C.3   301  MN0301      0.2175
     16  O9       -13.4120   13.5060  -17.8640 O.3   301  MN0301     -0.2175
     17  C10       -8.5570   18.0720  -16.5540 C.2   301  MN0301      0.2751
     18  O10       -7.9050   17.7250  -17.5440 O.2   301  MN0301     -0.2705
     19  C11       -8.0690   17.7770  -15.1480 C.3   301  MN0301      0.2680
     20  O11       -6.7340   17.2490  -15.2140 O.3   301  MN0301     -0.2098
     21  C12      -14.6100   19.3280  -20.8410 C.3   301  MN0301      0.1772
     22  O1B      -14.4440   18.8690  -17.5120 O.co2 301  MN0301     -0.2402
     23  O1A      -14.6140   21.0640  -17.8470 O.co2 301  MN0301     -0.2402
@<TRIPOS>BOND
     1    21     3    1
     2     3     2    1
     3    12    11    1
     4    10     2    1
     5    10     9    1
     6     2     4    1
     7     2     1    1
     8     4     5    1
     9    13    11    1
    10    13    15    1
    11    13    14    1
    12    11     9    1
    13     1    23   ar
    14     1    22   ar
    15     9     7    1
    16    16    15    1
    17     7     5    1
    18     7     8    1
    19     5     6    1
    20    18    17    2
    21     8    17   am
    22    17    19    1
    23    20    19    1
