@<TRIPOS>MOLECULE
3tb9_CDP_A_1.pdb
 25 26 0 0 0
SMALL
GASTEIGER

@<TRIPOS>ATOM
      1  O3B       26.5550   54.1240   15.6120 O.3   889  CDP889     -0.1143
      2  PB        27.1780   52.9020   16.2460 P.3   889  CDP889      0.5373
      3  O1B       28.3430   52.3440   15.4490 O.2   889  CDP889     -0.2221
      4  O2B       27.4410   53.0340   17.7350 O.3   889  CDP889     -0.1143
      5  O3A       25.9420   51.8460   16.2230 O.3   889  CDP889     -0.2261
      6  PA        25.8720   50.2950   15.7490 P.3   889  CDP889      0.2231
      7  O1A       26.9500   49.4670   16.4120 O.3   889  CDP889     -0.4370
      8  O2A       25.6960   50.2720   14.2300 O.2   889  CDP889     -0.5169
      9  O5'       24.4690   49.8450   16.3990 O.3   889  CDP889     -0.3111
     10  C5'       24.3920   49.6180   17.8060 C.3   889  CDP889      0.1813
     11  C4'       23.0180   50.0160   18.3450 C.3   889  CDP889      0.1799
     12  O4'       22.6900   51.3940   18.0850 O.3   889  CDP889     -0.3320
     13  C3'       21.8870   49.1910   17.7460 C.3   889  CDP889      0.2158
     14  O3'       21.7290   47.9570   18.4420 O.3   889  CDP889     -0.2175
     15  C2'       20.6720   50.1130   17.7990 C.3   889  CDP889      0.2319
     16  O2'       19.8850   49.9280   18.9990 O.3   889  CDP889     -0.2157
     17  C1'       21.3000   51.5160   17.7230 C.3   889  CDP889      0.2400
     18  N1        21.1880   52.0810   16.3630 N.am  889  CDP889     -0.1778
     19  C2        20.1980   53.0580   16.0640 C.1   889  CDP889      0.2756
     20  O2        19.3950   53.4620   16.9470 O.2   889  CDP889     -0.1925
     21  N3        20.1140   53.5580   14.7980 N.2   889  CDP889     -0.3024
     22  C4        20.9600   53.1460   13.8150 C.2   889  CDP889      0.2346
     23  N4        20.8640   53.6590   12.5580 N.pl3 889  CDP889     -0.0921
     24  C5        21.9340   52.1900   14.0900 C.2   889  CDP889      0.0687
     25  C6        22.0260   51.6770   15.3830 C.2   889  CDP889      0.0836
@<TRIPOS>BOND
     1    23    22    1
     2    22    24    1
     3    22    21    2
     4    24    25    2
     5     8     6    2
     6    21    19    2
     7    25    18    1
     8     3     2    2
     9     1     2    1
    10     6     5    1
    11     6     9    1
    12     6     7    1
    13    19    18   am
    14    19    20    2
    15     5     2    1
    16     2     4    1
    17    18    17    1
    18     9    10    1
    19    17    15    1
    20    17    12    1
    21    13    15    1
    22    13    11    1
    23    13    14    1
    24    15    16    1
    25    10    11    1
    26    12    11    1
