@<TRIPOS>MOLECULE
3tb9_ANP_A_1.pdb
 31 33 0 0 0
SMALL
GASTEIGER

@<TRIPOS>ATOM
      1  PG       -12.2920   44.4170   25.7250 P.3   890  ANP890      0.4884
      2  O1G      -10.8090   44.7050   25.6920 O.3   890  ANP890     -0.1240
      3  O2G      -12.7630   43.4430   24.6620 O.2   890  ANP890     -0.2331
      4  O3G      -12.7840   44.1860   27.1490 O.3   890  ANP890     -0.1240
      5  PB       -12.4260   47.4890   25.6800 P.3   890  ANP890      0.4669
      6  O1B      -11.8030   47.3690   27.0660 O.3   890  ANP890     -0.1253
      7  O2B      -13.5620   48.4700   25.4530 O.2   890  ANP890     -0.2351
      8  N3B      -13.0680   45.9110   25.2460 N.3   890  ANP890     -0.0163
      9  PA        -9.7440   48.1610   24.8210 P.3   890  ANP890      0.2220
     10  O1A       -9.5090   49.6600   24.9140 O.2   890  ANP890     -0.5170
     11  O2A       -9.2500   47.2470   25.9190 O.3   890  ANP890     -0.4370
     12  O3A      -11.3220   47.8870   24.5600 O.3   890  ANP890     -0.2360
     13  O5'       -9.1700   47.6180   23.4090 O.3   890  ANP890     -0.3111
     14  C5'       -9.0850   46.2160   23.1560 C.3   890  ANP890      0.1813
     15  C4'       -8.3890   45.9210   21.8140 C.3   890  ANP890      0.1821
     16  O4'       -9.2760   46.1700   20.7160 O.3   890  ANP890     -0.3135
     17  C3'       -7.1040   46.6940   21.5320 C.3   890  ANP890      0.2184
     18  O3'       -6.2280   45.8550   20.7700 O.3   890  ANP890     -0.2174
     19  C2'       -7.5840   47.8380   20.6710 C.3   890  ANP890      0.2570
     20  O2'       -6.6130   48.2710   19.7030 O.3   890  ANP890     -0.2130
     21  C1'       -8.8140   47.2890   19.9690 C.3   890  ANP890      0.3186
     22  N9        -9.8490   48.3440   19.9660 N.pl3 890  ANP890     -0.1439
     23  C8       -10.7300   48.6250   20.9580 C.3   890  ANP890      0.3377
     24  N7       -11.5350   49.6590   20.6090 N.2   890  ANP890     -0.2095
     25  C5       -11.1630   50.0460   19.3730 C.2   890  ANP890      0.2526
     26  C6       -11.5860   51.0830   18.4020 C.2   890  ANP890      0.4393
     27  N6       -12.6050   51.9230   18.7020 N.pl3 890  ANP890      0.2180
     28  N1       -10.9270   51.1340   17.2090 N.2   890  ANP890      0.0021
     29  C2        -9.9130   50.3010   16.8840 C.3   890  ANP890      0.5254
     30  N3        -9.4810   49.3380   17.7190 N.2   890  ANP890     -0.0055
     31  C4       -10.0540   49.1720   18.9440 C.2   890  ANP890      0.3518
@<TRIPOS>BOND
     1    29    28    1
     2    29    30    1
     3    28    26    2
     4    30    31    2
     5    26    27    1
     6    26    25    1
     7    31    25    1
     8    31    22    1
     9    25    24    2
    10    20    19    1
    11    22    21    1
    12    22    23    1
    13    21    19    1
    14    21    16    1
    15    24    23    1
    16    19    17    1
    17    16    15    1
    18    18    17    1
    19    17    15    1
    20    15    14    1
    21    14    13    1
    22    13     9    1
    23    12     9    1
    24    12     5    1
    25     3     1    2
    26     9    10    2
    27     9    11    1
    28     8     5    1
    29     8     1    1
    30     7     5    2
    31     5     6    1
    32     2     1    1
    33     1     4    1
