@<TRIPOS>MOLECULE
3tba_DGT_A_1.pdb
 31 33 0 0 0
SMALL
GASTEIGER

@<TRIPOS>ATOM
      1  PG       -12.3130   45.0750   27.6680 P.3   890  DGT890      0.5373
      2  O1G      -13.3230   44.7200   28.7400 O.3   890  DGT890     -0.1143
      3  O2G      -10.9330   45.3360   28.2500 O.3   890  DGT890     -0.1143
      4  O3G      -12.3860   44.2020   26.4350 O.2   890  DGT890     -0.2221
      5  O3B      -12.8280   46.4760   27.0490 O.3   890  DGT890     -0.2258
      6  PB       -12.3830   47.9380   27.5660 P.3   890  DGT890      0.2277
      7  O1B      -11.6280   47.8520   28.8760 O.3   890  DGT890     -0.4368
      8  O2B      -13.6050   48.8260   27.4530 O.2   890  DGT890     -0.5168
      9  O3A      -11.3950   48.4210   26.3770 O.3   890  DGT890     -0.2700
     10  PA        -9.8040   48.6560   26.5530 P.3   890  DGT890      0.2189
     11  O1A       -9.3350   47.7220   27.6380 O.3   890  DGT890     -0.4371
     12  O2A       -9.5170   50.1440   26.6170 O.2   890  DGT890     -0.5170
     13  O5'       -9.3250   48.1320   25.1170 O.3   890  DGT890     -0.3112
     14  C5'       -9.0450   46.7600   24.9480 C.3   890  DGT890      0.1812
     15  C4'       -8.4670   46.5650   23.5540 C.3   890  DGT890      0.1772
     16  O4'       -9.4330   46.9840   22.5940 O.3   890  DGT890     -0.3347
     17  C3'       -7.1830   47.3270   23.2650 C.3   890  DGT890      0.1857
     18  O3'       -6.2100   46.4260   22.7260 O.3   890  DGT890     -0.2203
     19  C2'       -7.5560   48.3210   22.1980 C.3   890  DGT890      0.0865
     20  C1'       -8.8570   47.8300   21.6070 C.3   890  DGT890      0.1981
     21  N9        -9.7460   49.0010   21.4500 N.pl3 890  DGT890     -0.2374
     22  C8       -10.5880   49.4430   22.4040 C.3   890  DGT890      0.2245
     23  N7       -11.2600   50.5280   21.9680 N.2   890  DGT890     -0.2322
     24  C5       -10.8510   50.8030   20.7100 C.2   890  DGT890      0.2182
     25  C6       -11.1680   51.8400   19.6820 C.1   890  DGT890      0.2372
     26  O6       -12.0220   52.7380   19.9350 O.2   890  DGT890     -0.2069
     27  N1       -10.5290   51.7770   18.4910 N.2   890  DGT890     -0.2485
     28  C2        -9.6110   50.8170   18.2250 C.1   890  DGT890      0.2531
     29  N2        -9.0110   50.8330   17.0160 N.pl3 890  DGT890     -0.0226
     30  N3        -9.2720   49.8280   19.1140 N.2   890  DGT890     -0.3074
     31  C4        -9.8480   49.7820   20.3590 C.2   890  DGT890      0.2299
@<TRIPOS>BOND
     1    29    28    1
     2    28    27    2
     3    28    30    2
     4    27    25    2
     5    30    31    2
     6    25    26    2
     7    25    24    1
     8    31    24    1
     9    31    21    1
    10    24    23    2
    11    21    20    1
    12    21    22    1
    13    20    19    1
    14    20    16    1
    15    23    22    1
    16    19    17    1
    17    16    15    1
    18    18    17    1
    19    17    15    1
    20    15    14    1
    21    14    13    1
    22    13    10    1
    23     9    10    1
    24     9     6    1
    25     4     1    2
    26    10    12    2
    27    10    11    1
    28     5     6    1
    29     5     1    1
    30     8     6    2
    31     6     7    1
    32     1     3    1
    33     1     2    1
