@<TRIPOS>MOLECULE
3tba_ADP_A_1.pdb
 27 29 0 0 0
SMALL
GASTEIGER

@<TRIPOS>ATOM
      1  PB        26.9680   53.1360   17.1770 P.3   891  ADP891      0.5373
      2  O1B       28.1690   52.6040   16.4290 O.2   891  ADP891     -0.2221
      3  O2B       27.0680   53.0470   18.6890 O.3   891  ADP891     -0.1143
      4  O3B       26.5580   54.4990   16.6700 O.3   891  ADP891     -0.1143
      5  PA        25.5910   50.5440   16.6310 P.3   891  ADP891      0.2231
      6  O1A       24.8550   50.2320   15.3380 O.2   891  ADP891     -0.5169
      7  O2A       26.8880   49.8420   16.9440 O.3   891  ADP891     -0.4370
      8  O3A       25.7110   52.1770   16.7430 O.3   891  ADP891     -0.2261
      9  O5'       24.6780   50.1680   17.9040 O.3   891  ADP891     -0.3111
     10  C5'       23.3520   49.6260   17.7870 C.3   891  ADP891      0.1813
     11  C4'       22.6010   50.0280   19.0530 C.3   891  ADP891      0.1821
     12  O4'       22.4150   51.4480   19.0910 O.3   891  ADP891     -0.3135
     13  C3'       21.2340   49.3670   19.0930 C.3   891  ADP891      0.2184
     14  O3'       21.1630   48.5280   20.2510 O.3   891  ADP891     -0.2174
     15  C2'       20.2190   50.5130   19.1040 C.3   891  ADP891      0.2570
     16  O2'       19.4500   50.5550   20.3270 O.3   891  ADP891     -0.2130
     17  C1'       21.0420   51.7870   18.8640 C.3   891  ADP891      0.3186
     18  N9        20.8610   52.2930   17.4620 N.pl3 891  ADP891     -0.1439
     19  C8        21.5830   51.9560   16.3610 C.3   891  ADP891      0.3377
     20  N7        21.1430   52.6020   15.2470 N.2   891  ADP891     -0.2095
     21  C5        20.1080   53.3810   15.6270 C.2   891  ADP891      0.2526
     22  C6        19.1690   54.3380   14.9730 C.2   891  ADP891      0.4393
     23  N6        19.2530   54.5970   13.6470 N.pl3 891  ADP891      0.2180
     24  N1        18.2220   54.9520   15.7370 N.2   891  ADP891      0.0021
     25  C2        18.1180   54.7230   17.0680 C.3   891  ADP891      0.5254
     26  N3        18.9350   53.8700   17.7280 N.2   891  ADP891     -0.0055
     27  C4        19.9270   53.1800   17.0830 C.2   891  ADP891      0.3518
@<TRIPOS>BOND
     1    23    22    1
     2    22    21    1
     3    22    24    2
     4    20    21    2
     5    20    19    1
     6     6     5    2
     7    21    27    1
     8    24    25    1
     9    19    18    1
    10     2     1    2
    11     5     8    1
    12     5     7    1
    13     5     9    1
    14     4     1    1
    15     8     1    1
    16    25    26    1
    17    27    18    1
    18    27    26    2
    19     1     3    1
    20    18    17    1
    21    10     9    1
    22    10    11    1
    23    17    12    1
    24    17    15    1
    25    11    12    1
    26    11    13    1
    27    13    15    1
    28    13    14    1
    29    15    16    1
