@<TRIPOS>MOLECULE
3tbc_I75_C_1.pdb
 12 12 0 0 0
SMALL
GASTEIGER

@<TRIPOS>ATOM
      1  CAA       47.1870   -0.1590   49.1830 C.3   349  I75349      0.2526
      2  CAB       51.8440   -0.8180   48.1230 C.3   349  I75349      0.0773
      3  OAC       53.4700    0.5170   49.2740 O.2   349  I75349     -0.2913
      4  OAD       48.2410    2.6940   52.1950 O.3   349  I75349     -0.2833
      5  CAE       50.5240    2.5000   51.5580 C.ar  349  I75349      0.0453
      6  CAF       51.5170    1.8910   50.7990 C.ar  349  I75349      0.0063
      7  CAG       49.9060    0.3970   49.7730 C.ar  349  I75349      0.0431
      8  OAH       47.5990    0.5310   50.3630 O.3   349  I75349     -0.4682
      9  CAI       52.2900    0.2090   49.1150 C.2   349  I75349      0.1736
     10  CAJ       49.2060    2.0850   51.4480 C.ar  349  I75349      0.2293
     11  CAK       51.2080    0.8540   49.9230 C.ar  349  I75349      0.0379
     12  CAL       48.8830    0.9830   50.5020 C.ar  349  I75349      0.1775
@<TRIPOS>BOND
     1     2     9    1
     2     9     3    2
     3     9    11    1
     4     1     8    1
     5     7    11   ar
     6     7    12   ar
     7    11     6   ar
     8     8    12    1
     9    12    10   ar
    10     6     5   ar
    11    10     5   ar
    12    10     4    1
