@<TRIPOS>MOLECULE
3tbg_RTZ_A_1.pdb
 25 28 0 0 0
SMALL
GASTEIGER

@<TRIPOS>ATOM
      1  CAA        8.1120   30.7460   -7.3900 C.3     1  RTZ1        0.0896
      2  CAB       -0.1090   29.0690   -6.6130 C.3     1  RTZ1        0.0742
      3  CAC        8.4010   24.1110   -5.9570 C.ar    1  RTZ1        0.0013
      4  CAD        8.0620   23.2530   -4.8860 C.ar    1  RTZ1        0.0006
      5  CAE        4.1680   31.9880   -8.0760 C.3     1  RTZ1        0.0028
      6  CAF        5.2280   32.9830   -8.0570 C.3     1  RTZ1        0.0174
      7  CAG        4.3700   30.9710   -6.8850 C.3     1  RTZ1        0.0161
      8  CAH        7.6180   25.2730   -6.2420 C.ar    1  RTZ1        0.0153
      9  CAI        6.9250   23.5450   -4.0780 C.ar    1  RTZ1        0.0077
     10  CAJ        1.3660   26.2880   -5.3280 C.ar    1  RTZ1        0.0067
     11  CAK        2.2270   25.6730   -4.3930 C.ar    1  RTZ1        0.0082
     12  CAL        5.8870   29.3830   -5.7400 C.3     1  RTZ1        0.0377
     13  CAM        6.5520   32.2980   -8.2070 C.3     1  RTZ1        0.0721
     14  CAN        6.2970   27.9640   -6.2150 C.3     1  RTZ1        0.0970
     15  CAO        3.3430   27.2070   -6.5050 C.ar    1  RTZ1        0.0215
     16  CAP        5.7230   30.2820   -6.9790 C.3     1  RTZ1        0.0593
     17  CAQ        1.9330   27.0560   -6.3800 C.ar    1  RTZ1        0.0265
     18  CAR        6.4730   25.5740   -5.4320 C.ar    1  RTZ1        0.0576
     19  CAS        4.2180   26.5890   -5.5660 C.ar    1  RTZ1        0.0581
     20  CAT        6.1360   24.6940   -4.3430 C.ar    1  RTZ1        0.0431
     21  CAU        3.6350   25.8170   -4.4990 C.ar    1  RTZ1        0.0431
     22  NAV        6.7880   31.3000   -7.0830 N.3     1  RTZ1       -0.2727
     23  NAW        5.6520   26.7340   -5.6680 N.pl3   1  RTZ1       -0.2860
     24  SAX        0.8630   27.8640   -7.5750 S.3     1  RTZ1       -0.1127
     25  SAY        4.7000   25.0340   -3.2840 S.3     1  RTZ1       -0.0844
@<TRIPOS>BOND
     1    13     6    1
     2    13    22    1
     3     5     6    1
     4     5     7    1
     5    24     2    1
     6    24    17    1
     7     1    22    1
     8    22    16    1
     9    16     7    1
    10    16    12    1
    11    15    17   ar
    12    15    19   ar
    13    17    10   ar
    14     8     3   ar
    15     8    18   ar
    16    14    12    1
    17    14    23    1
    18     3     4   ar
    19    23    19    1
    20    23    18    1
    21    19    21   ar
    22    18    20   ar
    23    10    11   ar
    24     4     9   ar
    25    21    11   ar
    26    21    25    1
    27    20     9   ar
    28    20    25    1
