@<TRIPOS>MOLECULE
3tbg_HEM_A_1.pdb
 43 50 0 0 0
SMALL
GASTEIGER

@<TRIPOS>ATOM
      1  CHA       10.6380   26.5780    2.3840 C.2   800  HEM800      0.0000
      2  CHB        8.3430   23.0290    4.5790 C.2   800  HEM800      0.0000
      3  CHC        4.9920   26.0630    5.9290 C.2   800  HEM800      0.0000
      4  CHD        7.2830   29.5730    3.7670 C.2   800  HEM800      0.0000
      5  C1A       10.3300   25.2730    2.8200 C.2   800  HEM800      0.0000
      6  C2A       11.0670   24.1020    2.5770 C.2   800  HEM800      0.0000
      7  C3A       10.4050   23.0900    3.2310 C.2   800  HEM800      0.0000
      8  C4A        9.3000   23.6880    3.8430 C.2   800  HEM800      0.0000
      9  CMA       10.7950   21.5570    3.2920 C.3   800  HEM800      0.0000
     10  CAA       12.3430   24.0110    1.7500 C.3   800  HEM800      0.0000
     11  CBA       13.6140   24.2210    2.5090 C.3   800  HEM800      0.0000
     12  CGA       14.8490   24.0880    1.6380 C.2   800  HEM800      0.0000
     13  O1A       14.9480   24.7430    0.5910 O.co2 800  HEM800      0.0000
     14  O2A       15.7350   23.3130    1.9480 O.co2 800  HEM800      0.0000
     15  C1B        7.1510   23.4660    5.1470 C.ar  800  HEM800      0.0000
     16  C2B        6.2670   22.6990    5.9550 C.ar  800  HEM800      0.0000
     17  C3B        5.2880   23.6320    6.3940 C.ar  800  HEM800      0.0000
     18  C4B        5.6790   24.8630    5.8070 C.ar  800  HEM800      0.0000
     19  CMB        6.4140   21.2090    6.2410 C.3   800  HEM800      0.0000
     20  CAB        4.1380   23.4560    7.2400 C.3   800  HEM800      0.0000
     21  CBB        3.6350   22.2820    7.9790 C.3   800  HEM800      0.0000
     22  C1C        5.3290   27.3540    5.5630 C.2   800  HEM800      0.0000
     23  C2C        4.5550   28.4670    5.8120 C.2   800  HEM800      0.0000
     24  C3C        5.1240   29.5160    5.0650 C.2   800  HEM800      0.0000
     25  C4C        6.2330   28.9270    4.4090 C.2   800  HEM800      0.0000
     26  CMC        3.2920   28.5250    6.7450 C.3   800  HEM800      0.0000
     27  CAC        4.7830   30.8410    4.9170 C.3   800  HEM800      0.0000
     28  CBC        4.5420   31.8420    5.8820 C.3   800  HEM800      0.0000
     29  C1D        8.3250   29.0550    3.0670 C.ar  800  HEM800      0.0000
     30  C2D        9.1810   29.7870    2.2270 C.ar  800  HEM800      0.0000
     31  C3D       10.2150   28.9590    1.8990 C.ar  800  HEM800      0.0000
     32  C4D        9.9350   27.7630    2.5540 C.ar  800  HEM800      0.0000
     33  CMD        9.0170   31.2600    1.7390 C.3   800  HEM800      0.0000
     34  CAD       11.4400   29.2710    0.9980 C.3   800  HEM800      0.0000
     35  CBD       12.6050   29.8360    1.8550 C.3   800  HEM800      0.0000
     36  CGD       13.9150   30.1990    1.1470 C.2   800  HEM800      0.0000
     37  O1D       14.7400   30.8810    1.6990 O.co2 800  HEM800      0.0000
     38  O2D       14.1120   29.7820   -0.0110 O.co2 800  HEM800      0.0000
     39  NA         9.2560   24.9840    3.6010 N.2   800  HEM800      0.0000
     40  NB         6.7700   24.7360    5.0850 N.ar  800  HEM800      0.0000
     41  NC         6.3190   27.6200    4.7360 N.2   800  HEM800      0.0000
     42  ND         8.7950   27.8680    3.2430 N.ar  800  HEM800      0.0000
     43 FE          7.8240   26.3180    4.2500 Fe    800  HEM800      0.0000
@<TRIPOS>BOND
     1    38    36   ar
     2    13    12   ar
     3    34    35    1
     4    34    31    1
     5    36    37   ar
     6    36    35    1
     7    12    14   ar
     8    12    11    1
     9    33    30    1
    10    10    11    1
    11    10     6    1
    12    31    30   ar
    13    31    32   ar
    14    30    29   ar
    15     1    32    2
    16     1     5    1
    17    32    42   ar
    18     6     5    1
    19     6     7    2
    20     5    39    2
    21    29    42   ar
    22    29     4    2
    23     7     9    1
    24     7     8    1
    25    42    43    1
    26    39     8    1
    27    39    43    1
    28     4    25    1
    29     8     2    2
    30    43    41    1
    31    43    40    1
    32    25    41    2
    33    25    24    1
    34     2    15    1
    35    41    22    1
    36    27    24    1
    37    27    28    1
    38    24    23    2
    39    40    15   ar
    40    40    18   ar
    41    15    16   ar
    42    22    23    1
    43    22     3    2
    44    18     3    1
    45    18    17   ar
    46    23    26    1
    47    16    19    1
    48    16    17   ar
    49    17    20    1
    50    20    21    1
