@<TRIPOS>MOLECULE
3tbh_III_B_1.pdb
 31 30 0 0 0
SMALL
GASTEIGER

@<TRIPOS>ATOM
      1  N         18.9760    1.6040    8.7120 N.3     1  ASP1       -0.1225
      2  CA        18.6650    0.4320    9.5490 C.3     1  ASP1        0.1805
      3  C         17.1500    0.1350    9.6990 C.2     1  ASP1        0.2598
      4  O         16.3410    1.0830    9.6180 O.2     1  ASP1       -0.2718
      5  CB        19.3630    0.5700   10.8890 C.3     1  ASP1        0.1424
      6  CG        20.8170    0.3130   10.7800 C.2     1  ASP1        0.3668
      7  OD1       21.2650   -0.8760   10.7190 O.co2   1  ASP1       -0.2456
      8  OD2       21.5380    1.2920   10.6800 O.co2   1  ASP1       -0.2456
      9  N         16.7420   -1.1180    9.9680 N.am    2  GLY2       -0.1942
     10  CA        17.4940   -2.2030   10.7360 C.3     2  GLY2        0.2014
     11  C         18.7040   -2.8570   10.0560 C.2     2  GLY2        0.2640
     12  O         19.7480   -2.2790   10.0210 O.2     2  GLY2       -0.2714
     13  N         18.6170   -4.0740    9.5250 N.am    3  SER3       -0.1935
     14  CA        19.2930   -4.1760    8.2260 C.3     3  SER3        0.2055
     15  C         18.3590   -3.2980    7.3580 C.2     3  SER3        0.2644
     16  O         18.8050   -2.4520    6.6630 O.2     3  SER3       -0.2714
     17  CB        19.5560   -5.5970    7.6910 C.3     3  SER3        0.2130
     18  OG        20.0590   -5.6010    6.3440 O.3     3  SER3       -0.2179
     19  N         17.0200   -3.4410    7.5240 N.am    4  GLY4       -0.1939
     20  CA        16.0500   -2.5000    6.9280 C.3     4  GLY4        0.2014
     21  C         15.8160   -2.7300    5.4500 C.2     4  GLY4        0.2639
     22  O         15.2390   -1.8900    4.7750 O.2     4  GLY4       -0.2714
     23  N         16.2890   -3.8750    4.9460 N.am    5  ILE5       -0.1941
     24  CA        16.4630   -4.0950    3.4910 C.3     5  ILE5        0.1977
     25  C         15.8970   -5.5030    3.1230 C.2     5  ILE5        0.3842
     26  O         16.4320   -6.5740    3.6010 O.co2   5  ILE5       -0.2437
     27  CB        17.9930   -3.9730    3.0040 C.3     5  ILE5        0.0311
     28  CG1       18.6000   -2.5180    3.2760 C.3     5  ILE5        0.0023
     29  CG2       18.0790   -4.4980    1.5040 C.3     5  ILE5        0.0023
     30  CD1       20.2700   -2.3090    3.2130 C.3     5  ILE5        0.0001
     31  OXT       14.8950   -5.4790    2.3090 O.co2   5  ILE5       -0.2437
@<TRIPOS>BOND
     1    29    27    1
     2    31    25   ar
     3    27    28    1
     4    27    24    1
     5    25    24    1
     6    25    26   ar
     7    30    28    1
     8    24    23    1
     9    22    21    2
    10    23    21   am
    11    21    20    1
    12    18    17    1
    13    16    15    2
    14    20    19    1
    15    15    19   am
    16    15    14    1
    17    17    14    1
    18    14    13    1
    19     1     2    1
    20    13    11   am
    21     2     3    1
    22     2     5    1
    23     4     3    2
    24     3     9   am
    25     9    10    1
    26    12    11    2
    27    11    10    1
    28     8     6   ar
    29     7     6   ar
    30     6     5    1
