@<TRIPOS>MOLECULE
3tbk_ANP_A_1.pdb
 31 33 0 0 0
SMALL
GASTEIGER

@<TRIPOS>ATOM
      1  PG        31.5930   31.4030   48.1840 P.3     1  ANP1        0.4884
      2  O1G       32.4580   31.3580   49.3800 O.3     1  ANP1       -0.1240
      3  O2G       31.3320   32.8660   47.8190 O.3     1  ANP1       -0.1240
      4  O3G       32.4640   30.9100   47.0850 O.2     1  ANP1       -0.2331
      5  PB        28.9770   30.8550   47.4110 P.3     1  ANP1        0.4669
      6  O1B       28.1040   29.6240   47.4670 O.3     1  ANP1       -0.1253
      7  O2B       29.3800   30.9440   45.9450 O.2     1  ANP1       -0.2351
      8  N3B       30.1940   30.5590   48.4620 N.3     1  ANP1       -0.0163
      9  PA        28.0700   33.0760   48.8590 P.3     1  ANP1        0.2220
     10  O1A       27.4370   32.5130   50.1000 O.3     1  ANP1       -0.4370
     11  O2A       29.4490   33.5240   49.2930 O.2     1  ANP1       -0.5170
     12  O3A       28.0860   32.0880   47.6470 O.3     1  ANP1       -0.2360
     13  O5'       27.2890   34.3170   48.3120 O.3     1  ANP1       -0.3111
     14  C5'       27.8510   34.8980   47.1390 C.3     1  ANP1        0.1813
     15  C4'       26.8460   35.8700   46.5570 C.3     1  ANP1        0.1821
     16  O4'       27.4870   36.6240   45.5470 O.3     1  ANP1       -0.3135
     17  C3'       25.6730   35.2320   45.8910 C.3     1  ANP1        0.2184
     18  O3'       24.5230   35.9040   46.2340 O.3     1  ANP1       -0.2174
     19  C2'       25.9240   35.3520   44.4670 C.3     1  ANP1        0.2570
     20  O2'       24.7700   35.4480   43.7510 O.3     1  ANP1       -0.2130
     21  C1'       26.6890   36.6350   44.4210 C.3     1  ANP1        0.3186
     22  N9        27.3920   36.6310   43.2060 N.pl3   1  ANP1       -0.1439
     23  C8        28.3490   35.6740   42.7650 C.3     1  ANP1        0.3377
     24  N7        28.8320   35.9290   41.5110 N.2     1  ANP1       -0.2095
     25  C5        28.2240   37.0620   41.0380 C.2     1  ANP1        0.2526
     26  C6        28.2530   37.8620   39.8620 C.2     1  ANP1        0.4393
     27  N6        29.0980   37.5390   38.7570 N.pl3   1  ANP1        0.2180
     28  N1        27.4380   38.9580   39.8210 N.2     1  ANP1        0.0021
     29  C2        26.6530   39.2760   40.8160 C.3     1  ANP1        0.5254
     30  N3        26.5850   38.5800   41.9320 N.2     1  ANP1       -0.0055
     31  C4        27.3400   37.4840   42.0690 C.2     1  ANP1        0.3518
@<TRIPOS>BOND
     1    27    26    1
     2    28    26    2
     3    28    29    1
     4    26    25    1
     5    29    30    1
     6    25    24    2
     7    25    31    1
     8    24    23    1
     9    30    31    2
    10    31    22    1
    11    23    22    1
    12    22    21    1
    13    20    19    1
    14    21    19    1
    15    21    16    1
    16    19    17    1
    17    16    15    1
    18    17    18    1
    19    17    15    1
    20     7     5    2
    21    15    14    1
    22     4     1    2
    23    14    13    1
    24     5     6    1
    25     5    12    1
    26     5     8    1
    27    12     9    1
    28     3     1    1
    29     1     8    1
    30     1     2    1
    31    13     9    1
    32     9    11    2
    33     9    10    1
