@<TRIPOS>MOLECULE
3tc5_3T5_A_1.pdb
 32 35 0 0 0
SMALL
GASTEIGER

@<TRIPOS>ATOM
      1  F         37.9660  -11.4600   16.0100 F     164  3T5164     -0.2368
      2  P         43.1900  -17.7430   13.2270 P.3   164  3T5164      0.5330
      3  C1        37.9350  -16.0040   16.3660 C.3   164  3T5164      0.0030
      4  O1        38.9410  -14.0300   18.3400 O.3   164  3T5164     -0.2203
      5  C2        38.2880  -14.8620   15.4010 C.3   164  3T5164      0.0350
      6  O2        37.0880   -7.4820   18.6000 O.2   164  3T5164     -0.2866
      7  C3        39.4660  -14.0280   15.9440 C.3   164  3T5164      0.0385
      8  O3        39.0860  -14.3910   13.1320 O.3   164  3T5164     -0.2181
      9  C4        39.0350  -13.1850   17.1780 C.3   164  3T5164      0.1823
     10  O4        38.9320  -17.7810   13.9730 O.2   164  3T5164     -0.2908
     11  C5        37.7300  -12.3650   16.9590 C.3   164  3T5164      0.1679
     12  O5        41.6540  -17.6710   13.8230 O.3   164  3T5164     -0.2621
     13  O6        43.0790  -17.7940   11.6270 O.2   164  3T5164     -0.2224
     14  C7        37.2920  -11.5890   18.2210 C.3   164  3T5164      0.0639
     15  O7        43.8360  -16.3180   13.6070 O.3   164  3T5164     -0.1145
     16  C8        36.8800  -12.5070   19.3790 C.3   164  3T5164      0.0112
     17  O8        43.9510  -18.8980   13.7550 O.3   164  3T5164     -0.1145
     18  C9        38.3410  -10.7900   18.6800 C.2   164  3T5164     -0.0171
     19  C10       38.2580   -9.4060   18.8110 C.2   164  3T5164      0.0378
     20  C11       37.1110   -8.7050   18.4600 C.2   164  3T5164      0.1948
     21  C12       36.0020   -9.3870   17.9690 C.2   164  3T5164      0.0339
     22  C13       36.0500  -10.7750   17.8400 C.2   164  3T5164     -0.0354
     23  C14       34.8630  -11.5550   17.2820 C.3   164  3T5164      0.0226
     24  C15       35.3240  -12.4170   16.0920 C.3   164  3T5164      0.0071
     25  C16       36.5890  -13.2450   16.4000 C.3   164  3T5164      0.0336
     26  C17       37.0980  -13.9520   15.1390 C.3   164  3T5164      0.0055
     27  C18       36.1200  -14.8650   14.4000 C.3   164  3T5164      0.0031
     28  C19       37.0510  -15.7190   13.5120 C.3   164  3T5164      0.0349
     29  C20       36.8390  -15.4120   12.0210 C.3   164  3T5164      0.0030
     30  C21       38.4960  -15.3980   13.9720 C.3   164  3T5164      0.1794
     31  C22       39.4020  -16.6430   13.9270 C.2   164  3T5164      0.2081
     32  C23       40.9170  -16.4350   13.7880 C.3   164  3T5164      0.2201
@<TRIPOS>BOND
     1    13     2    2
     2    29    28    1
     3     8    30    1
     4     2    15    1
     5     2    17    1
     6     2    12    1
     7    28    30    1
     8    28    27    1
     9    32    12    1
    10    32    31    1
    11    31    30    1
    12    31    10    2
    13    30     5    1
    14    27    26    1
    15    26     5    1
    16    26    25    1
    17     5     7    1
    18     5     3    1
    19     7     9    1
    20     1    11    1
    21    24    25    1
    22    24    23    1
    23    25    11    1
    24    11     9    1
    25    11    14    1
    26     9     4    1
    27    23    22    1
    28    22    21    2
    29    22    14    1
    30    21    20    1
    31    14    18    1
    32    14    16    1
    33    20     6    2
    34    20    19    1
    35    18    19    2
