@<TRIPOS>MOLECULE
3tce_LYZ_A_1.pdb
 11 10 0 0 0
SMALL
GASTEIGER

@<TRIPOS>ATOM
      1  N        -18.0730    1.5000    3.1570 N.3   4990  LYZ4990    -0.1208
      2  CA       -18.2850    0.9650    1.7750 C.3   4990  LYZ4990     0.1944
      3  C        -18.2510   -0.5730    1.7310 C.2   4990  LYZ4990     0.3819
      4  O        -18.0410   -1.2510    2.7520 O.co2 4990  LYZ4990    -0.2441
      5  CB       -17.2620    1.6690    0.8750 C.3   4990  LYZ4990     0.0333
      6  CG       -17.4970    1.4500   -0.6200 C.3   4990  LYZ4990     0.0365
      7  CD       -17.8790    2.7360   -1.3530 C.3   4990  LYZ4990     0.1710
      8  CE       -17.4600    2.6740   -2.8290 C.3   4990  LYZ4990     0.1420
      9  NZ       -18.1590    1.6090   -3.5350 N.3   4990  LYZ4990    -0.1286
     10  OH       -17.2750    3.8610   -0.6940 O.3   4990  LYZ4990    -0.2215
     11  OXT      -18.4710   -1.2120    0.6820 O.co2 4990  LYZ4990    -0.2441
@<TRIPOS>BOND
     1     9     8    1
     2     8     7    1
     3     7    10    1
     4     7     6    1
     5     6     5    1
     6    11     3   ar
     7     5     2    1
     8     3     2    1
     9     3     4   ar
    10     2     1    1
