@<TRIPOS>MOLECULE
3tcf_III_I_1.pdb
 15 14 0 0 0
SMALL
GASTEIGER

@<TRIPOS>ATOM
      1  N         12.1730  -23.5090   12.9580 N.3     1  UNK1       -0.1231
      2  CA        12.5730  -23.8200   11.5690 C.3     1  UNK1        0.1694
      3  C         14.0170  -24.3270   11.5630 C.2     1  UNK1        0.2592
      4  O         14.7820  -23.9930   12.4640 O.2     1  UNK1       -0.2718
      5  CB        12.4450  -22.5890   10.6980 C.3     1  UNK1        0.0304
      6  N         14.3400  -25.1390   10.5560 N.am    2  UNK2       -0.1966
      7  CA        15.6440  -25.7930   10.4170 C.3     2  UNK2        0.1728
      8  C         16.6470  -24.8570    9.8010 C.2     2  UNK2        0.2616
      9  O         16.3820  -24.2010    8.7940 O.2     2  UNK2       -0.2715
     10  CB        15.5200  -27.1180    9.5670 C.3     2  UNK2        0.0334
     11  N         17.8150  -24.8090   10.4140 N.am    3  UNK3       -0.1977
     12  CA        18.8990  -23.9500    9.9960 C.3     3  UNK3        0.1597
     13  C         19.9720  -24.8280    9.3540 C.2     3  UNK3        0.2287
     14  O         20.7210  -24.3490    8.5080 O.2     3  UNK3       -0.2864
     15  CB        19.4660  -23.2250   11.2100 C.3     3  UNK3        0.0319
@<TRIPOS>BOND
     1    14    13    2
     2     9     8    2
     3    13    12    1
     4    10     7    1
     5     8    11   am
     6     8     7    1
     7    12    11    1
     8    12    15    1
     9     7     6    1
    10     6     3   am
    11     5     2    1
    12     3     2    1
    13     3     4    2
    14     2     1    1
