@<TRIPOS>MOLECULE
3tcg_III_I_1.pdb
 22 21 0 0 0
SMALL
GASTEIGER

@<TRIPOS>ATOM
      1  N         12.0700  -23.2270   12.9950 N.3     1  LYS1       -0.1231
      2  CA        12.5270  -23.4130   11.5830 C.3     1  LYS1        0.1696
      3  C         13.9210  -24.0190   11.5400 C.2     1  LYS1        0.2593
      4  O         14.7210  -23.7560   12.4120 O.2     1  LYS1       -0.2718
      5  CB        12.5120  -22.0790   10.8140 C.3     1  LYS1        0.0331
      6  CG        13.2160  -20.9120   11.4740 C.3     1  LYS1        0.0295
      7  CD        13.2330  -19.7320   10.5010 C.2     1  LYS1       -0.0067
      8  CE        13.6570  -18.4060   11.0860 C.2     1  LYS1        0.1012
      9  NZ        14.2400  -18.4610   12.4580 N.pl3   1  LYS1       -0.1270
     10  N         14.1860  -24.8270   10.5140 N.am    2  GLY2       -0.1942
     11  CA        15.4790  -25.5000   10.3430 C.3     2  GLY2        0.2014
     12  C         16.5280  -24.6010    9.7280 C.2     2  GLY2        0.2638
     13  O         16.2490  -23.8520    8.7960 O.2     2  GLY2       -0.2714
     14  N         17.7510  -24.6870   10.2410 N.am    3  GLU3       -0.1977
     15  CA        18.8180  -23.7670    9.8570 C.3     3  GLU3        0.1602
     16  C         20.0970  -24.5320    9.5410 C.2     3  GLU3        0.2287
     17  O         20.8340  -24.1310    8.6430 O.2     3  GLU3       -0.2864
     18  CB        19.0170  -22.7530   10.9820 C.3     3  GLU3        0.0415
     19  CG        20.4000  -22.1180   11.1590 C.3     3  GLU3        0.1163
     20  CD        20.8480  -21.2230   10.0190 C.2     3  GLU3        0.3649
     21  OE1       20.2280  -20.1580    9.7930 O.co2   3  GLU3       -0.2457
     22  OE2       21.8670  -21.5690    9.3780 O.co2   3  GLU3       -0.2457
@<TRIPOS>BOND
     1    17    16    2
     2    13    12    2
     3    22    20   ar
     4    16    15    1
     5    12    14   am
     6    12    11    1
     7    21    20   ar
     8    15    14    1
     9    15    18    1
    10    20    19    1
    11    11    10    1
    12     7     8    2
    13     7     6    1
    14    10     3   am
    15     5     6    1
    16     5     2    1
    17    18    19    1
    18     8     9    1
    19     3     2    1
    20     3     4    2
    21     2     1    1
