@<TRIPOS>MOLECULE
3tcm_DCS_A_1.pdb
 22 23 0 0 0
SMALL
GASTEIGER

@<TRIPOS>ATOM
      1  N1       -32.2210  -14.8480   12.2670 N.ar  501  DCS501     -0.2452
      2  C2       -31.2930  -13.9790   12.6610 C.ar  501  DCS501      0.0978
      3  C2A      -30.6550  -13.0660   11.6650 C.3   501  DCS501      0.0555
      4  C3       -30.8860  -13.9010   14.0720 C.ar  501  DCS501      0.2062
      5  O3       -29.9450  -13.0110   14.4610 O.3   501  DCS501     -0.2856
      6  C4       -31.5240  -14.8120   15.0210 C.ar  501  DCS501      0.0353
      7  C4A      -31.2360  -14.8590   16.4960 C.3   501  DCS501      0.1193
      8  C5       -32.5460  -15.7200   14.4780 C.ar  501  DCS501      0.0275
      9  C6       -32.8300  -15.6780   13.1290 C.ar  501  DCS501      0.0965
     10  C5A      -33.2620  -16.6660   15.4320 C.3   501  DCS501      0.1816
     11  O4P      -33.9050  -15.9200   16.4950 O.3   501  DCS501     -0.2653
     12  P        -35.0280  -16.6280   17.3880 P.3   501  DCS501      0.5329
     13  O1P      -36.3540  -16.0020   17.0590 O.3   501  DCS501     -0.1145
     14  O2P      -35.1030  -18.1110   16.9920 O.2   501  DCS501     -0.2224
     15  O3P      -34.6160  -16.3180   18.8170 O.3   501  DCS501     -0.1145
     16  N        -30.0730  -14.1290   16.9050 N.3   501  DCS501     -0.1949
     17  CA       -28.9470  -14.9290   17.2790 C.3   501  DCS501      0.2287
     18  C        -27.8870  -14.0960   17.8480 C.1   501  DCS501      0.1846
     19  O        -27.1390  -13.4600   17.1860 O.2   501  DCS501     -0.2223
     20  ND       -27.8780  -14.2240   19.1510 N.2   501  DCS501     -0.0082
     21  OG       -28.5640  -15.3210   19.5340 O.2   501  DCS501     -0.3665
     22  CB       -29.2820  -15.8670   18.4310 C.3   501  DCS501      0.2734
@<TRIPOS>BOND
     1     3     2    1
     2     1     2   ar
     3     1     9   ar
     4     2     4   ar
     5     9     8   ar
     6     4     5    1
     7     4     6   ar
     8     8     6   ar
     9     8    10    1
    10     6     7    1
    11    10    11    1
    12    11    12    1
    13     7    16    1
    14    16    17    1
    15    14    12    2
    16    13    12    1
    17    19    18    2
    18    17    18    1
    19    17    22    1
    20    12    15    1
    21    18    20    2
    22    22    21    1
    23    20    21    1
