@<TRIPOS>MOLECULE
3tcp_CKJ_A_1.pdb
 29 32 0 0 0
SMALL
GASTEIGER

@<TRIPOS>ATOM
      1  C          3.2030  -17.3630   12.9520 C.ar    1  CKJ1        0.0039
      2  F          0.7580  -17.4990   10.2840 F       1  CKJ1       -0.2042
      3  N          4.1910  -17.2690   15.7150 N.ar    1  CKJ1       -0.1671
      4  C01        5.0680  -15.7990   18.4230 C.3     1  CKJ1        0.0246
      5  N01        2.9440  -21.2910   19.7400 N.pl3   1  CKJ1       -0.1620
      6  C02        3.7640  -20.9110   20.8810 C.3     1  CKJ1        0.1252
      7  N02        4.5510  -17.7050   16.9850 N.ar    1  CKJ1       -0.2235
      8  C03        3.4270  -19.5530   21.4960 C.3     1  CKJ1        0.0242
      9  C04        4.3200  -19.2500   22.6950 C.3     1  CKJ1        0.0018
     10  C05        5.6380  -18.6380   22.2770 C.3     1  CKJ1        0.0001
     11  C06        2.5000  -17.9760   13.9940 C.ar    1  CKJ1        0.0197
     12  C07        1.1950  -18.4260   13.7890 C.ar    1  CKJ1        0.0039
     13  C08        0.6110  -18.2660   12.5340 C.ar    1  CKJ1        0.0297
     14  C09        1.3210  -17.6540   11.4940 C.ar    1  CKJ1        0.1401
     15  C10        2.6200  -17.2060   11.6990 C.ar    1  CKJ1        0.0297
     16  C23        2.0470  -20.1180   16.4680 C.2     1  CKJ1        0.1174
     17  N24        2.0790  -20.8340   17.6070 N.2     1  CKJ1       -0.1685
     18  C25        2.9430  -20.5580   18.6040 C.1     1  CKJ1        0.1667
     19  N26        3.8110  -19.5280   18.4830 N.2     1  CKJ1       -0.3168
     20  C27        2.9310  -19.0550   16.3330 C.ar    1  CKJ1        0.0880
     21  C28        3.7690  -18.7820   17.3100 C.ar    1  CKJ1        0.2265
     22  C31        3.1810  -18.1100   15.3170 C.ar    1  CKJ1        0.1065
     23  C32        5.5860  -17.1080   17.8270 C.3     1  CKJ1        0.1301
     24  C33        3.7350  -15.9770   19.1660 C.3     1  CKJ1        0.0035
     25  C35        6.1080  -15.2520   19.3990 C.3     1  CKJ1        0.0035
     26  C36        5.6610  -13.9150   19.9980 C.3     1  CKJ1        0.0191
     27  C37        4.3100  -14.0260   20.7130 C.3     1  CKJ1        0.0918
     28  C38        3.2490  -14.6650   19.8020 C.3     1  CKJ1        0.0191
     29  N39        3.9110  -12.6910   21.1150 N.3     1  CKJ1       -0.1329
@<TRIPOS>BOND
     1     2    14    1
     2    14    15   ar
     3    14    13   ar
     4    15     1   ar
     5    13    12   ar
     6     1    11   ar
     7    12    11   ar
     8    11    22    1
     9    22     3   ar
    10    22    20   ar
    11     3     7   ar
    12    20    16    2
    13    20    21   ar
    14    16    17    1
    15     7    21   ar
    16     7    23    1
    17    21    19    2
    18    17    18    2
    19    23     4    1
    20     4    24    1
    21     4    25    1
    22    19    18    2
    23    18     5    1
    24    24    28    1
    25    25    26    1
    26     5     6    1
    27    28    27    1
    28    26    27    1
    29    27    29    1
    30     6     8    1
    31     8     9    1
    32    10     9    1
