@<TRIPOS>MOLECULE
3tct_3MI_A_1.pdb
 20 22 0 0 0
SMALL
GASTEIGER

@<TRIPOS>ATOM
      1  OAA        0.6100   -1.0360    0.4330 O.co2 128  3MI128     -0.2449
      2  OAB        2.2530   -2.0740   -0.6340 O.co2 128  3MI128     -0.2449
      3  CAE       -0.0630    0.4020   -1.8210 C.2   128  3MI128     -0.0080
      4  CAF       -0.5380    1.0350   -2.9580 C.2   128  3MI128      0.0316
      5  CAG       -0.0700   -0.0250  -10.4080 C.ar  128  3MI128      0.0228
      6  CAH       -0.3970    1.1700   -8.3640 C.ar  128  3MI128      0.0172
      7  CAI        0.3050   -1.1730   -8.3510 C.ar  128  3MI128      0.0172
      8  CAJ        1.0980   -1.2750   -3.1550 C.2   128  3MI128      0.0294
      9  NAK       -0.5380    0.8830   -5.4330 N.2   128  3MI128     -0.3643
     10  OAL        0.6900   -0.9510   -5.6040 O.2   128  3MI128     -0.4250
     11  CAM        1.2510   -1.3330   -0.6040 C.2   128  3MI128      0.3725
     12  CAN       -0.4150    1.1300   -9.7300 C.ar  128  3MI128      0.0587
     13  CAO        0.2880   -1.1650   -9.7170 C.ar  128  3MI128      0.0587
     14  CAP        0.7640   -0.7080   -1.9130 C.3   128  3MI128      0.1504
     15  CAQ       -0.0460    0.0030   -7.6950 C.ar  128  3MI128      0.0681
     16  CAR       -0.0030    0.0110   -6.2930 C.2   128  3MI128      0.2821
     17  CAS       -0.2270    0.4890   -4.1900 C.2   128  3MI128      0.1687
     18  CAT        0.5810   -0.6430   -4.2790 C.2   128  3MI128      0.1742
     19 CLC        -0.8250    2.5390  -10.6170 Cl    128  3MI128     -0.0822
     20 CLD         0.6920   -2.5930  -10.5760 Cl    128  3MI128     -0.0822
@<TRIPOS>BOND
     1    19    12    1
     2    20    13    1
     3     5    12   ar
     4     5    13   ar
     5    12     6   ar
     6    13     7   ar
     7     6    15   ar
     8     7    15   ar
     9    15    16    1
    10    16    10    1
    11    16     9    2
    12    10    18    1
    13     9    17    2
    14    18    17    1
    15    18     8    2
    16    17     4    1
    17     8    14    1
    18     4     3    2
    19    14     3    1
    20    14    11    1
    21     2    11   ar
    22    11     1   ar
