@<TRIPOS>MOLECULE
3tcy_PHE_A_1.pdb
 12 12 0 0 0
SMALL
GASTEIGER

@<TRIPOS>ATOM
      1  N          5.0730   -7.9540  -16.9720 N.3   302  PHE302     -0.1205
      2  CA         6.2070   -7.6850  -16.0830 C.3   302  PHE302      0.1986
      3  C          7.4870   -8.2940  -16.5950 C.2   302  PHE302      0.3822
      4  O          7.5980   -8.5970  -17.7850 O.co2 302  PHE302     -0.2440
      5  CB         5.9630   -8.2370  -14.6730 C.3   302  PHE302      0.0569
      6  CG         5.0310   -7.3600  -13.8790 C.ar  302  PHE302     -0.0202
      7  CD1        5.5010   -6.1680  -13.3070 C.ar  302  PHE302     -0.0042
      8  CD2        3.7100   -7.7690  -13.7040 C.ar  302  PHE302     -0.0042
      9  CE1        4.6080   -5.3690  -12.5750 C.ar  302  PHE302     -0.0003
     10  CE2        2.8330   -6.9680  -12.9740 C.ar  302  PHE302     -0.0003
     11  CZ         3.2870   -5.7720  -12.4230 C.ar  302  PHE302     -0.0000
     12  OXT        8.4280   -8.4480  -15.7940 O.co2 302  PHE302     -0.2440
@<TRIPOS>BOND
     1     4     3   ar
     2     1     2    1
     3     3     2    1
     4     3    12   ar
     5     2     5    1
     6     5     6    1
     7     6     8   ar
     8     6     7   ar
     9     8    10   ar
    10     7     9   ar
    11    10    11   ar
    12     9    11   ar
