@<TRIPOS>MOLECULE
3tcz_R2Z_A_1.pdb
 30 30 0 0 0
SMALL
GASTEIGER

@<TRIPOS>ATOM
      1  P          5.7020   47.2370   12.7590 P.3     1  R2Z1        0.5327
      2  N0         6.2900   44.7130   10.2290 N.am    1  R2Z1       -0.1924
      3  O0         8.1830   45.5190    9.2680 O.2     1  R2Z1       -0.2633
      4  C1         4.9690   42.8370   11.0880 C.2     1  R2Z1       -0.0104
      5  N1         8.0450   41.5900   12.2340 N.am    1  R2Z1       -0.1975
      6  C2         5.0440   41.7400   11.8500 C.2     1  R2Z1       -0.0385
      7  N2        11.1800   40.4170   13.7490 N.am    1  R2Z1       -0.0863
      8  O2         7.4790   40.1920   13.8540 O.2     1  R2Z1       -0.2730
      9  C3         5.7310   41.6170   13.1830 C.3     1  R2Z1        0.0962
     10  N3        10.8130   39.4110    8.1780 N.pl3   1  R2Z1       -0.0865
     11  O3        10.0020   42.2560   14.0480 O.2     1  R2Z1       -0.2698
     12  C4         4.9200   40.5000   13.8390 C.3     1  R2Z1        0.0135
     13  N4         9.1450   38.7580    6.6920 N.pl3   1  R2Z1        0.1354
     14  C5         4.3460   39.6410   12.7130 C.3     1  R2Z1        0.0052
     15  N5        10.8680   37.3080    7.2130 N.pl3   1  R2Z1        0.1354
     16  C6         4.3520   40.4710   11.4340 C.3     1  R2Z1        0.0222
     17  C7         7.1430   41.1100   13.1020 C.2     1  R2Z1        0.2451
     18  C9         9.3590   40.9330   12.1180 C.3     1  R2Z1        0.1745
     19  C10       10.2110   41.2430   13.3610 C.2     1  R2Z1        0.2806
     20  C11       10.0330   41.4600   10.8670 C.3     1  R2Z1        0.0349
     21  C12       11.1380   40.5350   10.3500 C.3     1  R2Z1        0.0492
     22  C13       10.5630   39.3300    9.6140 C.3     1  R2Z1        0.2205
     23  C14       10.2790   38.4960    7.3570 C.cat   1  R2Z1        0.5346
     24  O1P        7.1130   46.7220   12.6290 O.3     1  R2Z1       -0.1145
     25  C20        5.6430   44.1830   11.4490 C.3     1  R2Z1        0.1472
     26  C21        4.5180   45.1230   11.9450 C.3     1  R2Z1        0.1797
     27  C22        7.6090   44.7000   10.0590 C.2     1  R2Z1        0.3205
     28  O2P        5.5810   48.7250   12.5660 O.2     1  R2Z1       -0.2224
     29  O3P        5.1900   46.9330   14.1540 O.3     1  R2Z1       -0.1145
     30  O4P        4.8330   46.5760   11.6930 O.3     1  R2Z1       -0.2680
@<TRIPOS>BOND
     1    13    23    1
     2    15    23    1
     3    23    10    2
     4    10    22    1
     5     3    27    2
     6    22    21    1
     7    27     2   am
     8     2    25    1
     9    21    20    1
    10    20    18    1
    11     4    25    1
    12     4     6    2
    13    16     6    1
    14    16    14    1
    15    25    26    1
    16    30    26    1
    17    30     1    1
    18     6     9    1
    19    18     5    1
    20    18    19    1
    21     5    17   am
    22    28     1    2
    23    24     1    1
    24    14    12    1
    25     1    29    1
    26    17     9    1
    27    17     8    2
    28     9    12    1
    29    19     7   am
    30    19    11    2
