@<TRIPOS>MOLECULE
3td4_API_A_1.pdb
 13 12 0 0 0
SMALL
GASTEIGER

@<TRIPOS>ATOM
      1  C1        22.5490    1.0090   30.0020 C.2   401  API401      0.3819
      2  C2        21.4150    1.9200   30.3680 C.3   401  API401      0.1943
      3  C3        20.7920    2.5830   29.0850 C.3   401  API401      0.0307
      4  C4        20.4200    1.6020   28.0020 C.3   401  API401      0.0041
      5  C5        19.0930    2.0760   27.3030 C.3   401  API401      0.0307
      6  C6        19.4270    3.0420   26.1780 C.3   401  API401      0.1943
      7  C7        18.1670    3.8350   25.7830 C.2   401  API401      0.3819
      8  O1        23.5700    1.5790   29.5070 O.co2 401  API401     -0.2441
      9  O2        22.4150   -0.2280   30.1640 O.co2 401  API401     -0.2441
     10  O3        17.9270    3.8710   24.5670 O.co2 401  API401     -0.2441
     11  O4        17.4070    4.4110   26.5810 O.co2 401  API401     -0.2441
     12  N2        22.0200    2.9840   31.1580 N.3   401  API401     -0.1208
     13  N6        20.0250    2.2620   25.0780 N.3   401  API401     -0.1208
@<TRIPOS>BOND
     1    10     7   ar
     2    13     6    1
     3     7     6    1
     4     7    11   ar
     5     6     5    1
     6     5     4    1
     7     4     3    1
     8     3     2    1
     9     8     1   ar
    10     1     9   ar
    11     1     2    1
    12     2    12    1
