@<TRIPOS>MOLECULE
3td5_III_I_1.pdb
 37 36 0 0 0
SMALL
GASTEIGER

@<TRIPOS>ATOM
      1  N         63.6560  161.4900  -19.9340 N.3   401  ALA401     -0.1231
      2  CA        62.7620  161.2370  -18.7950 C.3   401  ALA401      0.1694
      3  C         61.3970  161.8840  -19.0460 C.2   401  ALA401      0.2593
      4  O         60.3710  161.4030  -18.5700 O.2   401  ALA401     -0.2718
      5  CB        63.3770  161.8310  -17.5260 C.3   401  ALA401      0.0304
      6  N         61.4200  162.9850  -19.7920 N.am  402  FGA402     -0.1944
      7  CA        60.1950  163.7250  -20.1270 C.3   402  FGA402      0.1983
      8  C         60.5740  165.1550  -20.5190 C.2   402  FGA402      0.3842
      9  O         61.7530  165.3420  -20.8900 O.co2 402  FGA402     -0.2437
     10  CB        59.5090  163.0370  -21.3100 C.3   402  FGA402      0.0429
     11  CG        58.1710  163.7000  -21.6420 C.3   402  FGA402      0.0892
     12  CD        57.5170  163.0340  -22.8550 C.2   402  FGA402      0.2421
     13  OE1       58.1920  163.0520  -24.0350 O.2   402  FGA402     -0.2733
     14  OXT       59.6850  166.0300  -20.4350 O.co2 402  FGA402     -0.2437
     15  C1        54.5850  162.7820  -24.3770 C.2   403  LYS403      0.2659
     16  C2        55.6350  161.8160  -23.8250 C.3   403  LYS403      0.1943
     17  C3        54.9940  160.5070  -23.3620 C.2   403  LYS403     -0.0002
     18  C4        55.7530  159.3420  -23.3820 C.2   403  LYS403     -0.0264
     19  C5        55.2030  158.1340  -22.9660 C.3   403  LYS403      0.0563
     20  C6        54.2300  157.5850  -24.0100 C.3   403  LYS403      0.1986
     21  C7        53.5470  156.3320  -23.4610 C.2   403  LYS403      0.3822
     22  O1        54.7390  163.2130  -25.6570 O.2   403  LYS403     -0.2711
     23  O3        52.9910  156.4340  -22.3450 O.co2 403  LYS403     -0.2440
     24  O4        53.5890  155.3030  -24.1690 O.co2 403  LYS403     -0.2440
     25  N2        56.3260  162.4630  -22.7000 N.am  403  LYS403     -0.1932
     26  N6        54.9640  157.2600  -25.2420 N.3   403  LYS403     -0.1205
     27  N         53.5830  163.1510  -23.5830 N.am  404  DAL404     -0.1961
     28  CA        52.5390  164.0930  -24.0170 C.3   404  DAL404      0.1729
     29  CB        51.9880  164.8400  -22.8010 C.3   404  DAL404      0.0334
     30  C         51.3950  163.3650  -24.7260 C.2   404  DAL404      0.2617
     31  O         51.1250  162.1940  -24.4610 O.2   404  DAL404     -0.2715
     32  N         50.7400  164.0990  -25.6210 N.am  405  DAL405     -0.1942
     33  CA        49.6100  163.5740  -26.4020 C.3   405  DAL405      0.1979
     34  CB        49.5930  164.2200  -27.7890 C.3   405  DAL405      0.0356
     35  C         48.2970  163.8960  -25.6860 C.2   405  DAL405      0.3842
     36  O         48.3110  164.8430  -24.8700 O.co2 405  DAL405     -0.2437
     37  OXT       47.3060  163.1910  -25.9780 O.co2 405  DAL405     -0.2437
@<TRIPOS>BOND
     1    34    33    1
     2    33    35    1
     3    33    32    1
     4    37    35   ar
     5    35    36   ar
     6    22    15    2
     7    32    30   am
     8    26    20    1
     9    30    31    2
    10    30    28    1
    11    15    16    1
    12    15    27   am
    13    24    21   ar
    14    13    12    2
    15    28    27    1
    16    28    29    1
    17    20    21    1
    18    20    19    1
    19    16    17    1
    20    16    25    1
    21    21    23   ar
    22    18    17    2
    23    18    19    1
    24    12    25   am
    25    12    11    1
    26    11    10    1
    27    10     7    1
    28     9     8   ar
    29     8    14   ar
    30     8     7    1
    31     7     6    1
    32     1     2    1
    33     6     3   am
    34     3     2    1
    35     3     4    2
    36     2     5    1
