@<TRIPOS>MOLECULE
3td8_NAP_A_1.pdb
 48 52 0 0 0
SMALL
GASTEIGER

@<TRIPOS>ATOM
      1  PA        15.6160    4.6190   23.0430 P.3   301  NAP301      0.2189
      2  O1A       15.6650    4.9080   21.5860 O.2   301  NAP301     -0.5170
      3  O2A       14.3530    4.2640   23.7780 O.3   301  NAP301     -0.4371
      4  O5B       16.1440    5.9650   23.7150 O.3   301  NAP301     -0.3112
      5  C5B       16.2840    6.0810   25.1610 C.3   301  NAP301      0.1813
      6  C4B       16.1970    7.4860   25.5760 C.3   301  NAP301      0.1820
      7  O4B       14.9780    8.1590   25.0570 O.3   301  NAP301     -0.3136
      8  C3B       16.1560    7.6850   27.0530 C.3   301  NAP301      0.2157
      9  O3B       17.4830    7.8740   27.5950 O.3   301  NAP301     -0.2175
     10  C2B       15.4160    9.0360   27.1030 C.3   301  NAP301      0.2314
     11  O2B       16.2160   10.1190   26.5920 O.3   301  NAP301     -0.2630
     12  C1B       14.3190    8.8540   26.0740 C.3   301  NAP301      0.3158
     13  N9A       13.1770    8.0410   26.5480 N.pl3 301  NAP301     -0.1439
     14  C8A       12.8360    6.7780   26.2240 C.3   301  NAP301      0.3377
     15  N7A       11.6780    6.4320   26.8750 N.2   301  NAP301     -0.2095
     16  C5A       11.3130    7.5120   27.5840 C.2   301  NAP301      0.2526
     17  C6A       10.2340    7.7620   28.4200 C.2   301  NAP301      0.4393
     18  N6A        9.2990    6.8020   28.6680 N.pl3 301  NAP301      0.2180
     19  N1A       10.1580    9.0040   28.9590 N.2   301  NAP301      0.0021
     20  C2A       11.0880    9.9400   28.7370 C.3   301  NAP301      0.5254
     21  N3A       12.1450    9.7370   27.9430 N.2   301  NAP301     -0.0055
     22  C4A       12.2770    8.5230   27.3870 C.2   301  NAP301      0.3518
     23  O3        16.8060    3.6150   23.4020 O.3   301  NAP301     -0.2703
     24  PN        17.0600    2.2240   23.8600 P.3   301  NAP301      0.2189
     25  O1N       16.1900    1.7690   24.9780 O.3   301  NAP301     -0.4371
     26  O2N       18.5330    2.1600   24.1370 O.2   301  NAP301     -0.5170
     27  O5D       16.9190    1.4330   22.5330 O.3   301  NAP301     -0.3112
     28  C5D       17.7750    1.8210   21.3470 C.3   301  NAP301      0.1813
     29  C4D       18.1610    0.5060   20.6740 C.3   301  NAP301      0.1799
     30  O4D       16.9120    0.0470   20.0640 O.3   301  NAP301     -0.3327
     31  C3D       19.2130    0.4050   19.5390 C.3   301  NAP301      0.2158
     32  O3D       19.7720   -0.9560   19.5400 O.3   301  NAP301     -0.2175
     33  C2D       18.3770    0.5780   18.3230 C.3   301  NAP301      0.2309
     34  O2D       19.1080    0.1340   17.1580 O.3   301  NAP301     -0.2158
     35  C1D       17.2560   -0.4230   18.6930 C.3   301  NAP301      0.2263
     36  N1N       16.0280   -0.2980   17.9060 N.pl3 301  NAP301     -0.2787
     37  C2N       15.4660   -1.4140   17.2530 C.3   301  NAP301      0.1244
     38  C3N       14.2910   -1.3080   16.5280 C.2   301  NAP301      0.0544
     39  C7N       13.6740   -2.5110   15.8410 C.2   301  NAP301      0.2818
     40  O7N       12.6350   -2.4190   15.2200 O.2   301  NAP301     -0.2670
     41  N7N       14.3610   -3.6600   15.8300 N.am  301  NAP301     -0.0839
     42  C4N       13.5580    0.0490   16.4420 C.2   301  NAP301      0.0033
     43  C5N       14.2640    1.1040   17.0490 C.2   301  NAP301      0.0157
     44  C6N       15.4190    0.9540   17.7990 C.2   301  NAP301      0.0633
     45  P2B       17.0000   11.1980   27.5620 P.3   301  NAP301      0.5328
     46  O1X       16.0880   11.7550   28.6060 O.3   301  NAP301     -0.1145
     47  O2X       17.3500   12.3000   26.4550 O.2   301  NAP301     -0.2224
     48  O3X       18.1840   10.2110   28.0040 O.3   301  NAP301     -0.1145
@<TRIPOS>BOND
     1    40    39    2
     2    41    39   am
     3    39    38    1
     4    42    38    2
     5    42    43    1
     6    38    37    1
     7    43    44    2
     8    34    33    1
     9    37    36    1
    10    44    36    1
    11    36    35    1
    12    33    35    1
    13    33    31    1
    14    35    30    1
    15    31    32    1
    16    31    29    1
    17    30    29    1
    18    29    28    1
    19    28    27    1
    20     2     1    2
    21    27    24    1
    22     1    23    1
    23     1     4    1
    24     1     3    1
    25    23    24    1
    26     4     5    1
    27    24    26    2
    28    24    25    1
    29     7     6    1
    30     7    12    1
    31     5     6    1
    32     6     8    1
    33    12    13    1
    34    12    10    1
    35    14    13    1
    36    14    15    1
    37    47    45    2
    38    13    22    1
    39    11    10    1
    40    11    45    1
    41    15    16    2
    42     8    10    1
    43     8     9    1
    44    22    16    1
    45    22    21    2
    46    45    48    1
    47    45    46    1
    48    16    17    1
    49    21    20    1
    50    17    18    1
    51    17    19    2
    52    20    19    1
