@<TRIPOS>MOLECULE
3td8_D2R_A_1.pdb
 30 32 0 0 0
SMALL
GASTEIGER

@<TRIPOS>ATOM
      1  N1        10.3280   -1.2690   13.1140 N.2   302  D2R302     -0.3061
      2  C2        10.6290   -2.1000   12.1000 C.1   302  D2R302      0.2517
      3  N3        11.6560   -1.8720   11.2790 N.2   302  D2R302     -0.2706
      4  C4        12.3830   -0.7550   11.4300 C.1   302  D2R302      0.1046
      5  C5        12.1480    0.1490   12.5120 C.2   302  D2R302      0.1185
      6  C6        11.0600   -0.1900   13.4000 C.2   302  D2R302      0.2427
      7  CAA       18.1600    2.3660   15.4310 C.3   302  D2R302      0.2525
      8  CAB       12.8520    2.4190   13.7090 C.3   302  D2R302      0.0316
      9  NAC        9.8870   -3.2100   11.8780 N.pl3 302  D2R302     -0.0226
     10  NAD       10.7220    0.5680   14.4510 N.pl3 302  D2R302     -0.0914
     11  OAE       11.5420    4.9540    7.0480 O.co2 302  D2R302     -0.2457
     12  OAF       12.0690    6.5540    5.6200 O.co2 302  D2R302     -0.2457
     13  CAG       16.2630    3.3810    8.3950 C.1   302  D2R302     -0.0864
     14  CAH       16.7330    3.0650    9.4700 C.1   302  D2R302     -0.0647
     15  CAI       19.1820    2.0170   12.0960 C.ar  302  D2R302      0.0375
     16  CAJ       18.6620    2.4060   10.8630 C.ar  302  D2R302      0.0110
     17  CAK       14.1290    0.5520   10.6830 C.2   302  D2R302      0.1063
     18  CAL       16.9190    2.1510   13.0570 C.ar  302  D2R302      0.0336
     19  CAM       15.7670    3.7770    7.0630 C.3   302  D2R302      0.0770
     20  CAN       14.2800    4.0420    7.1810 C.3   302  D2R302      0.0258
     21  CAO       13.8040    5.0530    6.1520 C.3   302  D2R302      0.1151
     22  CAP       14.9320    2.7700   11.6970 C.3   302  D2R302      0.0546
     23  NAQ       13.3720   -0.5460   10.5490 N.2   302  D2R302     -0.1818
     24  OAT       18.7740    1.5370   14.4300 O.3   302  D2R302     -0.4714
     25  CAU       12.3590    5.5540    6.3010 C.2   302  D2R302      0.3649
     26  CAX       12.9640    1.3230   12.6220 C.2   302  D2R302     -0.0097
     27  CAY       18.2950    1.9090   13.2040 C.ar  302  D2R302      0.1385
     28  CAZ       17.2810    2.6560   10.7320 C.ar  302  D2R302      0.0382
     29  CBA       13.9930    1.5120   11.6850 C.2   302  D2R302     -0.0010
     30  CBB       16.4050    2.5040   11.8220 C.ar  302  D2R302     -0.0071
@<TRIPOS>BOND
     1    12    25   ar
     2    21    25    1
     3    21    20    1
     4    25    11   ar
     5    19    20    1
     6    19    13    1
     7    13    14    3
     8    14    28    1
     9    23    17    1
    10    23     4    2
    11    17    29    2
    12    28    16   ar
    13    28    30   ar
    14    16    15   ar
    15     3     4    2
    16     3     2    2
    17     4     5    1
    18    29    22    1
    19    29    26    1
    20    22    30    1
    21    30    18   ar
    22     9     2    1
    23    15    27   ar
    24     2     1    2
    25     5    26    2
    26     5     6    1
    27    26     8    1
    28    18    27   ar
    29     1     6    2
    30    27    24    1
    31     6    10    1
    32    24     7    1
