@<TRIPOS>MOLECULE
3td9_PHE_A_1.pdb
 12 12 0 0 0
SMALL
GASTEIGER

@<TRIPOS>ATOM
      1  N         12.1360   32.7990    6.3810 N.3   400  PHE400     -0.1205
      2  CA        10.7550   33.3700    6.2550 C.3   400  PHE400      0.1986
      3  C         10.8630   34.8760    6.0040 C.2   400  PHE400      0.3822
      4  O         11.9730   35.4310    6.0940 O.co2 400  PHE400     -0.2440
      5  CB         9.9520   33.1700    7.5700 C.3   400  PHE400      0.0569
      6  CG         9.7690   31.7530    7.9690 C.ar  400  PHE400     -0.0202
      7  CD1       10.8240   31.0310    8.5270 C.ar  400  PHE400     -0.0042
      8  CD2        8.5260   31.1490    7.8700 C.ar  400  PHE400     -0.0042
      9  CE1       10.6540   29.7040    8.9170 C.ar  400  PHE400     -0.0003
     10  CE2        8.3480   29.8260    8.2160 C.ar  400  PHE400     -0.0003
     11  CZ         9.4180   29.0890    8.7670 C.ar  400  PHE400     -0.0000
     12  OXT        9.8430   35.5610    5.7700 O.co2 400  PHE400     -0.2440
@<TRIPOS>BOND
     1    12     3   ar
     2     3     4   ar
     3     3     2    1
     4     2     1    1
     5     2     5    1
     6     5     6    1
     7     8     6   ar
     8     8    10   ar
     9     6     7   ar
    10    10    11   ar
    11     7     9   ar
    12    11     9   ar
