@<TRIPOS>MOLECULE
3tda_PN0_A_1.pdb
 28 30 0 0 0
SMALL
GASTEIGER

@<TRIPOS>ATOM
      1  N1         4.8010   29.3270   -6.5660 N.3   503  PN0503     -0.1492
      2  N3         5.6060   30.0750   -3.3970 N.am  503  PN0503     -0.2015
      3  C4         5.8330   30.4670   -8.5920 C.3   503  PN0503      0.0767
      4  C5         4.2890   27.1730   -4.8150 C.ar  503  PN0503      0.1224
      5  C6         5.5620   26.5270   -4.8410 C.ar  503  PN0503      0.0230
      6  C7         5.9460   25.7580   -3.7420 C.ar  503  PN0503      0.0389
      7  C8         5.0720   25.6340   -2.6220 C.ar  503  PN0503      0.1454
      8  C10        3.4150   27.0650   -3.6930 C.ar  503  PN0503      0.0230
      9  C13        6.8340   24.3400    1.6470 C.ar  503  PN0503      0.1020
     10  C15        6.3060   26.5670    0.0480 C.ar  503  PN0503      0.0581
     11  C17        4.6850   33.0730   -5.5820 C.3   503  PN0503      0.0127
     12  C1         4.6960   31.8500   -6.5160 C.3   503  PN0503      0.0601
     13  C2         4.7550   30.5180   -5.6720 C.3   503  PN0503      0.1334
     14  C3         5.7630   29.2110   -7.7110 C.3   503  PN0503      0.1078
     15  S1         6.0540   32.0090   -7.6770 S.3   503  PN0503     -0.1386
     16  S2         3.8090   28.0700   -6.2000 S.O2  503  PN0503      0.0636
     17  C9         3.8180   26.2920   -2.6030 C.ar  503  PN0503      0.0389
     18  O1         5.3870   24.8650   -1.5490 O.3   503  PN0503     -0.4534
     19  C11        5.9670   25.2410   -0.3980 C.ar  503  PN0503      0.1484
     20  C12        6.2350   24.1340    0.4050 C.ar  503  PN0503      0.0581
     21  N2         7.1620   25.5770    2.0890 N.ar  503  PN0503     -0.2421
     22  C14        6.9080   26.6670    1.3190 C.ar  503  PN0503      0.1020
     23  O2         3.9460   27.1070   -7.2560 O.2   503  PN0503     -0.1528
     24  O3         2.4850   28.6190   -5.9500 O.2   503  PN0503     -0.1528
     25  C16        5.9320   30.4360   -4.6650 C.2   503  PN0503      0.1037
     26  O4         6.5610   29.9550   -2.3640 O.3   503  PN0503     -0.4026
     27  O5         7.0990   30.6880   -5.0070 O.2   503  PN0503     -0.5381
     28  C18        3.3330   31.9230   -7.2390 C.3   503  PN0503      0.0127
@<TRIPOS>BOND
     1     3    14    1
     2     3    15    1
     3    14     1    1
     4    15    12    1
     5    23    16    2
     6    28    12    1
     7     1    16    1
     8     1    13    1
     9    12    13    1
    10    12    11    1
    11    16    24    2
    12    16     4    1
    13    13    25    1
    14    27    25    2
    15     5     4   ar
    16     5     6   ar
    17     4     8   ar
    18    25     2   am
    19     6     7   ar
    20     8    17   ar
    21     2    26    1
    22     7    17   ar
    23     7    18    1
    24    18    19    1
    25    19    10   ar
    26    19    20   ar
    27    10    22   ar
    28    20     9   ar
    29    22    21   ar
    30     9    21   ar
