@<TRIPOS>MOLECULE
3tda_HEM_A_1.pdb
 43 50 0 0 0
SMALL
GASTEIGER

@<TRIPOS>ATOM
      1  CHA       10.8150   26.6200    2.3320 C.2   800  HEM800      0.0000
      2  CHB        8.6030   23.0410    4.5140 C.2   800  HEM800      0.0000
      3  CHC        5.2760   26.0430    5.9420 C.2   800  HEM800      0.0000
      4  CHD        7.4320   29.5750    3.6650 C.2   800  HEM800      0.0000
      5  C1A       10.6280   25.3700    2.9040 C.2   800  HEM800      0.0000
      6  C2A       11.3690   24.2110    2.6000 C.2   800  HEM800      0.0000
      7  C3A       10.6830   23.1690    3.1580 C.2   800  HEM800      0.0000
      8  C4A        9.5540   23.7330    3.7860 C.2   800  HEM800      0.0000
      9  CMA       11.0750   21.6420    3.1110 C.3   800  HEM800      0.0000
     10  CAA       12.6730   24.1520    1.8000 C.3   800  HEM800      0.0000
     11  CBA       13.9420   24.2860    2.5620 C.3   800  HEM800      0.0000
     12  CGA       15.1540   24.1350    1.6500 C.2   800  HEM800      0.0000
     13  O1A       15.2720   24.8280    0.6380 O.co2 800  HEM800      0.0000
     14  O2A       16.0030   23.2840    1.8880 O.co2 800  HEM800      0.0000
     15  C1B        7.4170   23.4620    5.0920 C.ar  800  HEM800      0.0000
     16  C2B        6.5260   22.6900    5.8970 C.ar  800  HEM800      0.0000
     17  C3B        5.5240   23.6030    6.3130 C.ar  800  HEM800      0.0000
     18  C4B        5.9010   24.8450    5.7240 C.ar  800  HEM800      0.0000
     19  CMB        6.6720   21.2280    6.2050 C.3   800  HEM800      0.0000
     20  CAB        4.3860   23.4030    7.1210 C.3   800  HEM800      0.0000
     21  CBB        4.1230   22.4290    8.1870 C.3   800  HEM800      0.0000
     22  C1C        5.3720   27.2690    5.2990 C.2   800  HEM800      0.0000
     23  C2C        4.7460   28.4350    5.7620 C.2   800  HEM800      0.0000
     24  C3C        5.4150   29.5030    5.1830 C.2   800  HEM800      0.0000
     25  C4C        6.4310   28.9180    4.3870 C.2   800  HEM800      0.0000
     26  CMC        3.5330   28.5220    6.7480 C.3   800  HEM800      0.0000
     27  CAC        5.2190   30.8670    5.3080 C.3   800  HEM800      0.0000
     28  CBC        4.6800   31.8010    4.4160 C.3   800  HEM800      0.0000
     29  C1D        8.4980   29.0780    3.0070 C.ar  800  HEM800      0.0000
     30  C2D        9.4200   29.8480    2.2900 C.ar  800  HEM800      0.0000
     31  C3D       10.4370   29.0210    1.9240 C.ar  800  HEM800      0.0000
     32  C4D       10.0750   27.7640    2.4430 C.ar  800  HEM800      0.0000
     33  CMD        9.3320   31.3610    1.9530 C.3   800  HEM800      0.0000
     34  CAD       11.7090   29.3860    1.1100 C.3   800  HEM800      0.0000
     35  CBD       12.9070   29.8330    1.9880 C.3   800  HEM800      0.0000
     36  CGD       14.2180   30.2170    1.2630 C.2   800  HEM800      0.0000
     37  O1D       15.0170   30.9740    1.7560 O.co2 800  HEM800      0.0000
     38  O2D       14.4510   29.7290    0.1640 O.co2 800  HEM800      0.0000
     39  NA         9.5210   25.0430    3.6340 N.2   800  HEM800      0.0000
     40  NB         7.0130   24.7300    5.0130 N.ar  800  HEM800      0.0000
     41  NC         6.3820   27.5540    4.4770 N.2   800  HEM800      0.0000
     42  ND         8.9120   27.8390    3.0810 N.ar  800  HEM800      0.0000
     43 FE          7.9190   26.2680    4.0290 Fe    800  HEM800      0.0000
@<TRIPOS>BOND
     1    38    36   ar
     2    13    12   ar
     3    34    31    1
     4    34    35    1
     5    36    37   ar
     6    36    35    1
     7    12    14   ar
     8    12    11    1
     9    10    11    1
    10    10     6    1
    11    31    30   ar
    12    31    32   ar
    13    33    30    1
    14    30    29   ar
    15     1    32    2
    16     1     5    1
    17    32    42   ar
    18     6     5    1
    19     6     7    2
    20     5    39    2
    21    29    42   ar
    22    29     4    2
    23    42    43    1
    24     9     7    1
    25     7     8    1
    26    39     8    1
    27    39    43    1
    28     4    25    1
    29     8     2    2
    30    43    41    1
    31    43    40    1
    32    25    41    2
    33    25    24    1
    34    28    27    1
    35    41    22    1
    36     2    15    1
    37    40    15   ar
    38    40    18   ar
    39    15    16   ar
    40    24    27    1
    41    24    23    2
    42    22    23    1
    43    22     3    2
    44    18     3    1
    45    18    17   ar
    46    23    26    1
    47    16    19    1
    48    16    17   ar
    49    17    20    1
    50    20    21    1
