@<TRIPOS>MOLECULE
3tdb_3TB_A_1.pdb
 39 40 0 0 0
SMALL
GASTEIGER

@<TRIPOS>ATOM
      1  N          7.1170   45.9960    7.2810 N.3     1  3TB1       -0.1227
      2  P          5.8160   47.1170   12.9290 P.3     1  3TB1        0.5327
      3  N0         5.4740   43.8740    9.5160 N.am    1  3TB1       -0.1989
      4  O0         5.9140   43.4290    7.3830 O.2     1  3TB1       -0.2718
      5  C1         5.6950   43.4020   11.9630 C.2     1  3TB1       -0.0104
      6  N1         7.8420   41.7320   12.8320 N.am    1  3TB1       -0.1975
      7  C2         5.2610   42.1090   11.9980 C.2     1  3TB1       -0.0385
      8  N2        11.0880   40.7880   11.3100 N.am    1  3TB1       -0.0863
      9  O2         7.2820   39.6950   13.6910 O.2     1  3TB1       -0.2730
     10  C3         5.5140   41.2280   13.1980 C.3     1  3TB1        0.0962
     11  N3        12.9020   39.5640   15.3680 N.pl3   1  3TB1       -0.0865
     12  O3         8.9720   40.1010   11.0470 O.2     1  3TB1       -0.2698
     13  C4         4.6200   40.0140   12.9680 C.3     1  3TB1        0.0135
     14  N4        13.9000   37.6750   16.2380 N.pl3   1  3TB1        0.1354
     15  C5         4.4690   39.9000   11.4280 C.3     1  3TB1        0.0052
     16  N5        12.3250   38.8220   17.4840 N.pl3   1  3TB1        0.1354
     17  C6         4.5160   41.3800   10.9080 C.3     1  3TB1        0.0222
     18  C7         6.9690   40.8050   13.2660 C.2     1  3TB1        0.2451
     19  C9         9.3200   41.7070   12.7370 C.3     1  3TB1        0.1745
     20  C10        9.7920   40.7820   11.6370 C.2     1  3TB1        0.2806
     21  C11        9.9410   41.5120   14.1390 C.3     1  3TB1        0.0349
     22  C12       11.0090   40.4310   14.2710 C.3     1  3TB1        0.0492
     23  C13       11.9610   40.6830   15.4450 C.3     1  3TB1        0.2205
     24  C14       13.0400   38.6880   16.3650 C.cat   1  3TB1        0.5346
     25  O1P        7.1850   46.5260   12.6730 O.3     1  3TB1       -0.1145
     26  C20        5.6150   44.4570   10.8600 C.3     1  3TB1        0.1468
     27  C21        4.5980   45.5750   11.1640 C.3     1  3TB1        0.1797
     28  C22        6.2170   44.0440    8.3990 C.2     1  3TB1        0.2595
     29  C23        7.4140   44.9770    8.2820 C.3     1  3TB1        0.1736
     30  O2P        5.5830   48.4030   12.1760 O.2     1  3TB1       -0.2224
     31  C31        7.8740   45.6580    9.5820 C.3     1  3TB1        0.0547
     32  C32        9.3740   45.5340    9.7800 C.ar    1  3TB1       -0.0202
     33  C33       10.2420   46.4830    9.2200 C.ar    1  3TB1       -0.0042
     34  C34       11.6240   46.3700    9.4050 C.ar    1  3TB1       -0.0003
     35  C35       12.1390   45.3040   10.1500 C.ar    1  3TB1       -0.0000
     36  C36       11.2760   44.3560   10.7080 C.ar    1  3TB1       -0.0003
     37  C37        9.8950   44.4710   10.5260 C.ar    1  3TB1       -0.0042
     38  O3P        5.6830   47.4040   14.4060 O.3     1  3TB1       -0.1145
     39  O4P        4.6840   46.0090   12.5320 O.3     1  3TB1       -0.2680
@<TRIPOS>BOND
     1     1    29    1
     2     4    28    2
     3    29    28    1
     4    29    31    1
     5    28     3   am
     6    33    34   ar
     7    33    32   ar
     8    34    35   ar
     9     3    26    1
    10    31    32    1
    11    32    37   ar
    12    35    36   ar
    13    37    36   ar
    14    26    27    1
    15    26     5    1
    16    17    15    1
    17    17     7    1
    18    12    20    2
    19    27    39    1
    20     8    20   am
    21    15    13    1
    22    20    19    1
    23     5     7    2
    24     7    10    1
    25    30     2    2
    26    39     2    1
    27    25     2    1
    28    19     6    1
    29    19    21    1
    30     6    18   am
    31     2    38    1
    32    13    10    1
    33    10    18    1
    34    18     9    2
    35    21    22    1
    36    22    23    1
    37    11    23    1
    38    11    24    2
    39    14    24    1
    40    24    16    1
