@<TRIPOS>MOLECULE
3tdc_0EU_A_1.pdb
 36 40 0 0 0
SMALL
GASTEIGER

@<TRIPOS>ATOM
      1  C1        35.9370   61.2440   46.1500 C.ar  3000  0EU3000     0.0122
      2  C2        35.0590   60.1460   46.1880 C.ar  3000  0EU3000     0.0007
      3  C3        35.4730   58.9060   45.6720 C.ar  3000  0EU3000     0.0000
      4  C4        36.7670   58.7710   45.1120 C.ar  3000  0EU3000     0.0005
      5  C5        37.6350   59.8740   45.0740 C.ar  3000  0EU3000     0.0065
      6  C6        37.2170   61.1120   45.5930 C.ar  3000  0EU3000     0.0309
      7  S7        38.2440   62.4710   45.5610 S.2   3000  0EU3000    -0.0702
      8  C8        36.9790   63.3840   46.3370 C.ar  3000  0EU3000     0.1087
      9  N9        37.0770   64.7110   46.6780 N.am  3000  0EU3000    -0.1542
     10  C10       38.1720   65.4290   46.3820 C.2   3000  0EU3000     0.3440
     11  O10       39.1210   64.9240   45.8080 O.2   3000  0EU3000    -0.2488
     12  N11       38.2430   66.7160   46.7170 N.am  3000  0EU3000    -0.1869
     13  C14       35.7820   62.5700   46.6020 C.ar  3000  0EU3000     0.0755
     14  C15       34.5180   63.0480   47.2420 C.2   3000  0EU3000     0.2508
     15  N15       34.2030   62.6710   48.4900 N.am  3000  0EU3000    -0.2759
     16  O15       33.7900   63.7850   46.5840 O.2   3000  0EU3000    -0.2698
     17  C16       32.9610   63.1150   49.1350 C.3   3000  0EU3000     0.0951
     18  C17       33.3990   63.9400   50.3420 C.3   3000  0EU3000     0.0375
     19  C18       35.0400   61.7770   49.2950 C.3   3000  0EU3000     0.0951
     20  C19       35.3880   62.4900   50.6000 C.3   3000  0EU3000     0.0375
     21  C20       34.1730   63.0710   51.3290 C.3   3000  0EU3000     0.0609
     22  N20       34.6120   63.8950   52.4810 N.3   3000  0EU3000    -0.2734
     23  C21       33.4490   64.5240   53.1540 C.3   3000  0EU3000     0.0721
     24  C22       33.9000   65.4190   54.3030 C.3   3000  0EU3000     0.0179
     25  C23       34.7400   64.6300   55.3140 C.3   3000  0EU3000     0.0135
     26  C24       35.4450   63.0930   53.4110 C.3   3000  0EU3000     0.0827
     27  C25       35.9030   63.8940   54.6340 C.3   3000  0EU3000     0.1076
     28  C26       36.5620   62.9540   55.5990 C.2   3000  0EU3000     0.3171
     29  O26       36.0920   61.9070   56.0260 O.2   3000  0EU3000    -0.2501
     30  O27       37.8710   63.4110   55.9780 O.3   3000  0EU3000    -0.4557
     31  C28       37.0230   64.8840   54.3390 C.3   3000  0EU3000     0.0520
     32  C29       38.1320   64.6760   55.3820 C.3   3000  0EU3000     0.1367
     33  C30       38.0550   65.7460   56.4730 C.3   3000  0EU3000     0.0437
     34  C31       39.5130   64.6330   54.7230 C.3   3000  0EU3000     0.0437
     35  C35       39.3770   67.5980   46.4550 C.3   3000  0EU3000     0.1169
     36  C36       39.2730   68.8660   47.2750 C.3   3000  0EU3000     0.0253
@<TRIPOS>BOND
     1     5     4   ar
     2     5     6   ar
     3     4     3   ar
     4     7     6   ar
     5     7     8   ar
     6     6     1   ar
     7     3     2   ar
     8    11    10    2
     9     1     2   ar
    10     1    13   ar
    11     8    13   ar
    12     8     9    1
    13    10     9   am
    14    10    12   am
    15    35    12    1
    16    35    36    1
    17    16    14    2
    18    13    14    1
    19    14    15   am
    20    15    17    1
    21    15    19    1
    22    17    18    1
    23    19    20    1
    24    18    21    1
    25    20    21    1
    26    21    22    1
    27    22    23    1
    28    22    26    1
    29    23    24    1
    30    26    27    1
    31    24    25    1
    32    31    27    1
    33    31    32    1
    34    27    25    1
    35    27    28    1
    36    34    32    1
    37    32    30    1
    38    32    33    1
    39    28    30    1
    40    28    29    2
