@<TRIPOS>MOLECULE
3tdd_BFO_K_1.pdb
 46 48 0 0 0
SMALL
GASTEIGER

@<TRIPOS>ATOM
      1  C1        16.6920 -143.5740   14.7650 C.ar  999  BFO999     -0.0002
      2  C2        17.3330 -144.1480   13.6310 C.ar  999  BFO999     -0.0007
      3  C3        16.8250 -145.3480   13.0090 C.ar  999  BFO999      0.0213
      4  C4        17.5750 -145.8800   11.7310 C.3   999  BFO999      0.2368
      5  O5        18.1410 -144.6630   11.1550 O.3   999  BFO999     -0.4285
      6  C6        18.8640 -144.5690   10.0010 C.2   999  BFO999      0.4218
      7  O7        19.1590 -145.5060    9.2260 O.2   999  BFO999     -0.2245
      8  N8        19.1960 -143.2240    9.8740 N.am  999  BFO999     -0.1611
      9  C9        19.9640 -142.4470    8.8680 C.3   999  BFO999      0.1762
     10  C10       19.6890 -142.9400    7.3970 C.3   999  BFO999      0.0335
     11  C11       19.5950 -140.9630    9.0410 C.2   999  BFO999      0.2618
     12  O12       20.4740 -140.0980    9.1380 O.2   999  BFO999     -0.2715
     13  N13       18.2480 -140.6550    9.0760 N.am  999  BFO999     -0.1943
     14  C14       17.5140 -139.8880   10.1350 C.3   999  BFO999      0.1935
     15  C15       17.8120 -138.3850   10.1210 C.2   999  BFO999      0.3373
     16  O16       17.6250 -137.7720    9.0690 O.2   999  BFO999     -0.2482
     17  O17       18.2400 -137.7810   11.2730 O.3   999  BFO999     -0.4423
     18  C18       18.4540 -136.3200   11.1790 C.3   999  BFO999      0.2351
     19  C19       19.8980 -135.8430   10.9500 C.ar  999  BFO999      0.0213
     20  C20       20.6810 -135.4130   12.0610 C.ar  999  BFO999     -0.0007
     21  C21       22.0240 -134.9560   11.8720 C.ar  999  BFO999     -0.0002
     22  C22       22.5870 -134.9290   10.5610 C.ar  999  BFO999     -0.0000
     23  C23       21.8090 -135.3550    9.4470 C.ar  999  BFO999     -0.0002
     24  C24       20.4690 -135.8100    9.6380 C.ar  999  BFO999     -0.0007
     25  C25       17.6070 -140.5420   11.5690 C.3   999  BFO999      0.0349
     26  C26       16.2600 -140.2700   12.3580 C.3   999  BFO999      0.0258
     27  C27       15.1030 -141.2940   11.9830 C.3   999  BFO999      0.1153
     28  N28       13.7280 -140.7120   12.0320 N.am  999  BFO999     -0.2033
     29  C29       12.8870 -140.7650   13.1650 C.2   999  BFO999      0.2723
     30  O30       13.1990 -141.2960   14.2290 O.2   999  BFO999     -0.2706
     31  C31       11.5120 -140.1150   13.0900 C.3   999  BFO999      0.2362
     32  O32       10.7240 -140.7300   12.0680 O.3   999  BFO999     -0.2127
     33  C33       11.5970 -138.5580   12.8400 C.3   999  BFO999      0.1043
     34  C34       10.2690 -137.7550   13.1220 C.3   999  BFO999      0.0104
     35  C35        9.7490 -137.9750   14.5780 C.3   999  BFO999      0.0005
     36  C36       10.5400 -136.2230   12.8410 C.3   999  BFO999      0.0005
     37  C37        9.3330 -135.2790   13.0620 C.3   999  BFO999      0.0000
     38  C38       12.0210 -138.2910   11.4020 C.2   999  BFO999      0.2100
     39  O39       13.1130 -137.8130   11.1040 O.2   999  BFO999     -0.2882
     40  C40       15.6460 -145.9740   13.5690 C.ar  999  BFO999     -0.0007
     41  C41       14.9850 -145.3840   14.7300 C.ar  999  BFO999     -0.0002
     42  C42       13.8100 -145.9790   15.3090 C.ar  999  BFO999     -0.0000
     43  C43       13.1660 -145.3720   16.4540 C.ar  999  BFO999     -0.0000
     44  C44       13.6910 -144.1800   17.0330 C.ar  999  BFO999     -0.0000
     45  C45       14.8670 -143.5830   16.4690 C.ar  999  BFO999     -0.0000
     46  C46       15.5240 -144.1720   15.3310 C.ar  999  BFO999     -0.0000
@<TRIPOS>BOND
     1    10     9    1
     2     9    11    1
     3     9     8    1
     4    11    13   am
     5    11    12    2
     6    16    15    2
     7    13    14    1
     8     7     6    2
     9    23    24   ar
    10    23    22   ar
    11    24    19   ar
    12     8     6   am
    13     6     5    1
    14    15    14    1
    15    15    17    1
    16    14    25    1
    17    22    21   ar
    18    19    18    1
    19    19    20   ar
    20    39    38    2
    21     5     4    1
    22    18    17    1
    23    38    33    1
    24    25    26    1
    25     4     3    1
    26    21    20   ar
    27    27    28    1
    28    27    26    1
    29    28    29   am
    30    32    31    1
    31    33    31    1
    32    33    34    1
    33    36    37    1
    34    36    34    1
    35     3    40   ar
    36     3     2   ar
    37    31    29    1
    38    34    35    1
    39    29    30    2
    40    40    41   ar
    41     2     1   ar
    42    41    42   ar
    43    41    46   ar
    44     1    46   ar
    45    42    43   ar
    46    46    45   ar
    47    43    44   ar
    48    45    44   ar
