@<TRIPOS>MOLECULE
3tdh_AMP_C_1.pdb
 23 25 0 0 0
SMALL
GASTEIGER

@<TRIPOS>ATOM
      1  P         31.0100   66.2800    1.8060 P.3   323  AMP323      0.5327
      2  O1P       31.5640   66.3330    3.2080 O.3   323  AMP323     -0.1145
      3  O2P       32.0400   66.4830    0.7190 O.2   323  AMP323     -0.2224
      4  O3P       30.0760   65.1130    1.5680 O.3   323  AMP323     -0.1145
      5  O5'       30.0630   67.5810    1.7080 O.3   323  AMP323     -0.2675
      6  C5'       29.3370   67.9020    0.5170 C.3   323  AMP323      0.1860
      7  C4'       29.0890   69.4110    0.4310 C.3   323  AMP323      0.1823
      8  O4'       28.4920   69.9020    1.6380 O.3   323  AMP323     -0.3135
      9  C3'       30.3770   70.1930    0.2380 C.3   323  AMP323      0.2184
     10  O3'       30.1430   71.2340   -0.7130 O.3   323  AMP323     -0.2174
     11  C2'       30.6950   70.7710    1.6060 C.3   323  AMP323      0.2570
     12  O2'       31.3340   72.0480    1.5290 O.3   323  AMP323     -0.2130
     13  C1'       29.3370   70.8590    2.2880 C.3   323  AMP323      0.3186
     14  N9        29.4090   70.5260    3.7320 N.pl3 323  AMP323     -0.1439
     15  C8        30.1530   69.5610    4.3100 C.3   323  AMP323      0.3377
     16  N7        29.9640   69.5340    5.6550 N.2   323  AMP323     -0.2095
     17  C5        29.0750   70.5000    5.9540 C.2   323  AMP323      0.2526
     18  C6        28.4200   71.0180    7.1800 C.2   323  AMP323      0.4393
     19  N6        28.6890   70.4880    8.3920 N.pl3 323  AMP323      0.2180
     20  N1        27.5460   72.0420    7.0480 N.2   323  AMP323      0.0021
     21  C2        27.2610   72.5880    5.8490 C.3   323  AMP323      0.5254
     22  N3        27.8130   72.1650    4.6960 N.2   323  AMP323     -0.0055
     23  C4        28.7100   71.1480    4.6820 C.2   323  AMP323      0.3518
@<TRIPOS>BOND
     1    10     9    1
     2     9     7    1
     3     9    11    1
     4     7     6    1
     5     7     8    1
     6     6     5    1
     7     3     1    2
     8    12    11    1
     9     4     1    1
    10    11    13    1
    11     8    13    1
    12     5     1    1
    13     1     2    1
    14    13    14    1
    15    14    15    1
    16    14    23    1
    17    15    16    1
    18    23    22    2
    19    23    17    1
    20    22    21    1
    21    16    17    2
    22    21    20    1
    23    17    18    1
    24    20    18    2
    25    18    19    1
