@<TRIPOS>MOLECULE
3tdj_3TJ_B_1.pdb
 15 16 0 0 0
SMALL
GASTEIGER

@<TRIPOS>ATOM
      1  CAA       76.3260   21.0600   27.1780 C.3   400  3TJ400      0.0232
      2  OAB       73.4220   16.4640   30.4290 O.2   400  3TJ400     -0.1515
      3  OAC       75.6990   16.8530   31.8970 O.2   400  3TJ400     -0.1515
      4  FAD       78.0100   14.4980   27.6530 F     400  3TJ400     -0.2041
      5  CAE       77.2390   16.6730   26.7250 C.ar  400  3TJ400      0.0310
      6  CAF       76.4900   17.8160   26.8850 C.ar  400  3TJ400      0.0182
      7  CAG       76.5480   15.7950   28.9630 C.ar  400  3TJ400      0.0508
      8  CAH       74.9760   20.3490   27.2950 C.3   400  3TJ400      0.0922
      9  CAI       73.9850   19.4250   29.4530 C.3   400  3TJ400      0.2091
     10  NAJ       74.5690   18.8030   30.6960 N.3   400  3TJ400     -0.0554
     11  CAK       77.2620   15.6210   27.8020 C.ar  400  3TJ400      0.1416
     12  CAL       75.7570   18.0000   28.0630 C.ar  400  3TJ400      0.0679
     13  CAM       75.7960   16.9650   29.1100 C.ar  400  3TJ400      0.1391
     14  NAN       74.9030   19.2740   28.2660 N.pl3 400  3TJ400     -0.2903
     15  SAO       74.8400   17.2720   30.5800 S.O2  400  3TJ400      0.0797
@<TRIPOS>BOND
     1     5     6   ar
     2     5    11   ar
     3     6    12   ar
     4     1     8    1
     5     8    14    1
     6     4    11    1
     7    11     7   ar
     8    12    14    1
     9    12    13   ar
    10    14     9    1
    11     7    13   ar
    12    13    15    1
    13     9    10    1
    14     2    15    2
    15    15    10    1
    16    15     3    2
