@<TRIPOS>MOLECULE
3tdj_GLU_A_1.pdb
 10 9 0 0 0
SMALL
GASTEIGER

@<TRIPOS>ATOM
      1  N         89.1790   26.2920   28.1330 N.3   401  GLU401     -0.1208
      2  CA        90.6150   26.1070   28.3340 C.3   401  GLU401      0.1949
      3  C         90.8980   25.9520   29.8160 C.2   401  GLU401      0.3819
      4  O         92.0510   25.8760   30.2320 O.co2 401  GLU401     -0.2441
      5  CB        91.4160   27.2890   27.7720 C.3   401  GLU401      0.0424
      6  CG        91.6250   27.2480   26.2460 C.3   401  GLU401      0.1161
      7  CD        92.6330   26.2010   25.8070 C.2   401  GLU401      0.3649
      8  OE1       92.7190   25.9040   24.5860 O.co2 401  GLU401     -0.2457
      9  OE2       93.3630   25.6730   26.6680 O.co2 401  GLU401     -0.2457
     10  OXT       89.9680   25.9020   30.6200 O.co2 401  GLU401     -0.2441
@<TRIPOS>BOND
     1     8     7   ar
     2     7     6    1
     3     7     9   ar
     4     6     5    1
     5     5     2    1
     6     1     2    1
     7     2     3    1
     8     3     4   ar
     9     3    10   ar
