@<TRIPOS>MOLECULE
3tdk_UPG_A_1.pdb
 36 38 0 0 0
SMALL
GASTEIGER

@<TRIPOS>ATOM
      1  N1        39.2000   77.1370   57.8350 N.am  501  UPG501     -0.1766
      2  C2        39.9460   78.1240   57.0740 C.1   501  UPG501      0.2845
      3  N3        41.2670   77.6980   56.6150 N.2   501  UPG501     -0.2452
      4  C4        41.6530   76.4350   56.8060 C.1   501  UPG501      0.2182
      5  C5        40.8610   75.5360   57.5060 C.2   501  UPG501      0.1242
      6  C6        39.6220   75.8940   58.0250 C.2   501  UPG501      0.0929
      7  O2        39.8880   79.4060   57.6410 O.2   501  UPG501     -0.1918
      8  O4        42.8520   75.9980   56.3430 O.2   501  UPG501     -0.2085
      9  C1C       37.9610   77.5540   58.3980 C.3   501  UPG501      0.2401
     10  C2C       36.6560   77.1130   57.8040 C.3   501  UPG501      0.2319
     11  O2C       36.2840   77.9880   56.7540 O.3   501  UPG501     -0.2157
     12  C3C       35.7570   77.2610   59.0220 C.3   501  UPG501      0.2158
     13  C4C       36.6680   76.9840   60.2020 C.3   501  UPG501      0.1799
     14  O4C       37.9900   76.9550   59.6800 O.3   501  UPG501     -0.3320
     15  O3C       35.2410   78.5790   59.2370 O.3   501  UPG501     -0.2175
     16  C5C       36.3720   75.6410   60.8290 C.3   501  UPG501      0.1813
     17  O5C       36.3250   74.7350   59.7540 O.3   501  UPG501     -0.3112
     18  PA        36.3320   73.1560   59.9340 P.3   501  UPG501      0.2189
     19  O1A       37.3650   72.8270   60.9500 O.3   501  UPG501     -0.4371
     20  O2A       36.4510   72.5310   58.5930 O.2   501  UPG501     -0.5170
     21  O3A       34.8380   72.9450   60.4460 O.3   501  UPG501     -0.2703
     22  PB        34.3120   72.5980   61.9130 P.3   501  UPG501      0.2208
     23  O1B       32.8860   72.2520   61.7930 O.2   501  UPG501     -0.5170
     24  O2B       34.4630   73.7380   62.7910 O.3   501  UPG501     -0.4371
     25  O3B       35.2630   71.3490   62.3100 O.3   501  UPG501     -0.2857
     26  C1'       36.3730   71.5050   63.1750 C.3   501  UPG501      0.2745
     27  C2'       37.3220   70.2940   63.2630 C.3   501  UPG501      0.2409
     28  C3'       36.6420   69.0990   63.9260 C.3   501  UPG501      0.2202
     29  C4'       36.1250   69.5080   65.2640 C.3   501  UPG501      0.2194
     30  C5'       35.1020   70.5880   65.0030 C.3   501  UPG501      0.2147
     31  C6'       34.8000   71.0490   66.3760 C.2   501  UPG501      0.2394
     32  O2'       37.7600   69.9430   61.9560 O.3   501  UPG501     -0.2149
     33  O3'       37.5310   68.0330   64.2020 O.3   501  UPG501     -0.2174
     34  O4'       35.4590   68.4070   65.8660 O.3   501  UPG501     -0.2172
     35  O5'       35.6900   71.7330   64.3910 O.3   501  UPG501     -0.3201
     36  O6'       35.7490   71.2240   67.1520 O.2   501  UPG501     -0.2855
@<TRIPOS>BOND
     1     8     4    2
     2     3     4    2
     3     3     2    2
     4    11    10    1
     5     4     5    1
     6     2     7    2
     7     2     1   am
     8     5     6    2
     9    10     9    1
    10    10    12    1
    11     1     6    1
    12     1     9    1
    13     9    14    1
    14    20    18    2
    15    12    15    1
    16    12    13    1
    17    14    13    1
    18    17    18    1
    19    17    16    1
    20    18    21    1
    21    18    19    1
    22    13    16    1
    23    21    22    1
    24    23    22    2
    25    22    25    1
    26    22    24    1
    27    32    27    1
    28    25    26    1
    29    26    27    1
    30    26    35    1
    31    27    28    1
    32    28    33    1
    33    28    29    1
    34    35    30    1
    35    30    29    1
    36    30    31    1
    37    29    34    1
    38    31    36    2
