@<TRIPOS>MOLECULE
3tdk_NAD_A_1.pdb
 35 38 0 0 0
SMALL
GASTEIGER

@<TRIPOS>ATOM
      1  PA        22.9320   72.3050   68.0530 P.3   500  NAD500      0.2189
      2  O1A       22.3790   73.3550   68.9400 O.3   500  NAD500     -0.4371
      3  O2A       22.7690   72.5660   66.6100 O.2   500  NAD500     -0.5170
      4  O5B       22.2550   70.9650   68.5450 O.3   500  NAD500     -0.3112
      5  C5B       22.1000   70.8150   69.9430 C.3   500  NAD500      0.1813
      6  C4B       20.6780   70.3490   70.1380 C.3   500  NAD500      0.1821
      7  O4B       20.4240   70.1630   71.4870 O.3   500  NAD500     -0.3135
      8  C3B       19.6940   71.3990   69.6620 C.3   500  NAD500      0.2184
      9  O3B       19.0150   70.9290   68.5210 O.3   500  NAD500     -0.2174
     10  C2B       18.7790   71.6730   70.8320 C.3   500  NAD500      0.2570
     11  O2B       17.4290   71.6490   70.4810 O.3   500  NAD500     -0.2130
     12  C1B       19.0740   70.4870   71.6850 C.3   500  NAD500      0.3186
     13  N9A       18.9090   70.8100   73.0920 N.pl3 500  NAD500     -0.1439
     14  C8A       19.3960   71.9030   73.7450 C.3   500  NAD500      0.3377
     15  N7A       19.0360   71.7920   75.0440 N.2   500  NAD500     -0.2095
     16  C5A       18.3450   70.6400   75.2190 C.2   500  NAD500      0.2526
     17  C6A       17.7400   70.0400   76.3250 C.2   500  NAD500      0.4393
     18  N6A       18.0070   70.5190   77.5210 N.pl3 500  NAD500      0.2180
     19  N1A       17.0620   68.8390   76.2180 N.2   500  NAD500      0.0021
     20  C2A       16.9840   68.2330   74.9820 C.3   500  NAD500      0.5254
     21  N3A       17.5850   68.8300   73.8930 N.2   500  NAD500     -0.0055
     22  C4A       18.2580   70.0100   73.9970 C.2   500  NAD500      0.3518
     23  O3        24.4370   72.0900   68.5170 O.3   500  NAD500     -0.2703
     24  PN        25.4660   71.0290   67.9940 P.3   500  NAD500      0.2189
     25  O1N       25.9590   71.5840   66.7490 O.2   500  NAD500     -0.5170
     26  O2N       24.9420   69.6760   68.0470 O.3   500  NAD500     -0.4371
     27  O5D       26.5330   71.2760   69.1380 O.3   500  NAD500     -0.3112
     28  C5D       27.2900   70.2530   69.7300 C.3   500  NAD500      0.1812
     29  C4D       28.6590   70.8420   69.9980 C.3   500  NAD500      0.1780
     30  O4D       28.6480   72.2410   69.7140 O.3   500  NAD500     -0.3482
     31  C3D       28.9830   70.7040   71.4580 C.3   500  NAD500      0.2140
     32  O3D       30.2180   70.0700   71.4600 O.3   500  NAD500     -0.2176
     33  C2D       29.0890   72.1190   72.0450 C.3   500  NAD500      0.2140
     34  O2D       30.4120   72.3590   72.5310 O.3   500  NAD500     -0.2176
     35  C1D       28.7410   73.0620   70.8890 C.3   500  NAD500      0.1777
@<TRIPOS>BOND
     1     3     1    2
     2    25    24    2
     3    24    26    1
     4    24    23    1
     5    24    27    1
     6     1    23    1
     7     1     4    1
     8     1     2    1
     9     9     8    1
    10     4     5    1
    11    27    28    1
    12     8     6    1
    13     8    10    1
    14    30    29    1
    15    30    35    1
    16    28    29    1
    17     5     6    1
    18    29    31    1
    19     6     7    1
    20    11    10    1
    21    10    12    1
    22    35    33    1
    23    31    32    1
    24    31    33    1
    25     7    12    1
    26    12    13    1
    27    33    34    1
    28    13    14    1
    29    13    22    1
    30    14    15    1
    31    21    22    2
    32    21    20    1
    33    22    16    1
    34    20    19    1
    35    15    16    2
    36    16    17    1
    37    19    17    2
    38    17    18    1
