@<TRIPOS>MOLECULE
3tdl_11D_A_1.pdb
 30 31 0 0 0
SMALL
GASTEIGER

@<TRIPOS>ATOM
      1  C1        27.6190   -7.3660   -4.7900 C.ar  1006  11D1006     0.0013
      2  C2        28.0010   -6.3550   -5.6790 C.ar  1006  11D1006     0.0146
      3  C3        27.4970   -5.0500   -5.4930 C.ar  1006  11D1006     0.0199
      4  C4        26.6330   -4.7510   -4.4120 C.ar  1006  11D1006     0.1236
      5  C5        26.2780   -5.7930   -3.5400 C.ar  1006  11D1006     0.0200
      6  C6        26.7690   -7.0840   -3.7250 C.ar  1006  11D1006     0.0014
      7  C7        28.8630   -6.6620   -6.7530 C.ar  1006  11D1006     0.0479
      8  C8        29.2370   -5.6530   -7.6340 C.ar  1006  11D1006     0.0145
      9  C9        28.7460   -4.3610   -7.4470 C.ar  1006  11D1006     0.0013
     10  C10       27.8840   -4.0550   -6.3860 C.ar  1006  11D1006     0.0014
     11  N11       29.3720   -7.9700   -6.9570 N.pl3 1006  11D1006    -0.3041
     12  C12       30.3100   -8.6040   -6.0420 C.3   1006  11D1006     0.1122
     13  C13       28.9680   -8.7420   -8.1210 C.3   1006  11D1006     0.1122
     14  S14       26.0120   -3.2800   -4.1170 S.O2  1006  11D1006     0.0768
     15  O15       25.9080   -3.0810   -2.7020 O.2   1006  11D1006    -0.1516
     16  O16       26.7990   -2.2380   -4.7340 O.2   1006  11D1006    -0.1516
     17  N17       24.5400   -3.1190   -4.6580 N.3   1006  11D1006    -0.0778
     18  C18       23.4490   -3.1240   -3.7360 C.3   1006  11D1006     0.1155
     19  C19       23.0660   -4.5700   -3.4520 C.3   1006  11D1006     0.0208
     20  C20       21.6470   -4.8000   -3.9380 C.3   1006  11D1006     0.0015
     21  C21       20.8490   -5.5190   -2.8740 C.3   1006  11D1006     0.0000
     22  C22       19.3730   -5.2200   -3.0500 C.3   1006  11D1006     0.0000
     23  C23       18.5660   -6.3190   -2.3860 C.3   1006  11D1006     0.0000
     24  C24       18.6380   -6.3040   -0.8620 C.3   1006  11D1006     0.0000
     25  C25       19.2580   -7.5940   -0.3330 C.3   1006  11D1006     0.0006
     26  C26       18.9130   -8.8130   -1.1990 C.3   1006  11D1006     0.0118
     27  C27       17.9640   -9.7770   -0.4820 C.3   1006  11D1006     0.1141
     28  C28       18.5340  -10.1260    0.8780 C.2   1006  11D1006     0.3649
     29  O29       18.0610   -9.4640    1.9540 O.co2 1006  11D1006    -0.2457
     30  O30       19.4200  -10.9870    0.9820 O.co2 1006  11D1006    -0.2457
@<TRIPOS>BOND
     1    13    11    1
     2     8     9   ar
     3     8     7   ar
     4     9    10   ar
     5    11     7    1
     6    11    12    1
     7     7     2   ar
     8    10     3   ar
     9     2     3   ar
    10     2     1   ar
    11     3     4   ar
    12     1     6   ar
    13    16    14    2
    14    17    14    1
    15    17    18    1
    16     4    14    1
    17     4     5   ar
    18    14    15    2
    19    20    19    1
    20    20    21    1
    21    18    19    1
    22     6     5   ar
    23    22    21    1
    24    22    23    1
    25    23    24    1
    26    26    27    1
    27    26    25    1
    28    24    25    1
    29    27    28    1
    30    28    30   ar
    31    28    29   ar
