@<TRIPOS>MOLECULE
3tdt_26P_A_1.pdb
 13 12 0 0 0
SMALL
GASTEIGER

@<TRIPOS>ATOM
      1  C1        14.6240    3.6980    1.2680 C.2   281  26P281      0.3819
      2  O11       14.7200    2.6580    0.6280 O.co2 281  26P281     -0.2441
      3  O12       15.5860    4.1860    2.0160 O.co2 281  26P281     -0.2441
      4  C2        13.3320    4.4840    1.2010 C.3   281  26P281      0.1943
      5  N2        12.9890    4.9160    2.5530 N.3   281  26P281     -0.1208
      6  C3        13.5770    5.6920    0.3090 C.3   281  26P281      0.0311
      7  C4        13.8210    5.2420   -1.1090 C.3   281  26P281      0.0104
      8  C5        13.9980    6.4150   -2.0330 C.3   281  26P281      0.0763
      9  C6        14.2990    5.9840   -3.4370 C.2   281  26P281      0.2520
     10  O6        14.4970    4.8080   -3.7370 O.2   281  26P281     -0.2843
     11  C7        14.3960    7.0020   -4.5420 C.2   281  26P281      0.4219
     12  O71       14.2850    6.5930   -5.6920 O.co2 281  26P281     -0.2373
     13  O72       14.5620    8.2560   -4.2290 O.co2 281  26P281     -0.2373
@<TRIPOS>BOND
     1    12    11   ar
     2    11    13   ar
     3    11     9    1
     4    10     9    2
     5     9     8    1
     6     8     7    1
     7     7     6    1
     8     6     4    1
     9     2     1   ar
    10     4     1    1
    11     4     5    1
    12     1     3   ar
