@<TRIPOS>MOLECULE
3tdt_COA_A_1.pdb
 48 50 0 0 0
SMALL
GASTEIGER

@<TRIPOS>ATOM
      1  N1A        9.1960    3.3450   20.1710 N.2   280  COA280      0.0021
      2  C2A        9.2220    3.4610   21.5080 C.3   280  COA280      0.5254
      3  N3A        9.9210    4.2990   22.2650 N.2   280  COA280     -0.0055
      4  C4A       10.6610    5.0980   21.4870 C.2   280  COA280      0.3518
      5  C5A       10.7400    5.1070   20.1010 C.2   280  COA280      0.2526
      6  C6A        9.9330    4.1760   19.4200 C.2   280  COA280      0.4393
      7  N6A        9.8720    4.0350   18.0970 N.pl3 280  COA280      0.2180
      8  N7A       11.6370    6.0820   19.6640 N.2   280  COA280     -0.2095
      9  C8A       12.0810    6.6100   20.7900 C.3   280  COA280      0.3377
     10  N9A       11.5220    6.0600   21.9300 N.pl3 280  COA280     -0.1439
     11  C1B       11.6740    6.4720   23.3300 C.3   280  COA280      0.3185
     12  C2B       12.8540    5.9140   24.0800 C.3   280  COA280      0.2543
     13  O2B       12.3880    4.7480   24.7000 O.3   280  COA280     -0.2131
     14  C3B       13.1310    7.0370   25.0840 C.3   280  COA280      0.1928
     15  O3B       12.2930    6.9350   26.2240 O.3   280  COA280     -0.2673
     16  P3B       12.9820    7.2290   27.6330 P.3   280  COA280      0.5327
     17  O7A       13.5750    8.5890   27.5830 O.2   280  COA280     -0.2224
     18  O8A       13.8510    6.0650   27.9490 O.3   280  COA280     -0.1145
     19  O9A       11.8350    7.2220   28.5850 O.3   280  COA280     -0.1145
     20  C4B       12.7890    8.3160   24.3290 C.3   280  COA280      0.1795
     21  O4B       11.7570    7.9010   23.4100 O.3   280  COA280     -0.3136
     22  C5B       13.9150    8.9060   23.5100 C.3   280  COA280      0.1812
     23  O5B       14.4570    7.8310   22.7560 O.3   280  COA280     -0.3112
     24  P1A       15.5740    8.1210   21.6600 P.3   280  COA280      0.2189
     25  O1A       16.1140    6.8320   21.1480 O.2   280  COA280     -0.5170
     26  O2A       16.4750    9.0940   22.3080 O.3   280  COA280     -0.4371
     27  O3A       14.6850    8.8480   20.5000 O.3   280  COA280     -0.2703
     28  P2A       15.4800    9.4550   19.2190 P.3   280  COA280      0.2188
     29  O4A       16.7270    8.7080   18.8680 O.2   280  COA280     -0.5170
     30  O5A       15.6040   10.9190   19.3680 O.3   280  COA280     -0.4371
     31  O6A       14.4270    9.2420   18.0280 O.3   280  COA280     -0.3138
     32  CBP       13.0000    7.9470   16.6120 C.3   280  COA280      0.0646
     33  CCP       14.1170    7.9360   17.6530 C.3   280  COA280      0.1519
     34  CDP       11.7230    8.5200   17.2200 C.3   280  COA280      0.0056
     35  CEP       13.3590    8.7780   15.3740 C.3   280  COA280      0.0056
     36  CAP       12.7680    6.5160   16.1680 C.3   280  COA280      0.2315
     37  OAP       12.1830    5.7970   17.2530 O.3   280  COA280     -0.2131
     38  C9P       11.9130    6.4920   14.8900 C.2   280  COA280      0.2761
     39  O9P       10.7130    6.7290   14.9270 O.2   280  COA280     -0.2702
     40  N8P       12.5240    6.2340   13.7250 N.am  280  COA280     -0.1756
     41  C7P       11.7600    6.2420   12.4660 C.2   280  COA280      0.0934
     42  C6P       11.9230    5.0020   11.5860 C.2   280  COA280      0.0773
     43  C5P       11.1680    5.0380   10.2430 C.2   280  COA280      0.2663
     44  O5P        9.9300    5.1320   10.1590 O.2   280  COA280     -0.2683
     45  N4P       11.9180    4.9470    9.1590 N.am  280  COA280     -0.2007
     46  C3P       11.3240    4.9690    7.8530 C.3   280  COA280      0.1280
     47  C2P       11.3790    3.6510    7.0940 C.3   280  COA280      0.0921
     48  S1P       10.4790    3.9380    5.5380 S.3   280  COA280     -0.0802
@<TRIPOS>BOND
     1    48    47    1
     2    47    46    1
     3    46    45    1
     4    45    43   am
     5    44    43    2
     6    43    42    1
     7    42    41    2
     8    41    40    1
     9    40    38   am
    10    38    39    2
    11    38    36    1
    12    35    32    1
    13    36    32    1
    14    36    37    1
    15    32    34    1
    16    32    33    1
    17    33    31    1
    18    31    28    1
    19     7     6    1
    20    29    28    2
    21    28    30    1
    22    28    27    1
    23     6     5    1
    24     6     1    2
    25     8     5    2
    26     8     9    1
    27     5     4    1
    28     1     2    1
    29    27    24    1
    30     9    10    1
    31    25    24    2
    32     4    10    1
    33     4     3    2
    34     2     3    1
    35    24    26    1
    36    24    23    1
    37    10    11    1
    38    23    22    1
    39    11    21    1
    40    11    12    1
    41    21    20    1
    42    22    20    1
    43    12    13    1
    44    12    14    1
    45    20    14    1
    46    14    15    1
    47    15    16    1
    48    17    16    2
    49    16    18    1
    50    16    19    1
