@<TRIPOS>MOLECULE
3tdv_GDP_A_1.pdb
 28 30 0 0 0
SMALL
GASTEIGER

@<TRIPOS>ATOM
      1  PB        -5.9510   -0.5650    7.3390 P.3   500  GDP500      0.5373
      2  O1B       -6.3310   -1.6550    8.3110 O.3   500  GDP500     -0.1143
      3  O2B       -6.4470   -1.0080    5.9730 O.2   500  GDP500     -0.2221
      4  O3B       -4.4490   -0.3510    7.3710 O.3   500  GDP500     -0.1143
      5  O3A       -6.7100    0.7970    7.7920 O.3   500  GDP500     -0.2261
      6  PA        -6.6270    2.1870    6.9760 P.3   500  GDP500      0.2231
      7  O1A       -5.5720    3.1310    7.5260 O.3   500  GDP500     -0.4370
      8  O2A       -6.4970    2.0510    5.4760 O.2   500  GDP500     -0.5169
      9  O5'       -8.0990    2.7680    7.2610 O.3   500  GDP500     -0.3111
     10  C5'       -9.1660    1.8910    6.8870 C.3   500  GDP500      0.1813
     11  C4'      -10.1750    2.6680    6.0810 C.3   500  GDP500      0.1799
     12  O4'      -10.6660    3.7880    6.8340 O.3   500  GDP500     -0.3326
     13  C3'       -9.5920    3.2970    4.8160 C.3   500  GDP500      0.2158
     14  O3'       -9.4920    2.3540    3.7380 O.3   500  GDP500     -0.2175
     15  C2'      -10.5690    4.4240    4.5500 C.3   500  GDP500      0.2310
     16  O2'      -11.7700    3.9420    3.9310 O.3   500  GDP500     -0.2158
     17  C1'      -10.9330    4.8860    5.9450 C.3   500  GDP500      0.2293
     18  N9       -10.1270    6.0960    6.2860 N.pl3 500  GDP500     -0.2354
     19  C8        -9.0460    6.1870    7.0970 C.3   500  GDP500      0.2246
     20  N7        -8.5610    7.4610    7.1530 N.2   500  GDP500     -0.2322
     21  C5        -9.3340    8.2180    6.3470 C.2   500  GDP500      0.2182
     22  C6        -9.4090    9.6510    5.9570 C.1   500  GDP500      0.2372
     23  O6        -8.5890   10.4890    6.4070 O.2   500  GDP500     -0.2069
     24  N1       -10.3800   10.0180    5.1060 N.2   500  GDP500     -0.2485
     25  C2       -11.2870    9.1370    4.6180 C.1   500  GDP500      0.2531
     26  N2       -12.2520    9.5660    3.7570 N.pl3 500  GDP500     -0.0226
     27  N3       -11.2830    7.8170    4.9470 N.2   500  GDP500     -0.3074
     28  C4       -10.3540    7.3120    5.7880 C.2   500  GDP500      0.2300
@<TRIPOS>BOND
     1    14    13    1
     2    26    25    1
     3    16    15    1
     4    15    13    1
     5    15    17    1
     6    25    27    2
     7    25    24    2
     8    13    11    1
     9    27    28    2
    10    24    22    2
    11     8     6    2
    12    28    18    1
    13    28    21    1
    14    17    18    1
    15    17    12    1
    16    22    21    1
    17    22    23    2
    18     3     1    2
    19    11    12    1
    20    11    10    1
    21    18    19    1
    22    21    20    2
    23    10     9    1
    24     6     9    1
    25     6     7    1
    26     6     5    1
    27    19    20    1
    28     1     4    1
    29     1     5    1
    30     1     2    1
