@<TRIPOS>MOLECULE
3tdw_GDP_A_1.pdb
 28 30 0 0 0
SMALL
GASTEIGER

@<TRIPOS>ATOM
      1  PB       -16.6370    2.1030   12.1960 P.3   500  GDP500      0.5373
      2  O1B      -15.6180    1.2290   11.5150 O.2   500  GDP500     -0.2221
      3  O2B      -16.5410    1.8510   13.6720 O.3   500  GDP500     -0.1143
      4  O3B      -17.9980    1.8580   11.6620 O.3   500  GDP500     -0.1143
      5  O3A      -16.2220    3.6380   11.8580 O.3   500  GDP500     -0.2261
      6  PA       -16.7950    4.9890   12.5230 P.3   500  GDP500      0.2231
      7  O1A      -18.0120    5.5630   11.8600 O.2   500  GDP500     -0.5169
      8  O2A      -16.9870    4.7980   14.0090 O.3   500  GDP500     -0.4370
      9  O5'      -15.5590    5.9930   12.3000 O.3   500  GDP500     -0.3111
     10  C5'      -14.2590    5.5530   12.6810 C.3   500  GDP500      0.1813
     11  C4'      -13.6210    6.5770   13.6100 C.3   500  GDP500      0.1799
     12  O4'      -13.3900    7.8040   12.9180 O.3   500  GDP500     -0.3326
     13  C3'      -14.4980    6.9580   14.7910 C.3   500  GDP500      0.2158
     14  O3'      -14.3930    5.9850   15.8330 O.3   500  GDP500     -0.2175
     15  C2'      -13.9050    8.2920   15.1830 C.3   500  GDP500      0.2310
     16  O2'      -12.7130    8.0270   15.9270 O.3   500  GDP500     -0.2158
     17  C1'      -13.5180    8.8890   13.8350 C.3   500  GDP500      0.2293
     18  N9       -14.6120    9.7700   13.3750 N.pl3 500  GDP500     -0.2354
     19  C8       -15.5720    9.4800   12.4730 C.3   500  GDP500      0.2246
     20  N7       -16.4120   10.5320   12.2970 N.2   500  GDP500     -0.2322
     21  C5       -15.9830   11.5100   13.1260 C.2   500  GDP500      0.2182
     22  C6       -16.3850   12.8970   13.4210 C.1   500  GDP500      0.2372
     23  O6       -17.3800   13.4040   12.8690 O.2   500  GDP500     -0.2069
     24  N1       -15.6720   13.5790   14.3330 N.2   500  GDP500     -0.2485
     25  C2       -14.5890   13.0430   14.9310 C.1   500  GDP500      0.2531
     26  N2       -13.8990   13.7920   15.8270 N.pl3 500  GDP500     -0.0226
     27  N3       -14.1460   11.7910   14.6900 N.2   500  GDP500     -0.3074
     28  C4       -14.7970   10.9990   13.8130 C.2   500  GDP500      0.2300
@<TRIPOS>BOND
     1     2     1    2
     2     4     1    1
     3     5     1    1
     4     5     6    1
     5     7     6    2
     6     1     3    1
     7    20    19    1
     8    20    21    2
     9     9     6    1
    10     9    10    1
    11    19    18    1
    12     6     8    1
    13    10    11    1
    14    23    22    2
    15    12    11    1
    16    12    17    1
    17    21    22    1
    18    21    28    1
    19    18    28    1
    20    18    17    1
    21    22    24    2
    22    11    13    1
    23    28    27    2
    24    17    15    1
    25    24    25    2
    26    27    25    2
    27    13    15    1
    28    13    14    1
    29    25    26    1
    30    15    16    1
