@<TRIPOS>MOLECULE
3te5_NAI_C_1.pdb
 44 48 0 0 0
SMALL
GASTEIGER

@<TRIPOS>ATOM
      1  PA       -31.3670   65.9410   -2.5540 P.3   324  NAI324      0.2189
      2  O1A      -30.5940   64.7030   -2.7850 O.3   324  NAI324     -0.4371
      3  O2A      -31.9620   66.6370   -3.7010 O.2   324  NAI324     -0.5170
      4  O5B      -30.5200   66.9200   -1.5820 O.3   324  NAI324     -0.3112
      5  C5B      -29.3780   67.6670   -1.9520 C.3   324  NAI324      0.1813
      6  C4B      -29.2660   68.9630   -1.1200 C.3   324  NAI324      0.1821
      7  O4B      -28.7670   69.9790   -1.9970 O.3   324  NAI324     -0.3135
      8  C3B      -30.6040   69.5430   -0.6580 C.3   324  NAI324      0.2184
      9  O3B      -30.3610   70.5530    0.3480 O.3   324  NAI324     -0.2174
     10  C2B      -31.1600   70.1810   -1.9290 C.3   324  NAI324      0.2570
     11  O2B      -31.9650   71.3480   -1.6520 O.3   324  NAI324     -0.2130
     12  C1B      -29.9010   70.5870   -2.6850 C.3   324  NAI324      0.3186
     13  N9A      -29.9320   70.1460   -4.1040 N.pl3 324  NAI324     -0.1439
     14  C8A      -30.6840   69.2250   -4.7090 C.3   324  NAI324      0.3377
     15  N7A      -30.3490   69.1960   -5.9940 N.2   324  NAI324     -0.2095
     16  C5A      -29.3850   70.1000   -6.1880 C.2   324  NAI324      0.2526
     17  C6A      -28.7000   70.4650   -7.2760 C.2   324  NAI324      0.4393
     18  N6A      -28.9970   69.8410   -8.4060 N.pl3 324  NAI324      0.2180
     19  N1A      -27.7560   71.4180   -7.2360 N.2   324  NAI324      0.0021
     20  C2A      -27.4710   72.0510   -6.0220 C.3   324  NAI324      0.5254
     21  N3A      -28.1930   71.6480   -4.9010 N.2   324  NAI324     -0.0055
     22  C4A      -29.1280   70.6870   -5.0120 C.2   324  NAI324      0.3518
     23  O3       -32.5240   65.7380   -1.4490 O.3   324  NAI324     -0.2703
     24  PN       -33.2730   64.3720   -1.1670 P.3   324  NAI324      0.2189
     25  O1N      -33.6020   63.7590   -2.4700 O.2   324  NAI324     -0.5170
     26  O2N      -34.3600   64.6960   -0.2170 O.3   324  NAI324     -0.4371
     27  O5D      -32.1360   63.4410   -0.5240 O.3   324  NAI324     -0.3112
     28  C5D      -31.9450   63.2570    0.8790 C.3   324  NAI324      0.1813
     29  C4D      -30.4520   63.0180    1.1420 C.3   324  NAI324      0.1799
     30  O4D      -29.9120   62.0800    0.1740 O.3   324  NAI324     -0.3327
     31  C3D      -29.6810   64.3290    0.9420 C.3   324  NAI324      0.2158
     32  O3D      -28.9160   64.5960    2.1320 O.3   324  NAI324     -0.2175
     33  C2D      -28.7740   64.0390   -0.2440 C.3   324  NAI324      0.2309
     34  O2D      -27.5140   64.7230   -0.1190 O.3   324  NAI324     -0.2158
     35  C1D      -28.5730   62.5440   -0.0970 C.3   324  NAI324      0.2263
     36  N1N      -27.9550   61.9450   -1.3100 N.pl3 324  NAI324     -0.2787
     37  C2N      -26.6290   61.4620   -1.2270 C.3   324  NAI324      0.1244
     38  C3N      -26.0040   60.8910   -2.3430 C.2   324  NAI324      0.0544
     39  C7N      -24.6850   60.4220   -2.2340 C.2   324  NAI324      0.2818
     40  O7N      -24.0420   60.5790   -1.1950 O.2   324  NAI324     -0.2670
     41  N7N      -24.1810   59.8030   -3.3060 N.am  324  NAI324     -0.0839
     42  C4N      -26.7170   60.8100   -3.5480 C.2   324  NAI324      0.0033
     43  C5N      -28.0310   61.2810   -3.6430 C.2   324  NAI324      0.0157
     44  C6N      -28.6620   61.8490   -2.5330 C.2   324  NAI324      0.0633
@<TRIPOS>BOND
     1    18    17    1
     2    17    19    2
     3    17    16    1
     4    19    20    1
     5    16    15    2
     6    16    22    1
     7    20    21    1
     8    15    14    1
     9    22    21    2
    10    22    13    1
    11    14    13    1
    12    13    12    1
    13     3     1    2
    14    43    42    1
    15    43    44    2
    16    42    38    2
    17    41    39   am
    18     2     1    1
    19    12     7    1
    20    12    10    1
    21     1     4    1
    22     1    23    1
    23    44    36    1
    24    25    24    2
    25    38    39    1
    26    38    37    1
    27    39    40    2
    28     7     6    1
    29     5     4    1
    30     5     6    1
    31    10    11    1
    32    10     8    1
    33    23    24    1
    34    36    37    1
    35    36    35    1
    36    24    27    1
    37    24    26    1
    38     6     8    1
    39     8     9    1
    40    27    28    1
    41    33    34    1
    42    33    35    1
    43    33    31    1
    44    35    30    1
    45    30    29    1
    46    28    29    1
    47    31    29    1
    48    31    32    1
