@<TRIPOS>MOLECULE
3te7_TE7_A_1.pdb
 25 28 0 0 0
SMALL
GASTEIGER

@<TRIPOS>ATOM
      1  CAA       -1.7370   10.3780   16.9290 C.3     1  TE71        0.2525
      2  CAB       -8.8610    0.4860   12.8120 C.3     1  TE71        0.0897
      3  CAC       -8.6790    2.8000   12.5940 C.3     1  TE71        0.0897
      4  OAD       -5.1190    6.0020   14.3270 O.2     1  TE71       -0.2864
      5  CAE       -1.7370    7.8710   17.2790 C.ar    1  TE71        0.0384
      6  CAF       -4.3560    1.8160   14.6480 C.2     1  TE71        0.0204
      7  CAG       -3.3370    1.4270   15.5160 C.2     1  TE71        0.0217
      8  CAH       -1.6100    6.5060   17.3230 C.ar    1  TE71        0.0204
      9  CAI       -1.4270    3.7160   17.3060 C.3     1  TE71        0.2349
     10  CAJ       -3.5450    7.6300   15.7560 C.ar    1  TE71        0.0415
     11  CAK       -6.4570    2.4490   13.0700 C.3     1  TE71        0.1428
     12  CAL       -7.2970    1.7610   14.1290 C.3     1  TE71        0.0988
     13  NAM       -1.6390    2.4660   17.0710 N.2     1  TE71       -0.2439
     14  NAN       -5.6650    3.4640   13.6520 N.2     1  TE71       -0.2688
     15  OAO       -2.8930    9.7380   16.4430 O.3     1  TE71       -0.4714
     16  CAP       -2.7320    8.4280   16.4960 C.ar    1  TE71        0.1389
     17  CAQ       -4.7230    3.1380   14.4620 C.2     1  TE71        0.0806
     18  CAR       -4.2480    5.4960   15.0140 C.ar    1  TE71        0.1999
     19  CAS       -2.6360    2.4070   16.1730 C.2     1  TE71        0.0942
     20  CAT       -3.4120    6.2930   15.7910 C.ar    1  TE71        0.0579
     21  CAU       -2.4470    5.7440   16.5880 C.ar    1  TE71        0.0647
     22  CAV       -4.0320    4.1380   15.1070 C.ar    1  TE71        0.0735
     23  CAW       -3.0190    3.6960   15.9460 C.ar    1  TE71        0.0833
     24  NAX       -8.6080    1.7020   13.5550 N.3     1  TE71       -0.2686
     25  NAY       -2.2560    4.4530   16.6490 N.ar    1  TE71       -0.3047
@<TRIPOS>BOND
     1     3    24    1
     2     2    24    1
     3    11    14    1
     4    11    12    1
     5    24    12    1
     6    14    17    2
     7     4    18    2
     8    17     6    1
     9    17    22    1
    10     6     7    2
    11    18    22   ar
    12    18    20   ar
    13    22    23   ar
    14     7    19    1
    15    10    20   ar
    16    10    16   ar
    17    20    21   ar
    18    23    19    1
    19    23    25   ar
    20    19    13    2
    21    15    16    1
    22    15     1    1
    23    16     5   ar
    24    21    25   ar
    25    21     8   ar
    26    25     9    1
    27    13     9    1
    28     5     8   ar
