@<TRIPOS>MOLECULE
3te9_F6R_A_1.pdb
 16 15 0 0 0
SMALL
GASTEIGER

@<TRIPOS>ATOM
      1  C1        11.4510   26.5540   18.7130 C.3   322  F6R322      0.2486
      2  C2        11.4470   28.0450   18.5980 C.2   322  F6R322      0.2165
      3  C3        11.8570   28.8170   19.8120 C.3   322  F6R322      0.2440
      4  C4        12.1410   30.2780   19.4350 C.3   322  F6R322      0.2220
      5  C5        11.8150   31.1850   20.6000 C.3   322  F6R322      0.2151
      6  C6        12.1170   32.6510   20.2670 C.3   322  F6R322      0.1892
      7  O1        10.6540   26.0300   17.6770 O.3   322  F6R322     -0.2118
      8  O2        11.0520   28.5810   17.5630 O.2   322  F6R322     -0.2905
      9  O3        12.9840   28.1830   20.4550 O.3   322  F6R322     -0.2122
     10  O4        13.5190   30.4430   19.0470 O.3   322  F6R322     -0.2171
     11  O5        10.4380   30.9970   20.9270 O.3   322  F6R322     -0.2176
     12  O6        11.7500   33.5250   21.3410 O.3   322  F6R322     -0.2674
     13  P         12.3960   35.0010   21.4720 P.3   322  F6R322      0.5327
     14  O1P       13.8740   34.7310   21.3840 O.3   322  F6R322     -0.1145
     15  O2P       11.8790   35.5250   22.7980 O.3   322  F6R322     -0.1145
     16  O3P       11.8010   35.7640   20.3060 O.2   322  F6R322     -0.2224
@<TRIPOS>BOND
     1     8     2    2
     2     7     1    1
     3     2     1    1
     4     2     3    1
     5    10     4    1
     6     4     3    1
     7     4     5    1
     8     3     9    1
     9     6     5    1
    10     6    12    1
    11    16    13    2
    12     5    11    1
    13    12    13    1
    14    14    13    1
    15    13    15    1
