@<TRIPOS>MOLECULE
3teg_DAH_A_1.pdb
 25 25 0 0 0
SMALL
GASTEIGER

@<TRIPOS>ATOM
      1  N          5.4940   19.3250   12.9490 N.3   416  DAH416     -0.3181
      2  CA         5.0280   19.6900   11.6010 C.3   416  DAH416      0.1072
      3  C          4.7840   21.2160   11.5010 C.2   416  DAH416      0.3220
      4  O          4.7070   21.8760   12.4850 O.2   416  DAH416     -0.2492
      5  CB         3.6960   18.9670   11.3160 C.3   416  DAH416     -0.0019
      6  CG         3.9360   17.4460   11.2660 C.ar  416  DAH416     -0.0417
      7  CD1        4.5800   16.8630   10.2190 C.ar  416  DAH416     -0.0548
      8  CD2        3.5030   16.6000   12.4850 C.ar  416  DAH416     -0.0133
      9  CE1        4.5390   15.2840   10.1020 C.ar  416  DAH416     -0.0163
     10  CE2        3.6040   15.2540   12.4350 C.ar  416  DAH416      0.1585
     11  CZ         4.2060   14.5540   11.1840 C.ar  416  DAH416      0.1582
     12  OE2        3.0900   14.4860   13.4780 O.3   416  DAH416     -0.5033
     13  OZ         4.1740   13.1530   11.1310 O.3   416  DAH416     -0.5033
     14  OXT        4.9810   21.8600   10.2750 O.3   416  DAH416     -0.4795
     15  H2         4.8760   19.8070   13.6910 H     416  DAH416      0.1190
     16  H          5.4500   18.2550   13.0780 H     416  DAH416      0.1190
     17  HA         5.7670   19.3910   10.8720 H     416  DAH416      0.0577
     18  HB2        3.2990   19.3010   10.3680 H     416  DAH416      0.0334
     19  HB3        2.9890   19.1930   12.1020 H     416  DAH416      0.0334
     20  HD1        5.3560   17.4110    9.7050 H     416  DAH416      0.0621
     21  HD2        3.1520   17.0840   13.3860 H     416  DAH416      0.0658
     22  HE1        4.5560   14.8210    9.1260 H     416  DAH416      0.0655
     23  HE2        3.7980   13.7080   13.7320 H     416  DAH416      0.2923
     24  HZ         4.4520   12.8260   10.1390 H     416  DAH416      0.2923
     25  HXT        5.9600   21.6120    9.8930 H     416  DAH416      0.2951
@<TRIPOS>BOND
     1    22     9    1
     2    20     7    1
     3    25    14    1
     4     9     7   ar
     5     9    11   ar
     6    24    13    1
     7     7     6   ar
     8    14     3    1
     9    18     5    1
    10    17     2    1
    11    13    11    1
    12    11    10   ar
    13     6     5    1
    14     6     8   ar
    15     5     2    1
    16     5    19    1
    17     3     2    1
    18     3     4    2
    19     2     1    1
    20    10     8   ar
    21    10    12    1
    22     8    21    1
    23     1    16    1
    24     1    15    1
    25    12    23    1
