@<TRIPOS>MOLECULE
3teh_DAH_A_1.pdb
 14 14 0 0 0
SMALL
GASTEIGER

@<TRIPOS>ATOM
      1  N         19.8980   61.7880   19.0910 N.3   351  DAH351     -0.1205
      2  CA        18.9960   62.8750   18.7840 C.3   351  DAH351      0.1986
      3  C         17.5660   62.4230   18.9170 C.2   351  DAH351      0.3822
      4  O         16.5910   63.0520   18.2870 O.co2 351  DAH351     -0.2440
      5  CB        19.2130   63.3700   17.3690 C.3   351  DAH351      0.0570
      6  CG        20.5080   64.0970   17.1250 C.ar  351  DAH351     -0.0168
      7  CD1       20.5630   65.4660   17.2650 C.ar  351  DAH351     -0.0007
      8  CD2       21.6320   63.4140   16.7030 C.ar  351  DAH351      0.0412
      9  CE1       21.7400   66.1350   17.0220 C.ar  351  DAH351      0.0451
     10  CE2       22.8020   64.0930   16.4610 C.ar  351  DAH351      0.2339
     11  CZ        22.8530   65.4470   16.6220 C.ar  351  DAH351      0.2342
     12  OE2       23.9020   63.4360   16.0630 O.3   351  DAH351     -0.2832
     13  OZ        23.9940   66.1120   16.3780 O.3   351  DAH351     -0.2831
     14  OXT       17.2670   61.4800   19.6010 O.co2 351  DAH351     -0.2440
@<TRIPOS>BOND
     1    12    10    1
     2    13    11    1
     3    10    11   ar
     4    10     8   ar
     5    11     9   ar
     6     8     6   ar
     7     9     7   ar
     8     6     7   ar
     9     6     5    1
    10     5     2    1
    11     4     3   ar
    12     2     3    1
    13     2     1    1
    14     3    14   ar
