@<TRIPOS>MOLECULE
3tei_ANP_A_1.pdb
 31 33 0 0 0
SMALL
GASTEIGER

@<TRIPOS>ATOM
      1  PG        -2.3020   -2.9870    9.5740 P.3   401  ANP401      0.4884
      2  O1G       -0.8990   -2.8640    9.0150 O.2   401  ANP401     -0.2331
      3  O2G       -2.4550   -2.1780   10.9140 O.3   401  ANP401     -0.1240
      4  O3G       -2.6850   -4.5270    9.8750 O.3   401  ANP401     -0.1240
      5  PB        -2.9440   -2.9560    6.9120 P.3   401  ANP401      0.4669
      6  O1B       -4.4030   -2.9170    6.2540 O.2   401  ANP401     -0.2351
      7  O2B       -2.0420   -4.2560    6.8030 O.3   401  ANP401     -0.1253
      8  N3B       -3.4100   -2.3940    8.5000 N.3   401  ANP401     -0.0163
      9  PA        -2.7510   -0.2190    6.9770 P.3   401  ANP401      0.2220
     10  O1A       -4.0980   -0.2000    7.7450 O.3   401  ANP401     -0.4370
     11  O2A       -2.8270    0.7410    5.8380 O.2   401  ANP401     -0.5170
     12  O3A       -2.4290   -1.5940    6.2960 O.3   401  ANP401     -0.2360
     13  O5'       -1.5430    0.2260    7.8840 O.3   401  ANP401     -0.3111
     14  C5'       -0.2850    0.5260    7.2910 C.3   401  ANP401      0.1813
     15  C4'        0.3670    1.8040    7.5960 C.3   401  ANP401      0.1821
     16  O4'       -0.4530    2.8530    7.2160 O.3   401  ANP401     -0.3135
     17  C3'        0.5890    1.9180    9.0640 C.3   401  ANP401      0.2184
     18  O3'        1.8620    2.4190    9.3220 O.3   401  ANP401     -0.2174
     19  C2'       -0.4340    2.7890    9.5410 C.3   401  ANP401      0.2570
     20  O2'        0.0110    3.5730   10.5860 O.3   401  ANP401     -0.2130
     21  C1'       -0.7490    3.6230    8.3770 C.3   401  ANP401      0.3186
     22  N9        -2.1010    4.2230    8.2810 N.pl3 401  ANP401     -0.1439
     23  C8        -3.2330    3.5880    7.9170 C.3   401  ANP401      0.3377
     24  N7        -4.2390    4.4650    7.9380 N.2   401  ANP401     -0.2095
     25  C5        -3.7600    5.6790    8.3210 C.2   401  ANP401      0.2526
     26  C6        -4.3230    6.9520    8.5170 C.2   401  ANP401      0.4393
     27  N6        -5.7300    7.1590    8.3020 N.pl3 401  ANP401      0.2180
     28  N1        -3.5550    7.9790    8.9050 N.2   401  ANP401      0.0021
     29  C2        -2.2450    7.7980    9.0970 C.3   401  ANP401      0.5254
     30  N3        -1.6600    6.6020    8.9220 N.2   401  ANP401     -0.0055
     31  C4        -2.3910    5.5300    8.5360 C.2   401  ANP401      0.3518
@<TRIPOS>BOND
     1    11     9    2
     2     6     5    2
     3    12     5    1
     4    12     9    1
     5     7     5    1
     6     5     8    1
     7     9    10    1
     8     9    13    1
     9    16    15    1
    10    16    21    1
    11    14    15    1
    12    14    13    1
    13    15    17    1
    14    23    24    1
    15    23    22    1
    16    24    25    2
    17    22    21    1
    18    22    31    1
    19    27    26    1
    20    25    26    1
    21    25    31    1
    22    21    19    1
    23     8     1    1
    24    26    28    2
    25    31    30    2
    26    28    29    1
    27    30    29    1
    28     2     1    2
    29    17    18    1
    30    17    19    1
    31    19    20    1
    32     1     4    1
    33     1     3    1
