@<TRIPOS>MOLECULE
3tel_ZTP_A_1.pdb
 49 48 0 0 0
SMALL
GASTEIGER

@<TRIPOS>ATOM
      1  C1       -14.2510   39.5220  -19.1970 C.3     1  ZTP1        0.0260
      2  O1       -10.7260   22.2570  -37.7060 O.3     1  ZTP1       -0.3089
      3  P1       -10.2100   20.9880  -38.5670 P.3     1  ZTP1        0.2233
      4  C2       -13.5350   38.8190  -18.0570 C.2     1  ZTP1       -0.0478
      5  O2        -9.5590   19.9380  -37.5740 O.3     1  ZTP1       -0.4370
      6  P2        -7.5990   21.0530  -39.8410 P.3     1  ZTP1        0.5373
      7  C3       -13.9140   37.3700  -17.7480 C.3     1  ZTP1        0.0260
      8  O3       -11.5570   20.4140  -39.2740 O.2     1  ZTP1       -0.5169
      9  C4       -12.5520   39.4850  -17.3260 C.2     1  ZTP1       -0.0342
     10  O4        -9.1350   21.5660  -39.6240 O.3     1  ZTP1       -0.2261
     11  C5       -12.1080   40.7940  -17.5020 C.3     1  ZTP1        0.0297
     12  O5        -6.9150   22.4490  -40.2330 O.3     1  ZTP1       -0.1143
     13  C6       -11.0740   40.8900  -18.6510 C.3     1  ZTP1        0.0263
     14  O6        -7.5330   19.9810  -40.8600 O.2     1  ZTP1       -0.2221
     15  C7        -9.6190   40.6870  -18.1720 C.2     1  ZTP1       -0.0478
     16  O7        -6.9860   20.5680  -38.4510 O.3     1  ZTP1       -0.1143
     17  C8        -9.0640   41.6250  -17.1020 C.3     1  ZTP1        0.0260
     18  C9        -8.7860   39.6820  -18.6860 C.2     1  ZTP1       -0.0342
     19  C10       -9.0920   38.7410  -19.6730 C.3     1  ZTP1        0.0297
     20  C11       -8.6530   37.3070  -19.3310 C.3     1  ZTP1        0.0263
     21  C12       -9.7690   36.4000  -18.7310 C.2     1  ZTP1       -0.0478
     22  C13       -9.5580   35.8010  -17.3400 C.3     1  ZTP1        0.0260
     23  C14      -10.9660   36.0410  -19.3700 C.2     1  ZTP1       -0.0342
     24  C15      -11.4800   36.3750  -20.6240 C.3     1  ZTP1        0.0297
     25  C16      -11.7670   35.1180  -21.4820 C.3     1  ZTP1        0.0263
     26  C17      -10.6560   34.8770  -22.5230 C.2     1  ZTP1       -0.0478
     27  C18       -9.2100   35.1520  -22.1240 C.3     1  ZTP1        0.0260
     28  C19      -10.9050   34.3950  -23.8110 C.2     1  ZTP1       -0.0342
     29  C20      -12.1070   34.0260  -24.4060 C.3     1  ZTP1        0.0297
     30  C21      -11.8820   33.4640  -25.8270 C.3     1  ZTP1        0.0263
     31  C22      -11.8910   31.9440  -25.8980 C.2     1  ZTP1       -0.0478
     32  C23      -12.1000   31.0900  -24.6390 C.3     1  ZTP1        0.0260
     33  C24      -11.7100   31.2660  -27.1120 C.2     1  ZTP1       -0.0342
     34  C25      -11.4840   31.7360  -28.3980 C.3     1  ZTP1        0.0297
     35  C26      -10.6990   30.6480  -29.1380 C.3     1  ZTP1        0.0263
     36  C27      -10.8690   30.6330  -30.6510 C.2     1  ZTP1       -0.0478
     37  C28      -10.4940   31.8850  -31.4470 C.3     1  ZTP1        0.0260
     38  C29      -11.3020   29.4770  -31.3210 C.2     1  ZTP1       -0.0342
     39  C30      -11.6520   28.2600  -30.7460 C.3     1  ZTP1        0.0297
     40  C31      -12.3910   27.3750  -31.7630 C.3     1  ZTP1        0.0263
     41  C32      -12.0640   25.8880  -31.6040 C.2     1  ZTP1       -0.0478
     42  C33      -12.4400   25.1140  -30.3600 C.3     1  ZTP1        0.0260
     43  C34      -11.4930   25.1470  -32.6280 C.2     1  ZTP1       -0.0342
     44  C35      -11.0660   25.5430  -33.8790 C.3     1  ZTP1        0.0297
     45  C36       -9.9200   24.6140  -34.2820 C.3     1  ZTP1        0.0264
     46  C37       -9.4740   24.8650  -35.7250 C.2     1  ZTP1       -0.0454
     47  C38       -8.9250   26.2050  -36.1400 C.3     1  ZTP1        0.0261
     48  C39       -9.5100   23.8810  -36.6950 C.2     1  ZTP1       -0.0024
     49  C40       -9.9590   22.5950  -36.5580 C.3     1  ZTP1        0.1747
@<TRIPOS>BOND
     1    14     6    2
     2    12     6    1
     3     6    10    1
     4     6    16    1
     5    10     3    1
     6     8     3    2
     7     3     2    1
     8     3     5    1
     9     2    49    1
    10    48    49    1
    11    48    46    2
    12    47    46    1
    13    46    45    1
    14    45    44    1
    15    44    43    1
    16    43    41    2
    17    40    41    1
    18    40    39    1
    19    41    42    1
    20    37    36    1
    21    38    39    1
    22    38    36    2
    23    36    35    1
    24    35    34    1
    25    34    33    1
    26    33    31    2
    27    31    30    1
    28    31    32    1
    29    30    29    1
    30    29    28    1
    31    28    26    2
    32    26    27    1
    33    26    25    1
    34    25    24    1
    35    24    23    1
    36    19    20    1
    37    19    18    1
    38    23    21    2
    39    20    21    1
    40     1     4    1
    41    21    22    1
    42    18    15    2
    43    13    15    1
    44    13    11    1
    45    15    17    1
    46     4     7    1
    47     4     9    2
    48    11     9    1
