@<TRIPOS>MOLECULE
3tem_6A1_A_1.pdb
 26 29 0 0 0
SMALL
GASTEIGER

@<TRIPOS>ATOM
      1  CAA        1.7120  -10.4370   17.0130 C.3   501  6A1501      0.2520
      2  OAP        2.7960   -9.7450   16.4750 O.2   501  6A1501     -0.4753
      3  CAQ        2.6770   -8.3980   16.4890 C.2   501  6A1501      0.1208
      4  CAK        3.5470   -7.6240   15.7090 C.3   501  6A1501      0.0946
      5  CAF        1.6750   -7.8420   17.2870 C.2   501  6A1501      0.0340
      6  CAI        1.5070   -6.4530   17.3320 C.2   501  6A1501      0.0174
      7  CAV        2.4230   -5.6800   16.5480 C.2   501  6A1501      0.0527
      8  CAU        3.3860   -6.2270   15.7450 C.2   501  6A1501      0.0377
      9  CAS        4.2820   -5.3820   14.9050 C.2   501  6A1501      0.1922
     10  OAD        5.2460   -5.9040   14.1240 O.2   501  6A1501     -0.2871
     11  CAW        4.0300   -3.9330   14.9950 C.2   501  6A1501      0.0514
     12  CAX        3.0380   -3.5140   15.8450 C.2   501  6A1501      0.0711
     13  NAY        2.2450   -4.3050   16.5720 N.pl3 501  6A1501     -0.2648
     14  CAJ        1.3170   -3.5860   17.3260 C.3   501  6A1501      0.2240
     15  NAN        1.5230   -2.2180   17.0340 N.2   501  6A1501     -0.2465
     16  CAT        2.6120   -2.1890   16.1000 C.2   501  6A1501      0.0912
     17  CAH        3.2930   -1.1380   15.4320 C.2   501  6A1501      0.0171
     18  CAG        4.3110   -1.5250   14.4930 C.2   501  6A1501     -0.0030
     19  CAR        4.7790   -2.8600   14.3110 C.3   501  6A1501      0.1212
     20  NAO        5.7610   -3.1590   13.2630 N.3   501  6A1501     -0.2125
     21  CAL        7.0170   -3.8230   13.5040 C.3   501  6A1501      0.0723
     22  CAM        8.2130   -3.2540   12.7530 C.3   501  6A1501     -0.0087
     23  NAZ        8.7580   -2.0040   13.2010 N.4   501  6A1501      0.4287
     24  CAB        9.7940   -2.3090   14.1860 C.3   501  6A1501     -0.0453
     25  CAC        9.1380   -1.2580   11.9800 C.3   501  6A1501     -0.0453
     26  OAE        7.8460   -1.2870   13.8200 O.3   501  6A1501     -0.2898
@<TRIPOS>BOND
     1    25    23    1
     2    22    23    1
     3    22    21    1
     4    23    26    1
     5    23    24    1
     6    20    21    1
     7    20    19    1
     8    10     9    1
     9    19    18    1
    10    19    11    1
    11    18    17    2
    12     9    11    1
    13     9     8    2
    14    11    12    2
    15    17    16    1
    16     4     8    1
    17     4     3    1
    18     8     7    1
    19    12    16    1
    20    12    13    1
    21    16    15    2
    22     2     3    1
    23     2     1    1
    24     3     5    2
    25     7    13    1
    26     7     6    2
    27    13    14    1
    28    15    14    1
    29     5     6    1
