@<TRIPOS>MOLECULE
3tep_ZTP_A_1.pdb
 49 48 0 0 0
SMALL
GASTEIGER

@<TRIPOS>ATOM
      1  C1        14.0940   37.4130  -22.9050 C.3   503  ZTP503      0.0260
      2  O1        11.0470   22.6220   -2.8700 O.3   503  ZTP503     -0.3089
      3  P1        10.5120   21.3070   -2.0930 P.3   503  ZTP503      0.2233
      4  C2        13.5900   38.8470  -22.7370 C.2   503  ZTP503     -0.0478
      5  O2         9.8120   20.3750   -3.1930 O.2   503  ZTP503     -0.5169
      6  P2         7.9510   21.3200   -0.6980 P.3   503  ZTP503      0.5373
      7  C3        14.3850   39.8050  -21.8640 C.3   503  ZTP503      0.0260
      8  O3        11.8310   20.5930   -1.4950 O.3   503  ZTP503     -0.4370
      9  C4        12.4280   39.2890  -23.3660 C.2   503  ZTP503     -0.0342
     10  O4         9.5010   21.8160   -0.9040 O.3   503  ZTP503     -0.2261
     11  C5        11.8740   40.5680  -23.2960 C.3   503  ZTP503      0.0297
     12  O5         7.4240   20.6780   -2.0640 O.2   503  ZTP503     -0.2221
     13  C6        10.9870   40.7380  -22.0480 C.3   503  ZTP503      0.0263
     14  O6         7.1550   22.7150   -0.5070 O.3   503  ZTP503     -0.1143
     15  C7         9.6570   41.4680  -22.3320 C.2   503  ZTP503     -0.0478
     16  O7         7.8340   20.4260    0.4690 O.3   503  ZTP503     -0.1143
     17  C8         9.4900   42.3380  -23.5850 C.3   503  ZTP503      0.0260
     18  C9         8.5730   41.3880  -21.4550 C.2   503  ZTP503     -0.0342
     19  C10        8.4710   40.7030  -20.2490 C.3   503  ZTP503      0.0297
     20  C11        7.6850   39.4010  -20.3880 C.3   503  ZTP503      0.0263
     21  C12        8.4920   38.2880  -21.0620 C.2   503  ZTP503     -0.0478
     22  C13        8.3270   38.0410  -22.5600 C.3   503  ZTP503      0.0260
     23  C14        9.3580   37.4650  -20.3510 C.2   503  ZTP503     -0.0342
     24  C15        9.6650   37.4960  -18.9940 C.3   503  ZTP503      0.0297
     25  C16       10.7170   36.4370  -18.6380 C.3   503  ZTP503      0.0263
     26  C17       10.0710   35.1390  -18.1610 C.2   503  ZTP503     -0.0478
     27  C18        8.9900   34.4560  -19.0050 C.3   503  ZTP503      0.0260
     28  C19       10.4420   34.5360  -16.9610 C.2   503  ZTP503     -0.0342
     29  C20       11.4010   34.9170  -16.0320 C.3   503  ZTP503      0.0297
     30  C21       11.2420   34.1190  -14.7230 C.3   503  ZTP503      0.0263
     31  C22       11.7640   32.6770  -14.7820 C.2   503  ZTP503     -0.0478
     32  C23       12.1390   32.0080  -16.1110 C.3   503  ZTP503      0.0260
     33  C24       11.9130   31.9180  -13.6210 C.2   503  ZTP503     -0.0342
     34  C25       11.6340   32.2390  -12.2990 C.3   503  ZTP503      0.0297
     35  C26       10.8380   31.0910  -11.6900 C.3   503  ZTP503      0.0263
     36  C27       11.0420   30.9430  -10.1900 C.2   503  ZTP503     -0.0478
     37  C28       10.6280   32.0770   -9.2580 C.3   503  ZTP503      0.0260
     38  C29       11.5390   29.7630   -9.6260 C.2   503  ZTP503     -0.0342
     39  C30       11.9460   28.5840  -10.2360 C.3   503  ZTP503      0.0297
     40  C31       12.6610   27.7120   -9.2000 C.3   503  ZTP503      0.0263
     41  C32       12.2540   26.2450   -9.2800 C.2   503  ZTP503     -0.0478
     42  C33       12.5430   25.4450  -10.5290 C.3   503  ZTP503      0.0260
     43  C34       11.6450   25.5660   -8.2350 C.2   503  ZTP503     -0.0342
     44  C35       11.2680   25.9840   -6.9700 C.3   503  ZTP503      0.0297
     45  C36       10.3450   24.9040   -6.4130 C.3   503  ZTP503      0.0264
     46  C37        9.8730   25.2040   -4.9950 C.2   503  ZTP503     -0.0454
     47  C38        9.2730   26.5380   -4.6400 C.3   503  ZTP503      0.0261
     48  C39        9.9070   24.2500   -3.9970 C.2   503  ZTP503     -0.0024
     49  C40       10.3980   22.9700   -4.0880 C.3   503  ZTP503      0.1747
@<TRIPOS>BOND
     1    17    15    1
     2     9    11    1
     3     9     4    2
     4    11    13    1
     5     1     4    1
     6     4     7    1
     7    22    21    1
     8    15    13    1
     9    15    18    2
    10    18    19    1
    11    21    20    1
    12    21    23    2
    13    20    19    1
    14    23    24    1
    15    27    26    1
    16    24    25    1
    17    25    26    1
    18    26    28    2
    19    28    29    1
    20    32    31    1
    21    29    30    1
    22    31    30    1
    23    31    33    2
    24    33    34    1
    25    34    35    1
    26    35    36    1
    27    42    41    1
    28    39    38    1
    29    39    40    1
    30    36    38    2
    31    36    37    1
    32    41    40    1
    33    41    43    2
    34    43    44    1
    35    44    45    1
    36    45    46    1
    37    46    47    1
    38    46    48    2
    39    49    48    1
    40    49     2    1
    41     5     3    2
    42     2     3    1
    43     3     8    1
    44     3    10    1
    45    12     6    2
    46    10     6    1
    47     6    14    1
    48     6    16    1
