@<TRIPOS>MOLECULE
3tew_MXE_A_1.pdb
 13 12 0 0 0
SMALL
GASTEIGER

@<TRIPOS>ATOM
      1  O1         6.7130   28.9820  -27.4880 O.3   736  MXE736     -0.3927
      2  C1         7.2120   27.8810  -28.1590 C.3   736  MXE736      0.0675
      3  C2         7.0600   27.8650  -29.6420 C.3   736  MXE736      0.0704
      4  O2         7.3530   29.0370  -30.3140 O.3   736  MXE736     -0.3807
      5  C3         7.3290   29.0420  -31.6950 C.3   736  MXE736      0.0365
      6  HO1        6.8570   28.8530  -26.4260 H     736  MXE736      0.2095
      7  H11        6.7210   27.0030  -27.7660 H     736  MXE736      0.0580
      8  H12        8.2650   27.8040  -27.9330 H     736  MXE736      0.0580
      9  H21        6.0380   27.6000  -29.8680 H     736  MXE736      0.0582
     10  H22        7.7020   27.0890  -30.0330 H     736  MXE736      0.0582
     11  H31        7.5010   30.0460  -32.0540 H     736  MXE736      0.0524
     12  H32        6.3660   28.6970  -32.0400 H     736  MXE736      0.0524
     13  H33        8.1020   28.3880  -32.0710 H     736  MXE736      0.0524
@<TRIPOS>BOND
     1    13     5    1
     2    11     5    1
     3    12     5    1
     4     5     4    1
     5     4     3    1
     6    10     3    1
     7     9     3    1
     8     3     2    1
     9     2     8    1
    10     2     7    1
    11     2     1    1
    12     1     6    1
