@<TRIPOS>MOLECULE
3tf4_BGC_A_1.pdb
 11 11 0 0 0
SMALL
GASTEIGER

@<TRIPOS>ATOM
      1  C2        60.6780   60.6810    8.5320 C.3   6001  BGC6001     0.2141
      2  C3        60.1080   61.9490    7.9720 C.3   6001  BGC6001     0.2173
      3  C4        60.2040   61.9110    6.4800 C.3   6001  BGC6001     0.2142
      4  C5        59.4900   60.6770    5.9370 C.3   6001  BGC6001     0.1810
      5  C6        59.7770   60.5310    4.4790 C.3   6001  BGC6001     0.2141
      6  C1        59.8820   59.5140    8.0050 C.3   6001  BGC6001     0.1777
      7  O2        60.5990   60.7160    9.9490 O.3   6001  BGC6001    -0.2176
      8  O3        60.8570   63.0550    8.4500 O.3   6001  BGC6001    -0.2175
      9  O4        59.6150   63.0950    5.9650 O.3   6001  BGC6001    -0.2176
     10  O5        59.9740   59.4670    6.5740 O.3   6001  BGC6001    -0.3481
     11  O6        61.1770   60.5180    4.2560 O.3   6001  BGC6001    -0.2176
@<TRIPOS>BOND
     1    11     5    1
     2     5     4    1
     3     4     3    1
     4     4    10    1
     5     9     3    1
     6     3     2    1
     7    10     6    1
     8     2     8    1
     9     2     1    1
    10     6     1    1
    11     1     7    1
