@<TRIPOS>MOLECULE
3tf6_DBH_A_1.pdb
 10 10 0 0 0
SMALL
GASTEIGER

@<TRIPOS>ATOM
      1  C21       28.5090   82.0240   62.9500 C.2   216  DBH216      0.2375
      2  O9        29.7540   81.9040   63.0850 O.2   216  DBH216     -0.2830
      3  C18       27.6670   80.8400   62.5360 C.ar  216  DBH216      0.0843
      4  C15       26.8420   80.9670   61.4410 C.ar  216  DBH216      0.0067
      5  C12       26.0460   79.9180   61.0470 C.ar  216  DBH216      0.0036
      6  C3        27.7040   79.6370   63.2390 C.ar  216  DBH216      0.2373
      7  O3        28.5320   79.5260   64.3250 O.3   216  DBH216     -0.2830
      8  C6        26.9120   78.5510   62.8370 C.ar  216  DBH216      0.2344
      9  C9        26.0830   78.7140   61.7320 C.ar  216  DBH216      0.0454
     10  O6        26.9390   77.3210   63.4940 O.3   216  DBH216     -0.2831
@<TRIPOS>BOND
     1     5     4   ar
     2     5     9   ar
     3     4     3   ar
     4     9     8   ar
     5     3     1    1
     6     3     6   ar
     7     8     6   ar
     8     8    10    1
     9     1     2    2
    10     6     7    1
