@<TRIPOS>MOLECULE
3tfc_PEP_A_1.pdb
 10 9 0 0 0
SMALL
GASTEIGER

@<TRIPOS>ATOM
      1  C1        28.6700  -21.1860  -13.4050 C.2   1268  PEP1268     0.4216
      2  O1        29.6670  -21.0940  -12.6820 O.co2 1268  PEP1268    -0.2371
      3  O2'       27.9430  -20.2120  -13.6650 O.co2 1268  PEP1268    -0.2371
      4  C2        28.3610  -22.4770  -13.9980 C.2   1268  PEP1268     0.2283
      5  C3        28.4480  -23.5880  -13.2820 C.2   1268  PEP1268     0.0477
      6  O2        27.9990  -22.4730  -15.3950 O.2   1268  PEP1268    -0.3930
      7  P         27.0360  -23.5430  -16.1300 P.3   1268  PEP1268     0.5889
      8  O1P       26.0120  -23.9940  -15.1140 O.3   1268  PEP1268    -0.1039
      9  O2P       27.9880  -24.6300  -16.5910 O.3   1268  PEP1268    -0.1039
     10  O3P       26.5060  -22.6830  -17.2500 O.2   1268  PEP1268    -0.2114
@<TRIPOS>BOND
     1    10     7    2
     2     9     7    1
     3     7     6    1
     4     7     8    1
     5     6     4    1
     6     4     1    1
     7     4     5    2
     8     3     1   ar
     9     1     2   ar
