@<TRIPOS>MOLECULE
3tfj_THG_A_1.pdb
 32 34 0 0 0
SMALL
GASTEIGER

@<TRIPOS>ATOM
      1  N3        12.8610    6.4830   12.4410 N.2   370  THG370     -0.2474
      2  C2        11.8070    5.9520   11.7990 C.1   370  THG370      0.2608
      3  N1        11.1920    4.8170   12.2010 N.2   370  THG370     -0.2683
      4  C8A       11.4920    4.1200   13.3330 C.1   370  THG370      0.1270
      5  C4A       12.6700    4.5630   14.0610 C.2   370  THG370      0.2463
      6  C4        13.3110    5.8120   13.5620 C.1   370  THG370      0.2441
      7  N8        10.8610    3.0040   13.6650 N.2   370  THG370     -0.2054
      8  C7        11.6280    2.0250   14.4800 C.3   370  THG370      0.1634
      9  C6        12.3270    2.7250   15.6430 C.3   370  THG370      0.1514
     10  N5        13.0750    3.8900   15.1820 N.2   370  THG370     -0.2469
     11  C9        11.2320    3.1950   16.5940 C.3   370  THG370      0.1385
     12  N10       11.8360    3.8920   17.7310 N.pl3 370  THG370     -0.2355
     13  C4'       12.0440    5.2620   17.7480 C.ar  370  THG370      0.0654
     14  C3'       12.5940    5.7990   18.9000 C.ar  370  THG370      0.0162
     15  C2'       12.8190    7.1470   19.0140 C.ar  370  THG370      0.0059
     16  C1'       12.4950    7.9450   17.9280 C.ar  370  THG370      0.0551
     17  C6'       11.9410    7.4400   16.7750 C.ar  370  THG370      0.0059
     18  C5'       11.7110    6.0740   16.6830 C.ar  370  THG370      0.0162
     19  C11       12.7320    9.3850   18.0440 C.2   370  THG370      0.2652
     20  N         12.2890    9.8750   19.2070 N.am  370  THG370     -0.1918
     21  CA        12.2950   11.2490   19.6290 C.3   370  THG370      0.1986
     22  C         12.9970   11.4290   20.9760 C.2   370  THG370      0.3842
     23  OX2       13.7400   12.4370   21.2210 O.co2 370  THG370     -0.2437
     24  OX1       12.7890   10.5420   21.8480 O.co2 370  THG370     -0.2437
     25  CB        10.8100   11.5450   19.7870 C.3   370  THG370      0.0451
     26  CG        10.4540   12.9160   19.2580 C.3   370  THG370      0.1164
     27  CD         9.0270   13.1430   19.6530 C.2   370  THG370      0.3649
     28  OE1        8.2960   13.7760   18.8770 O.co2 370  THG370     -0.2457
     29  OE2        8.6300   12.6930   20.7430 O.co2 370  THG370     -0.2457
     30  O11       13.2830    9.9540   17.0970 O.2   370  THG370     -0.2684
     31  O4        14.2880    6.2400   14.2080 O.2   370  THG370     -0.2063
     32  N2        11.3510    6.5300   10.6990 N.pl3 370  THG370     -0.0220
@<TRIPOS>BOND
     1    32     2    1
     2     2     3    2
     3     2     1    2
     4     3     4    2
     5     1     6    2
     6     4     7    2
     7     4     5    1
     8     6     5    1
     9     6    31    2
    10     7     8    1
    11     5    10    2
    12     8     9    1
    13    10     9    1
    14     9    11    1
    15    11    12    1
    16    18    17   ar
    17    18    13   ar
    18    17    16   ar
    19    30    19    2
    20    12    13    1
    21    13    14   ar
    22    16    19    1
    23    16    15   ar
    24    19    20   am
    25    28    27   ar
    26    14    15   ar
    27    20    21    1
    28    26    27    1
    29    26    25    1
    30    21    25    1
    31    21    22    1
    32    27    29   ar
    33    22    23   ar
    34    22    24   ar
