@<TRIPOS>MOLECULE
3tfl_ZTP_A_1.pdb
 49 48 0 0 0
SMALL
GASTEIGER

@<TRIPOS>ATOM
      1  C1       -15.2310  -37.7460  -22.5040 C.3   495  ZTP495      0.0260
      2  O1       -10.9080  -22.6160   -2.6320 O.3   495  ZTP495     -0.3089
      3  P1       -10.6090  -21.1540   -1.8880 P.3   495  ZTP495      0.2233
      4  C2       -13.7830  -38.2310  -22.7160 C.2   495  ZTP495     -0.0478
      5  O2       -10.0600  -20.0770   -2.9540 O.2   495  ZTP495     -0.5169
      6  P2        -8.0830  -21.5380   -0.4730 P.3   495  ZTP495      0.5373
      7  C3       -12.6580  -37.1880  -22.6470 C.3   495  ZTP495      0.0260
      8  O3       -12.0200  -20.6050   -1.3190 O.3   495  ZTP495     -0.4370
      9  C4       -13.5230  -39.5870  -22.9620 C.2   495  ZTP495     -0.0342
     10  O4        -9.6910  -21.3820   -0.5530 O.3   495  ZTP495     -0.2261
     11  C5       -12.3130  -40.2520  -23.2090 C.3   495  ZTP495      0.0297
     12  O5        -7.7310  -20.7300    0.8930 O.3   495  ZTP495     -0.1143
     13  C6       -11.5380  -40.5090  -21.9070 C.3   495  ZTP495      0.0263
     14  O6        -7.4350  -20.6820   -1.6620 O.2   495  ZTP495     -0.2221
     15  C7       -10.5480  -41.6980  -21.9720 C.2   495  ZTP495     -0.0478
     16  O7        -7.5840  -22.9190   -0.4820 O.3   495  ZTP495     -0.1143
     17  C8       -11.0590  -43.1340  -22.0030 C.3   495  ZTP495      0.0260
     18  C9        -9.1660  -41.5330  -21.9460 C.2   495  ZTP495     -0.0342
     19  C10       -8.3840  -40.3850  -21.9410 C.3   495  ZTP495      0.0297
     20  C11       -8.4430  -39.5850  -20.6320 C.3   495  ZTP495      0.0263
     21  C12       -8.6890  -38.1150  -20.9960 C.2   495  ZTP495     -0.0478
     22  C13       -8.1290  -37.5750  -22.3130 C.3   495  ZTP495      0.0260
     23  C14       -9.4660  -37.2490  -20.2330 C.2   495  ZTP495     -0.0342
     24  C15      -10.1090  -37.4540  -19.0120 C.3   495  ZTP495      0.0297
     25  C16      -11.0880  -36.3120  -18.6630 C.3   495  ZTP495      0.0263
     26  C17      -10.3860  -35.0660  -18.1120 C.2   495  ZTP495     -0.0478
     27  C18       -9.1420  -34.5120  -18.8180 C.3   495  ZTP495      0.0260
     28  C19      -10.8370  -34.3760  -16.9810 C.2   495  ZTP495     -0.0342
     29  C20      -11.9280  -34.5940  -16.1500 C.3   495  ZTP495      0.0297
     30  C21      -11.7210  -33.9810  -14.7520 C.3   495  ZTP495      0.0263
     31  C22      -11.8760  -32.4610  -14.6860 C.2   495  ZTP495     -0.0478
     32  C23      -12.0790  -31.6390  -15.9680 C.3   495  ZTP495      0.0260
     33  C24      -11.8500  -31.7500  -13.4810 C.2   495  ZTP495     -0.0342
     34  C25      -11.6620  -32.1140  -12.1530 C.3   495  ZTP495      0.0297
     35  C26      -10.9160  -30.9480  -11.5060 C.3   495  ZTP495      0.0263
     36  C27      -11.1990  -30.7210  -10.0260 C.2   495  ZTP495     -0.0478
     37  C28      -10.8630  -31.8330   -9.0400 C.3   495  ZTP495      0.0260
     38  C29      -11.6680  -29.4890   -9.5390 C.2   495  ZTP495     -0.0342
     39  C30      -11.9490  -28.3340  -10.2610 C.3   495  ZTP495      0.0297
     40  C31      -12.9050  -27.4150   -9.5120 C.3   495  ZTP495      0.0263
     41  C32      -12.1990  -26.2730   -8.7980 C.2   495  ZTP495     -0.0478
     42  C33      -12.0370  -24.9470   -9.5370 C.3   495  ZTP495      0.0260
     43  C34      -11.7540  -26.4340   -7.4850 C.2   495  ZTP495     -0.0342
     44  C35      -11.1020  -25.4730   -6.7010 C.3   495  ZTP495      0.0297
     45  C36      -10.7950  -26.0030   -5.3000 C.3   495  ZTP495      0.0264
     46  C37       -9.6640  -25.2300   -4.5940 C.2   495  ZTP495     -0.0454
     47  C38       -8.3380  -25.9540   -4.3590 C.3   495  ZTP495      0.0261
     48  C39       -9.6980  -23.9200   -4.1280 C.2   495  ZTP495     -0.0024
     49  C40      -10.6360  -22.9100   -4.0400 C.3   495  ZTP495      0.1747
@<TRIPOS>BOND
     1    11     9    1
     2    11    13    1
     3     9     4    2
     4     4     7    1
     5     4     1    1
     6    22    21    1
     7    17    15    1
     8    15    18    2
     9    15    13    1
    10    18    19    1
    11    19    20    1
    12    21    20    1
    13    21    23    2
    14    23    24    1
    15    24    25    1
    16    27    26    1
    17    25    26    1
    18    26    28    2
    19    28    29    1
    20    29    30    1
    21    32    31    1
    22    30    31    1
    23    31    33    2
    24    33    34    1
    25    34    35    1
    26    35    36    1
    27    39    38    1
    28    39    40    1
    29    36    38    2
    30    36    37    1
    31    42    41    1
    32    40    41    1
    33    41    43    2
    34    43    44    1
    35    44    45    1
    36    45    46    1
    37    46    47    1
    38    46    48    2
    39    48    49    1
    40    49     2    1
    41     5     3    2
    42     2     3    1
    43     3     8    1
    44     3    10    1
    45    14     6    2
    46    10     6    1
    47    16     6    1
    48     6    12    1
