@<TRIPOS>MOLECULE
3tfn_2CJ_A_1.pdb
 31 34 0 0 0
SMALL
GASTEIGER

@<TRIPOS>ATOM
      1  OAA        6.0010   21.1640    5.6370 O.co2 301  2CJ301     -0.2457
      2  OAB        2.0990   23.8690    7.6700 O.2   301  2CJ301     -0.2749
      3  OAC        7.2810   21.9940    7.1850 O.co2 301  2CJ301     -0.2457
      4  CAD       -4.4530   29.5170    8.2570 C.ar  301  2CJ301     -0.0000
      5  CAE       -1.2460   29.9900    2.8400 C.ar  301  2CJ301     -0.0000
      6  CAF       -3.4110   30.1130    8.8770 C.ar  301  2CJ301     -0.0003
      7  CAG       -4.2150   28.6750    7.2120 C.ar  301  2CJ301     -0.0003
      8  CAH       -1.8510   28.8670    3.3480 C.ar  301  2CJ301     -0.0003
      9  CAI       -0.3920   30.7400    3.6070 C.ar  301  2CJ301     -0.0003
     10  CAJ       -2.1520   29.8650    8.4190 C.ar  301  2CJ301     -0.0026
     11  CAK       -2.9530   28.4400    6.7530 C.ar  301  2CJ301     -0.0026
     12  CAL       -1.6200   28.4690    4.6410 C.ar  301  2CJ301     -0.0026
     13  CAM       -0.1660   30.3500    4.8940 C.ar  301  2CJ301     -0.0026
     14  CAN        2.6910   21.3420    4.8520 C.3   301  2CJ301      0.0000
     15  CAO        4.0930   21.2180    4.3640 C.3   301  2CJ301      0.0000
     16  CAP        2.8360   27.2930    6.9880 C.3   301  2CJ301      0.1108
     17  CAQ        1.4420   26.2840    8.7390 C.3   301  2CJ301      0.1108
     18  CAR        1.5740   27.9630    6.4000 C.3   301  2CJ301      0.0944
     19  CAS        0.7630   27.6380    8.5700 C.3   301  2CJ301      0.0944
     20  CAT        2.8740   22.0050    6.2170 C.3   301  2CJ301      0.0010
     21  CAU        4.5510   22.6410    4.6520 C.3   301  2CJ301      0.0010
     22  CAV        5.0620   22.7740    7.0270 C.3   301  2CJ301      0.1145
     23  CAW        3.5040   24.4940    5.9290 C.3   301  2CJ301      0.0858
     24  CAX        6.2160   21.9270    6.5630 C.2   301  2CJ301      0.3649
     25  CAY        2.6110   24.8150    7.1140 C.2   301  2CJ301      0.2257
     26  CAZ       -1.9100   29.0070    7.4090 C.ar  301  2CJ301     -0.0036
     27  CBA       -0.7480   29.1970    5.4140 C.ar  301  2CJ301     -0.0036
     28  CBB       -0.4880   28.8700    6.8990 C.3   301  2CJ301      0.1031
     29  NBC        2.3530   26.0470    7.5970 N.am  301  2CJ301     -0.2767
     30  NBD        0.3370   27.6960    7.1750 N.3   301  2CJ301     -0.2638
     31  CBE        3.9930   23.0090    5.9750 C.3   301  2CJ301      0.0194
@<TRIPOS>BOND
     1     5     8   ar
     2     5     9   ar
     3     8    12   ar
     4     9    13   ar
     5    15    21    1
     6    15    14    1
     7    12    27   ar
     8    21    31    1
     9    14    20    1
    10    13    27   ar
    11    27    28    1
    12     1    24   ar
    13    23    31    1
    14    23    25    1
    15    31    20    1
    16    31    22    1
    17    18    16    1
    18    18    30    1
    19    24    22    1
    20    24     3   ar
    21    11     7   ar
    22    11    26   ar
    23    28    30    1
    24    28    26    1
    25    16    29    1
    26    25    29   am
    27    25     2    2
    28    30    19    1
    29     7     4   ar
    30    26    10   ar
    31    29    17    1
    32     4     6   ar
    33    10     6   ar
    34    19    17    1
