@<TRIPOS>MOLECULE
3tfp_03L_A_1.pdb
 29 31 0 0 0
SMALL
GASTEIGER

@<TRIPOS>ATOM
      1  OAA       -5.2310  -26.0210    8.8900 O.co2 303  03L303     -0.2406
      2  OAB       -5.2480  -27.5170    6.1490 O.2   303  03L303     -0.2684
      3  OAC       -7.4500  -26.0510    8.9210 O.co2 303  03L303     -0.2406
      4 CLAD        4.7820  -30.2210    9.5920 Cl    303  03L303     -0.0822
      5 CLAE       -3.9390  -30.3380    4.6340 Cl    303  03L303     -0.0825
      6  CAF       -7.0440  -30.2280   10.0630 C.ar  303  03L303      0.0002
      7 CLAF       -0.2940  -28.8920    8.4000 Cl    303  03L303     -0.0817
      8  CAG       -6.3060  -30.9820    9.1620 C.ar  303  03L303      0.0002
      9  CAH       -0.1530  -31.0830    3.9080 C.ar  303  03L303      0.0014
     10  CAI       -1.5260  -31.1890    3.9600 C.ar  303  03L303      0.0112
     11  CAJ        0.4800  -29.9910    4.4810 C.ar  303  03L303      0.0063
     12  CAK       -7.0490  -28.8410    9.9850 C.ar  303  03L303      0.0067
     13  CAL       -5.5640  -30.3420    8.1800 C.ar  303  03L303      0.0048
     14  CAM        4.0640  -28.9030    7.3620 C.ar  303  03L303      0.0120
     15  CAN        2.3000  -29.5060    8.8810 C.ar  303  03L303      0.0233
     16  CAO        3.1430  -28.3180    6.5150 C.ar  303  03L303      0.0082
     17  CAP        1.3860  -28.9190    8.0330 C.ar  303  03L303      0.0645
     18  CAQ       -2.4680  -28.0510    5.8390 C.3   303  03L303      0.1431
     19  NAR       -3.3250  -28.6050    6.8880 N.am  303  03L303     -0.1967
     20  SAS        0.5780  -27.6110    5.8330 S.3   303  03L303     -0.0863
     21  CAT       -6.3240  -26.6750    8.9340 C.2   303  03L303      0.3879
     22  CAU       -4.7160  -28.2920    6.9720 C.2   303  03L303      0.2653
     23  CAV        3.6400  -29.4960    8.5420 C.ar  303  03L303      0.0585
     24  CAW       -2.2690  -30.2030    4.5830 C.ar  303  03L303      0.0558
     25  CAX        1.8080  -28.3250    6.8630 C.ar  303  03L303      0.0401
     26  CAY       -0.2650  -29.0010    5.1030 C.ar  303  03L303      0.0280
     27  CAZ       -6.3080  -28.2000    9.0050 C.ar  303  03L303      0.0842
     28  CBA       -5.5650  -28.9560    8.1020 C.ar  303  03L303      0.0614
     29  CBB       -1.6430  -29.1020    5.1530 C.ar  303  03L303      0.0160
@<TRIPOS>BOND
     1     9    10   ar
     2     9    11   ar
     3    10    24   ar
     4    11    26   ar
     5    24     5    1
     6    24    29   ar
     7    26    29   ar
     8    26    20    1
     9    29    18    1
    10    20    25    1
    11    18    19    1
    12     2    22    2
    13    16    25   ar
    14    16    14   ar
    15    25    17   ar
    16    19    22   am
    17    22    28    1
    18    14    23   ar
    19    17     7    1
    20    17    15   ar
    21    28    13   ar
    22    28    27   ar
    23    13     8   ar
    24    23    15   ar
    25    23     4    1
    26     1    21   ar
    27     3    21   ar
    28    21    27    1
    29    27    12   ar
    30     8     6   ar
    31    12     6   ar
