@<TRIPOS>MOLECULE
3tfq_NAP_A_1.pdb
 48 52 0 0 0
SMALL
GASTEIGER

@<TRIPOS>ATOM
      1  PA        54.4060   60.1830   77.7940 P.3   301  NAP301      0.2189
      2  O1A       55.1810   61.4190   78.1250 O.3   301  NAP301     -0.4371
      3  O2A       53.5970   60.1730   76.5370 O.2   301  NAP301     -0.5170
      4  O5B       55.4810   58.9770   77.6940 O.3   301  NAP301     -0.3112
      5  C5B       55.0460   57.6640   77.2740 C.3   301  NAP301      0.1813
      6  C4B       56.2740   56.7880   77.2860 C.3   301  NAP301      0.1820
      7  O4B       55.8610   55.4480   76.8870 O.3   301  NAP301     -0.3136
      8  C3B       57.2400   57.2950   76.2020 C.3   301  NAP301      0.2157
      9  O3B       58.5330   57.0170   76.6920 O.3   301  NAP301     -0.2175
     10  C2B       56.9590   56.3970   74.9720 C.3   301  NAP301      0.2314
     11  O2B       58.1010   56.3050   74.1290 O.3   301  NAP301     -0.2630
     12  C1B       56.5660   55.0440   75.6740 C.3   301  NAP301      0.3158
     13  N9A       55.7120   54.1890   74.8380 N.pl3 301  NAP301     -0.1439
     14  C8A       54.5460   54.5190   74.0280 C.3   301  NAP301      0.3377
     15  N7A       54.1410   53.4580   73.2950 N.2   301  NAP301     -0.2095
     16  C5A       55.0280   52.4420   73.6430 C.2   301  NAP301      0.2526
     17  C6A       55.1830   51.1010   73.2660 C.2   301  NAP301      0.4393
     18  N6A       54.4100   50.4910   72.3180 N.pl3 301  NAP301      0.2180
     19  N1A       56.1940   50.3550   73.7520 N.2   301  NAP301      0.0021
     20  C2A       57.0670   50.8610   74.6970 C.3   301  NAP301      0.5254
     21  N3A       56.9990   52.1280   75.1170 N.2   301  NAP301     -0.0055
     22  C4A       55.9840   52.8820   74.5920 C.2   301  NAP301      0.3518
     23  O3        53.4450   59.8140   79.0330 O.3   301  NAP301     -0.2703
     24  PN        53.4360   60.3850   80.5020 P.3   301  NAP301      0.2189
     25  O1N       54.8330   60.6100   80.9760 O.3   301  NAP301     -0.4371
     26  O2N       52.4290   61.5190   80.5190 O.2   301  NAP301     -0.5170
     27  O5D       52.6720   59.1520   81.2750 O.3   301  NAP301     -0.3112
     28  C5D       53.5810   58.2170   81.8800 C.3   301  NAP301      0.1813
     29  C4D       52.7440   57.3190   82.8340 C.3   301  NAP301      0.1799
     30  O4D       52.1550   58.2170   83.8180 O.3   301  NAP301     -0.3327
     31  C3D       51.6620   56.4730   82.1660 C.3   301  NAP301      0.2158
     32  O3D       51.5600   55.2160   82.8840 O.3   301  NAP301     -0.2175
     33  C2D       50.4220   57.2750   82.5350 C.3   301  NAP301      0.2309
     34  O2D       49.2290   56.5260   82.5370 O.3   301  NAP301     -0.2158
     35  C1D       50.7810   57.8790   83.9080 C.3   301  NAP301      0.2263
     36  N1N       49.9890   59.0950   84.1710 N.pl3 301  NAP301     -0.2787
     37  C2N       50.2460   60.2560   83.4500 C.3   301  NAP301      0.1244
     38  C3N       49.4110   61.3620   83.6870 C.2   301  NAP301      0.0544
     39  C7N       49.6030   62.6910   82.9450 C.2   301  NAP301      0.2818
     40  O7N       48.7600   63.6040   83.2100 O.2   301  NAP301     -0.2670
     41  N7N       50.6910   62.8740   82.1150 N.am  301  NAP301     -0.0839
     42  C4N       48.3770   61.2760   84.6280 C.2   301  NAP301      0.0033
     43  C5N       48.1520   60.0850   85.3350 C.2   301  NAP301      0.0157
     44  C6N       48.9850   59.0030   85.0800 C.2   301  NAP301      0.0633
     45  P2B       58.1790   55.8240   72.6340 P.3   301  NAP301      0.5328
     46  O1X       59.5980   56.1440   72.2610 O.3   301  NAP301     -0.1145
     47  O2X       57.9580   54.3340   72.7000 O.3   301  NAP301     -0.1145
     48  O3X       57.0870   56.5270   71.8740 O.2   301  NAP301     -0.2224
@<TRIPOS>BOND
     1    48    45    2
     2    46    45    1
     3    18    17    1
     4    45    47    1
     5    45    11    1
     6    17    16    1
     7    17    19    2
     8    15    16    2
     9    15    14    1
    10    16    22    1
    11    19    20    1
    12    14    13    1
    13    11    10    1
    14    22    13    1
    15    22    21    2
    16    20    21    1
    17    13    12    1
    18    10    12    1
    19    10     8    1
    20    12     7    1
    21     8     9    1
    22     8     6    1
    23     3     1    2
    24     7     6    1
    25     5     6    1
    26     5     4    1
    27     4     1    1
    28     1     2    1
    29     1    23    1
    30    23    24    1
    31    24    26    2
    32    24    25    1
    33    24    27    1
    34    27    28    1
    35    28    29    1
    36    41    39   am
    37    31    33    1
    38    31    29    1
    39    31    32    1
    40    33    34    1
    41    33    35    1
    42    29    30    1
    43    39    40    2
    44    39    38    1
    45    37    38    1
    46    37    36    1
    47    38    42    2
    48    30    35    1
    49    35    36    1
    50    36    44    1
    51    42    43    1
    52    44    43    2
