@<TRIPOS>MOLECULE
3tfq_07M_A_1.pdb
 23 25 0 0 0
SMALL
GASTEIGER

@<TRIPOS>ATOM
      1  C1        46.8900   60.3210   78.8430 C.ar  302  07M302      0.0166
      2  C2        45.4500   59.8540   78.9480 C.3   302  07M302      0.0931
      3  C3        41.9260   64.4510   82.7740 C.3   302  07M302      0.1470
      4  O4        41.4670   63.8280   81.5760 O.3   302  07M302     -0.3486
      5  C5        42.5810   63.3010   80.8400 C.3   302  07M302      0.1711
      6  C6        42.4800   63.3930   83.7470 C.3   302  07M302      0.0561
      7  C7        43.3930   62.3920   83.0680 C.2   302  07M302     -0.0101
      8  C8        43.4140   62.3290   81.6620 C.2   302  07M302      0.0380
      9  C9        44.2540   61.4040   81.0470 C.2   302  07M302      0.1678
     10  N10       45.0110   60.5740   81.7600 N.2   302  07M302     -0.3292
     11  C11       44.9710   60.5630   83.0950 C.1   302  07M302      0.1982
     12  C12       44.1850   61.4900   83.8040 C.3   302  07M302      0.2267
     13  C13       44.1980   61.5100   85.2510 C.1   302  07M302      0.0944
     14  N14       44.2630   61.5380   86.4060 N.1   302  07M302     -0.1944
     15  O15       45.7860   59.6700   83.7180 O.2   302  07M302     -0.2128
     16  S16       44.3630   61.2760   79.3050 S.3   302  07M302     -0.0768
     17  C17       47.3270   60.9460   77.6550 C.ar  302  07M302      0.1460
     18  N18       48.6150   61.3030   77.4920 N.ar  302  07M302     -0.2338
     19  C19       49.5330   61.1220   78.4530 C.ar  302  07M302      0.0996
     20  C20       49.1660   60.5300   79.6800 C.ar  302  07M302      0.0204
     21  C21       47.8400   60.0700   79.8590 C.ar  302  07M302      0.0004
     22  C22       46.3660   61.1870   76.6020 C.1   302  07M302      0.1195
     23  N23       45.5620   61.3700   75.7930 N.1   302  07M302     -0.1893
@<TRIPOS>BOND
     1    23    22    3
     2    22    17    1
     3    18    17   ar
     4    18    19   ar
     5    17     1   ar
     6    19    20   ar
     7     1     2    1
     8     1    21   ar
     9     2    16    1
    10    16     9    1
    11    20    21   ar
    12     5     4    1
    13     5     8    1
    14     9     8    1
    15     9    10    2
    16     4     3    1
    17     8     7    2
    18    10    11    2
    19     3     6    1
    20     7     6    1
    21     7    12    1
    22    11    15    2
    23    11    12    1
    24    12    13    1
    25    13    14    3
