@<TRIPOS>MOLECULE
3tfr_F3A_A_1.pdb
 32 34 0 0 0
SMALL
GASTEIGER

@<TRIPOS>ATOM
      1  N1         9.6370    8.3930    8.1770 N.2   338  F3A338      0.0021
      2  C2         8.3820    8.4890    7.5850 C.3   338  F3A338      0.5254
      3  N3         7.2230    8.1800    8.3140 N.2   338  F3A338     -0.0055
      4  C4         7.3570    7.7920    9.6070 C.2   338  F3A338      0.3518
      5  C5         8.6230    7.6930   10.2080 C.2   338  F3A338      0.2526
      6  C6         9.7620    8.0050    9.4780 C.2   338  F3A338      0.4393
      7  N6        11.0540    7.8500   10.0880 N.pl3 338  F3A338      0.2180
      8  N7         8.4580    7.2620   11.5350 N.2   338  F3A338     -0.2095
      9  C8         7.1190    7.0920   11.7600 C.3   338  F3A338      0.3377
     10  N9         6.4370    7.4570   10.5590 N.pl3 338  F3A338     -0.1460
     11  PA         4.9850    5.3450   15.0320 P.3   338  F3A338      0.4410
     12  PB         3.8420    2.5680   14.1070 P.3   338  F3A338      0.4486
     13  PG         3.6790    1.2010   16.4810 P.3   338  F3A338      0.5390
     14  C1'        5.0340    7.2520   10.3400 C.3   338  F3A338      0.2873
     15  F1A        6.1080    3.7290   13.4030 F     338  F3A338     -0.1787
     16  O1A        3.8450    5.4530   16.0690 O.3   338  F3A338     -0.1352
     17  O1B        3.9040    2.2090   12.6140 O.2   338  F3A338     -0.2488
     18  O1G        4.8500    0.4900   17.2180 O.3   338  F3A338     -0.1143
     19  C2'        4.4120    5.9900    9.7630 C.3   338  F3A338      0.1151
     20  F2A        5.9740    2.9650   15.4510 F     338  F3A338     -0.1787
     21  O2A        6.2280    5.9280   15.6120 O.2   338  F3A338     -0.2492
     22  O2B        2.5320    3.2150   14.3890 O.3   338  F3A338     -0.1349
     23  O2G        2.3610    0.4200   16.7770 O.2   338  F3A338     -0.2220
     24  C3'        3.9330    5.3320   10.9850 C.3   338  F3A338      0.1883
     25  O3'        3.2070    4.1610   10.8850 O.3   338  F3A338     -0.2202
     26  C3A        5.3170    3.6120   14.4850 C.3   338  F3A338      0.4484
     27  O3B        3.9450    1.2380   14.9370 O.3   338  F3A338     -0.1990
     28  O3G        3.6310    2.6070   16.9920 O.3   338  F3A338     -0.1143
     29  C4'        3.3600    6.4800   11.8020 C.3   338  F3A338      0.1795
     30  O4'        3.9830    7.7280   11.2790 O.3   338  F3A338     -0.3155
     31  C5'        3.3300    6.3070   13.2830 C.3   338  F3A338      0.1837
     32  O5'        4.6290    6.2420   13.7870 O.3   338  F3A338     -0.2860
@<TRIPOS>BOND
     1     2     1    1
     2     2     3    1
     3     1     6    2
     4     3     4    2
     5     6     7    1
     6     6     5    1
     7     4     5    1
     8     4    10    1
     9    19    14    1
    10    19    24    1
    11     5     8    2
    12    14    10    1
    13    14    30    1
    14    10     9    1
    15    25    24    1
    16    24    29    1
    17    30    29    1
    18     8     9    1
    19    29    31    1
    20    17    12    2
    21    31    32    1
    22    15    26    1
    23    32    11    1
    24    12    22    1
    25    12    26    1
    26    12    27    1
    27    26    11    1
    28    26    20    1
    29    27    13    1
    30    11    21    2
    31    11    16    1
    32    13    23    2
    33    13    28    1
    34    13    18    1
