@<TRIPOS>MOLECULE
3tfs_FHA_A_1.pdb
 31 33 0 0 0
SMALL
GASTEIGER

@<TRIPOS>ATOM
      1  N1         9.6410    8.3310    8.2490 N.2   338  FHA338      0.0021
      2  C2         8.4070    8.4310    7.6910 C.3   338  FHA338      0.5254
      3  N3         7.1830    8.2330    8.2330 N.2   338  FHA338     -0.0055
      4  C4         7.2960    7.8960    9.5560 C.2   338  FHA338      0.3518
      5  C5         8.5140    7.7570   10.2640 C.2   338  FHA338      0.2526
      6  C6         9.7040    7.9890    9.5770 C.2   338  FHA338      0.4393
      7  N6        10.9040    7.8190   10.2030 N.pl3 338  FHA338      0.2180
      8  N7         8.3010    7.3850   11.5980 N.2   338  FHA338     -0.2095
      9  C8         6.9790    7.3080   11.6890 C.3   338  FHA338      0.3377
     10  N9         6.3100    7.6150   10.4880 N.pl3 338  FHA338     -0.1460
     11  PA         4.9750    5.4450   15.0300 P.3   338  FHA338      0.4136
     12  PB         3.7600    2.6810   14.0930 P.3   338  FHA338      0.4212
     13  PG         3.8690    1.2410   16.5090 P.3   338  FHA338      0.5389
     14  C1'        4.8910    7.5230   10.1520 C.3   338  FHA338      0.2873
     15  F1A        6.2160    3.6360   13.5320 F     338  FHA338     -0.2104
     16  O1A        3.7250    5.5330   15.9600 O.3   338  FHA338     -0.1370
     17  O1B        3.9950    2.2540   12.5970 O.2   338  FHA338     -0.2516
     18  O1G        5.1510    0.5710   17.0820 O.3   338  FHA338     -0.1143
     19  C2'        4.5210    6.1110    9.6520 C.3   338  FHA338      0.1151
     20  O2A        6.1860    5.9730   15.7120 O.2   338  FHA338     -0.2520
     21  O2B        2.4890    3.3180   14.4230 O.3   338  FHA338     -0.1367
     22  O2G        2.7290    0.2150   16.8330 O.2   338  FHA338     -0.2220
     23  C3'        4.1770    5.4400   11.0120 C.3   338  FHA338      0.1883
     24  O3'        3.3530    4.3330   10.8780 O.3   338  FHA338     -0.2202
     25  C3A        5.2520    3.7210   14.5030 C.3   338  FHA338      0.3693
     26  O3B        3.9380    1.3670   14.9410 O.3   338  FHA338     -0.2008
     27  O3G        3.5810    2.6200   16.9150 O.3   338  FHA338     -0.1143
     28  C4'        3.3820    6.5820   11.6820 C.3   338  FHA338      0.1795
     29  O4'        4.0790    7.7570   11.2810 O.3   338  FHA338     -0.3155
     30  C5'        3.2880    6.4430   13.2010 C.3   338  FHA338      0.1836
     31  O5'        4.5910    6.4060   13.7540 O.3   338  FHA338     -0.2878
@<TRIPOS>BOND
     1     2     3    1
     2     2     1    1
     3     3     4    2
     4     1     6    2
     5     4     5    1
     6     4    10    1
     7     6     7    1
     8     6     5    1
     9    19    14    1
    10    19    23    1
    11    14    10    1
    12    14    29    1
    13     5     8    2
    14    10     9    1
    15    24    23    1
    16    23    28    1
    17    29    28    1
    18     8     9    1
    19    28    30    1
    20    17    12    2
    21    30    31    1
    22    15    25    1
    23    31    11    1
    24    12    21    1
    25    12    25    1
    26    12    26    1
    27    25    11    1
    28    26    13    1
    29    11    20    2
    30    11    16    1
    31    13    22    2
    32    13    27    1
    33    13    18    1
