@<TRIPOS>MOLECULE
3tft_PLP_A_1.pdb
 15 15 0 0 0
SMALL
GASTEIGER

@<TRIPOS>ATOM
      1  N1        -6.2890   -9.5050  -27.1580 N.ar  501  PLP501     -0.2452
      2  C2        -6.9080  -10.3210  -26.2900 C.ar  501  PLP501      0.0978
      3  C2A       -7.6090  -11.5600  -26.7900 C.3   501  PLP501      0.0555
      4  C3        -6.8910  -10.0170  -24.9340 C.ar  501  PLP501      0.2049
      5  O3        -7.5130  -10.8300  -24.0660 O.3   501  PLP501     -0.2857
      6  C4        -6.2400   -8.8860  -24.4660 C.ar  501  PLP501      0.0182
      7  C4A       -6.2510   -8.6100  -23.0080 C.3   501  PLP501      0.0342
      8  C5        -5.6150   -8.0600  -25.4000 C.ar  501  PLP501      0.0261
      9  C6        -5.6580   -8.4030  -26.7460 C.ar  501  PLP501      0.0965
     10  C5A       -4.9120   -6.7720  -25.0380 C.3   501  PLP501      0.1815
     11  O4P       -3.9430   -6.9280  -23.9130 O.3   501  PLP501     -0.2653
     12  P         -3.5460   -5.2870  -23.2850 P.3   501  PLP501      0.5329
     13  O1P       -2.3060   -5.6520  -22.5010 O.3   501  PLP501     -0.1145
     14  O2P       -3.2480   -4.3650  -24.4560 O.2   501  PLP501     -0.2224
     15  O3P       -4.7340   -4.8420  -22.4970 O.3   501  PLP501     -0.1145
@<TRIPOS>BOND
     1     1     9   ar
     2     1     2   ar
     3     3     2    1
     4     9     8   ar
     5     2     4   ar
     6     8    10    1
     7     8     6   ar
     8    10    11    1
     9     4     6   ar
    10     4     5    1
    11     6     7    1
    12    14    12    2
    13    11    12    1
    14    12    13    1
    15    12    15    1
