@<TRIPOS>MOLECULE
3tfu_PL8_A_1.pdb
 27 28 0 0 0
SMALL
GASTEIGER

@<TRIPOS>ATOM
      1  CAA       22.7480  -11.5740  -28.0810 C.3   501  PL8501      0.0555
      2  OAB       17.7390   -7.4540  -28.9020 O.2   501  PL8501     -0.2078
      3  OAC       22.8250   -3.7010  -28.0440 O.2   501  PL8501     -0.2224
      4  OAD       14.9470   -0.5170  -29.4340 O.3   501  PL8501     -0.2204
      5  OAE       20.9320   -9.5620  -28.4480 O.3   501  PL8501     -0.2853
      6  OAF       25.3190   -3.2460  -27.5440 O.3   501  PL8501     -0.1145
      7  OAG       23.6740   -3.6210  -25.6370 O.3   501  PL8501     -0.1145
      8  CAH       19.2750   -3.9740  -30.2740 C.3   501  PL8501      0.0837
      9  CAI       20.1060   -4.9400  -29.7190 C.2   501  PL8501      0.0130
     10  CAJ       24.8980   -8.6110  -28.1210 C.ar  501  PL8501      0.0968
     11  CAK       15.5180   -1.3430  -30.4600 C.3   501  PL8501      0.1825
     12  CAL       16.4620   -2.3660  -29.8150 C.3   501  PL8501      0.0426
     13  CAM       17.0600   -3.2540  -30.9020 C.3   501  PL8501      0.0584
     14  CAN       21.7920   -6.7870  -28.6130 C.2   501  PL8501      0.1027
     15  CAO       24.3650   -6.2530  -28.3950 C.3   501  PL8501      0.1819
     16  NAP       20.3580   -7.0720  -28.7200 N.2   501  PL8501     -0.2314
     17  NAQ       17.3690   -5.4180  -29.8720 N.2   501  PL8501     -0.3403
     18  NAR       24.4670   -9.9450  -28.0490 N.ar  501  PL8501     -0.2452
     19  OAS       24.3970   -5.6120  -27.1140 O.3   501  PL8501     -0.2653
     20  CAT       23.1660  -10.2450  -28.1560 C.ar  501  PL8501      0.0981
     21  CAU       17.9050   -4.2080  -30.3440 C.2   501  PL8501      0.1042
     22  CAV       23.9750   -7.5890  -28.3000 C.ar  501  PL8501      0.0316
     23  CAW       22.2440   -9.2230  -28.3430 C.ar  501  PL8501      0.2103
     24  CAX       19.5750   -6.1440  -29.2670 C.2   501  PL8501      0.1715
     25  CAY       22.6310   -7.8860  -28.4210 C.ar  501  PL8501      0.0592
     26  CAZ       18.2090   -6.3950  -29.3190 C.1   501  PL8501      0.2219
     27  PBA       24.0180   -4.0330  -27.0270 P.3   501  PL8501      0.5329
@<TRIPOS>BOND
     1    13    21    1
     2    13    12    1
     3    11    12    1
     4    11     4    1
     5    21     8    1
     6    21    17    2
     7     8     9    1
     8    17    26    2
     9     9    24    2
    10    26    24    1
    11    26     2    2
    12    24    16    1
    13    16    14    2
    14    14    25    1
    15     5    23    1
    16    25    23   ar
    17    25    22   ar
    18    15    22    1
    19    15    19    1
    20    23    20   ar
    21    22    10   ar
    22    20     1    1
    23    20    18   ar
    24    10    18   ar
    25     3    27    2
    26     6    27    1
    27    19    27    1
    28    27     7    1
