@<TRIPOS>MOLECULE
3tfv_2CN_A_1.pdb
 27 28 0 0 0
SMALL
GASTEIGER

@<TRIPOS>ATOM
      1  CAA      -23.1920   21.1710    8.2320 C.3   289  2CN289      0.0000
      2  OAB      -26.6090    6.7850    5.5980 O.co2 289  2CN289     -0.2405
      3  OAC      -27.3570    4.8960    4.7150 O.co2 289  2CN289     -0.2405
      4 BRAD      -31.7160    5.8370    1.8140 Br    289  2CN289     -0.0490
      5  CAE      -28.5750   11.8330    9.8520 C.ar  289  2CN289      0.0028
      6  CAF      -29.2320   11.0730    8.9240 C.ar  289  2CN289     -0.0032
      7  CAG      -31.1750    7.8020    3.6980 C.ar  289  2CN289      0.0072
      8  CAH      -27.5070   12.5920    9.4860 C.ar  289  2CN289      0.0369
      9  CAI      -30.4660    8.4350    4.6960 C.ar  289  2CN289      0.0069
     10  CAJ      -27.7540   11.8310    7.2480 C.ar  289  2CN289      0.0335
     11  CAK      -29.4960    6.1060    3.5790 C.ar  289  2CN289      0.0138
     12  CAL      -22.8390   19.8200    7.6600 C.3   289  2CN289      0.0000
     13  CAM      -24.0620   18.9560    7.5750 C.3   289  2CN289      0.0000
     14  CAN      -23.6890   17.4920    7.6500 C.3   289  2CN289      0.0000
     15  CAO      -24.8330   16.6040    7.1780 C.3   289  2CN289      0.0001
     16  CAP      -24.6540   15.1720    7.6310 C.3   289  2CN289      0.0038
     17  CAQ      -24.5970   14.2330    6.4540 C.3   289  2CN289      0.0473
     18  CAR      -25.7900   13.3180    6.4940 C.3   289  2CN289      0.2054
     19  CAS      -29.5620   10.2130    6.6290 C.3   289  2CN289      0.0885
     20  OAT      -26.0560   13.3640    7.8380 O.3   289  2CN289     -0.4755
     21  SAU      -28.4800    8.7850    6.3740 S.3   289  2CN289     -0.1086
     22  CAV      -27.4770    6.1020    5.0040 C.2   289  2CN289      0.3882
     23  CAW      -30.6930    6.6420    3.1440 C.ar  289  2CN289      0.0348
     24  CAX      -28.8370   11.0750    7.6240 C.ar  289  2CN289     -0.0080
     25  CAY      -27.0990   12.5940    8.1810 C.ar  289  2CN289      0.1383
     26  CAZ      -29.2780    7.9140    5.1360 C.ar  289  2CN289      0.0319
     27  CBA      -28.7820    6.7450    4.5750 C.ar  289  2CN289      0.0859
@<TRIPOS>BOND
     1     4    23    1
     2    23    11   ar
     3    23     7   ar
     4    11    27   ar
     5     7     9   ar
     6    27    22    1
     7    27    26   ar
     8     9    26   ar
     9     3    22   ar
    10    22     2   ar
    11    26    21    1
    12    21    19    1
    13    17    18    1
    14    17    16    1
    15    18    20    1
    16    19    24    1
    17    15    16    1
    18    15    14    1
    19    10    24   ar
    20    10    25   ar
    21    13    14    1
    22    13    12    1
    23    24     6   ar
    24    12     1    1
    25    20    25    1
    26    25     8   ar
    27     6     5   ar
    28     8     5   ar
