@<TRIPOS>MOLECULE
3tfy_COA_A_1.pdb
 48 50 0 0 0
SMALL
GASTEIGER

@<TRIPOS>ATOM
      1  N1A      -18.9210  -27.8390    5.1720 N.2   201  COA201      0.0021
      2  C2A      -20.2490  -27.6340    5.1410 C.3   201  COA201      0.5254
      3  N3A      -20.8330  -26.8710    4.1970 N.2   201  COA201     -0.0055
      4  C4A      -20.0680  -26.2840    3.2300 C.2   201  COA201      0.3518
      5  C5A      -18.6940  -26.4810    3.2410 C.2   201  COA201      0.2526
      6  C6A      -18.1270  -27.2700    4.2320 C.2   201  COA201      0.4393
      7  N6A      -16.7860  -27.4520    4.2350 N.pl3 201  COA201      0.2180
      8  N7A      -18.1700  -25.8030    2.1980 N.2   201  COA201     -0.2095
      9  C8A      -19.1900  -25.1890    1.5580 C.3   201  COA201      0.3377
     10  N9A      -20.3410  -25.4870    2.1820 N.pl3 201  COA201     -0.1439
     11  C1B      -21.6820  -24.9990    1.7890 C.3   201  COA201      0.3185
     12  C2B      -22.1560  -24.1240    2.9240 C.3   201  COA201      0.2543
     13  O2B      -23.5730  -24.2560    3.0280 O.3   201  COA201     -0.2131
     14  C3B      -21.7210  -22.7490    2.4660 C.3   201  COA201      0.1928
     15  O3B      -22.4980  -21.7150    3.0430 O.3   201  COA201     -0.2673
     16  P3B      -22.0240  -21.1290    4.4620 P.3   201  COA201      0.5327
     17  O7A      -22.9250  -19.9320    4.6330 O.3   201  COA201     -0.1145
     18  O8A      -22.3110  -22.2880    5.4050 O.3   201  COA201     -0.1145
     19  O9A      -20.5650  -20.7590    4.2460 O.2   201  COA201     -0.2224
     20  C4B      -21.9610  -22.8120    0.9790 C.3   201  COA201      0.1795
     21  O4B      -21.5860  -24.1460    0.6420 O.3   201  COA201     -0.3136
     22  C5B      -21.1760  -21.7520    0.2160 C.3   201  COA201      0.1812
     23  O5B      -19.8110  -21.7320    0.5990 O.3   201  COA201     -0.3112
     24  P1A      -18.7930  -20.7050   -0.1150 P.3   201  COA201      0.2189
     25  O1A      -18.0540  -19.9040    0.9230 O.3   201  COA201     -0.4371
     26  O2A      -19.4680  -19.9750   -1.2410 O.2   201  COA201     -0.5170
     27  O3A      -17.7760  -21.7890   -0.7080 O.3   201  COA201     -0.2703
     28  P2A      -16.1900  -21.5950   -0.9080 P.3   201  COA201      0.2188
     29  O4A      -15.8900  -20.2570   -1.5220 O.2   201  COA201     -0.5170
     30  O5A      -15.4630  -22.0340    0.3390 O.3   201  COA201     -0.4371
     31  O6A      -16.0400  -22.7400   -2.0390 O.3   201  COA201     -0.3138
     32  CBP      -15.2840  -24.9950   -2.5870 C.3   201  COA201      0.0645
     33  CCP      -16.2090  -24.1290   -1.7290 C.3   201  COA201      0.1519
     34  CDP      -15.9080  -26.3810   -2.7470 C.3   201  COA201      0.0056
     35  CEP      -15.1060  -24.4090   -3.9810 C.3   201  COA201      0.0056
     36  CAP      -13.9320  -25.0280   -1.8320 C.3   201  COA201      0.2312
     37  OAP      -14.0230  -25.7430   -0.5870 O.3   201  COA201     -0.2131
     38  C9P      -12.7700  -25.5620   -2.6250 C.2   201  COA201      0.2719
     39  O9P      -11.9360  -24.7180   -3.2150 O.2   201  COA201     -0.2706
     40  N8P      -12.5830  -26.8720   -2.7360 N.am  201  COA201     -0.2028
     41  C7P      -11.4880  -27.4930   -3.4670 C.3   201  COA201      0.1248
     42  C6P      -11.8620  -27.3940   -4.9410 C.3   201  COA201      0.1102
     43  C5P      -12.8250  -28.4840   -5.3480 C.2   201  COA201      0.2432
     44  O5P      -12.5970  -29.6620   -5.0820 O.2   201  COA201     -0.2733
     45  N4P      -13.8900  -28.0950   -6.0530 N.am  201  COA201     -0.2044
     46  C3P      -14.9560  -28.9400   -6.5760 C.3   201  COA201      0.1276
     47  C2P      -15.3480  -28.3210   -7.9150 C.3   201  COA201      0.0920
     48  S1P      -14.2310  -28.9600   -9.1860 S.3   201  COA201     -0.0802
@<TRIPOS>BOND
     1    48    47    1
     2    47    46    1
     3    46    45    1
     4    45    43   am
     5    43    44    2
     6    43    42    1
     7    42    41    1
     8    35    32    1
     9    41    40    1
    10    39    38    2
    11    34    32    1
    12    40    38   am
    13    38    36    1
    14    32    36    1
    15    32    33    1
    16    31    33    1
    17    31    28    1
    18    36    37    1
    19    29    28    2
    20    26    24    2
    21    28    27    1
    22    28    30    1
    23    27    24    1
    24    24    23    1
    25    24    25    1
    26    22    23    1
    27    22    20    1
    28    21    20    1
    29    21    11    1
    30    20    14    1
    31     9    10    1
    32     9     8    1
    33    11    10    1
    34    11    12    1
    35    10     4    1
    36     8     5    2
    37    14    12    1
    38    14    15    1
    39    12    13    1
    40    15    16    1
    41     4     5    1
    42     4     3    2
    43     5     6    1
    44     3     2    1
    45     6     7    1
    46     6     1    2
    47    19    16    2
    48    16    17    1
    49    16    18    1
    50     2     1    1
