@<TRIPOS>MOLECULE
3tfy_III_D_1.pdb
 27 27 0 0 0
SMALL
GASTEIGER

@<TRIPOS>ATOM
      1  N        -14.0230  -31.4070  -11.0470 N.3   5122  MET5122    -0.1230
      2  CA       -12.5960  -31.5360  -11.3470 C.3   5122  MET5122     0.1702
      3  C        -12.3180  -32.6360  -12.3820 C.2   5122  MET5122     0.2592
      4  O        -12.3140  -33.8280  -12.0490 O.2   5122  MET5122    -0.2718
      5  CB       -11.7870  -31.7880  -10.0690 C.3   5122  MET5122     0.0401
      6  CG       -10.3170  -32.0580  -10.3310 C.3   5122  MET5122     0.0596
      7  SD        -9.3510  -32.2300   -8.8170 S.3   5122  MET5122    -0.1393
      8  CE       -10.2850  -33.5010   -7.9650 C.3   5122  MET5122     0.0692
      9  N        -12.0880  -32.2210  -13.6300 N.am  5123  LEU5123    -0.1966
     10  CA       -11.8430  -33.1430  -14.7370 C.3   5123  LEU5123     0.1728
     11  C        -10.4190  -33.6950  -14.6620 C.2   5123  LEU5123     0.2617
     12  O         -9.5920  -33.1690  -13.9210 O.2   5123  LEU5123    -0.2715
     13  CB       -12.0880  -32.4320  -16.0660 C.3   5123  LEU5123     0.0311
     14  CG       -11.2600  -32.8200  -17.2920 C.3   5123  LEU5123     0.0022
     15  CD1      -12.1250  -33.6160  -18.2730 C.3   5123  LEU5123     0.0001
     16  CD2      -10.6290  -31.5830  -17.9640 C.3   5123  LEU5123     0.0001
     17  N        -10.1390  -34.7240  -15.4490 N.am  5124  GLY5124    -0.1941
     18  CA        -8.8010  -35.2660  -15.5420 C.3   5124  GLY5124     0.1998
     19  C         -8.7410  -36.7700  -15.6570 C.2   5124  GLY5124     0.2480
     20  O         -8.4160  -37.4530  -14.7000 O.2   5124  GLY5124    -0.2729
     21  N         -9.0270  -37.2950  -16.8400 N.am  5125  PRO5125    -0.2726
     22  CA        -9.3160  -36.4560  -17.9800 C.3   5125  PRO5125     0.1402
     23  C        -10.2380  -37.2290  -18.8980 C.2   5125  PRO5125     0.2269
     24  O        -10.7860  -38.2050  -18.4130 O.2   5125  PRO5125    -0.2865
     25  CB        -7.9410  -36.3120  -18.6270 C.3   5125  PRO5125     0.0296
     26  CG        -7.1950  -37.5580  -18.2260 C.3   5125  PRO5125     0.0237
     27  CD        -8.0280  -38.3000  -17.2150 C.3   5125  PRO5125     0.0939
@<TRIPOS>BOND
     1    23    24    2
     2    23    22    1
     3    25    26    1
     4    25    22    1
     5    15    14    1
     6    26    27    1
     7    22    21    1
     8    16    14    1
     9    14    13    1
    10    27    21    1
    11    21    19   am
    12    13    10    1
    13    19    18    1
    14    19    20    2
    15    18    17    1
    16    17    11   am
    17    10    11    1
    18    10     9    1
    19    11    12    2
    20     9     3   am
    21     3     4    2
    22     3     2    1
    23     2     1    1
    24     2     5    1
    25     6     5    1
    26     6     7    1
    27     7     8    1
