@<TRIPOS>MOLECULE
3tg2_ISC_A_1.pdb
 24 24 0 0 0
SMALL
GASTEIGER

@<TRIPOS>ATOM
      1  C         44.3810  -18.7170  -15.7050 C.2   501  ISC501      0.3660
      2  C1        43.3760  -19.2150  -14.7260 C.3   501  ISC501      0.1219
      3  O1        44.4880  -19.2490  -16.8430 O.co2 501  ISC501     -0.2456
      4  C2        43.1830  -18.3160  -13.5440 C.3   501  ISC501      0.0989
      5  O2        45.0940  -17.7390  -15.3500 O.co2 501  ISC501     -0.2456
      6  C3        41.9430  -18.6840  -12.6870 C.3   501  ISC501      0.0906
      7  O3        44.3470  -18.2130  -12.7740 O.3   501  ISC501     -0.3881
      8  C4        41.4560  -20.1370  -12.7530 C.3   501  ISC501     -0.0033
      9  C5        41.9070  -20.9290  -13.8530 C.3   501  ISC501     -0.0277
     10  C6        42.7540  -20.4730  -14.8930 C.3   501  ISC501     -0.0138
     11  C1'       39.9470  -17.7470  -10.8330 C.2   501  ISC501      0.3907
     12  O1'       39.1490  -18.3880  -10.1900 O.co2 501  ISC501     -0.2430
     13  C2'       39.8070  -17.7600  -12.2930 C.3   501  ISC501      0.2093
     14  O2'       40.8840  -17.0460  -10.3420 O.co2 501  ISC501     -0.2430
     15  C3'       38.4870  -17.5900  -12.8650 C.3   501  ISC501     -0.0065
     16  O3'       40.9260  -17.7680  -13.0590 O.3   501  ISC501     -0.3526
     17  H2        42.9940  -17.4340  -13.9050 H     501  ISC501      0.0631
     18  H3        42.1360  -18.4770  -11.7580 H     501  ISC501      0.0625
     19  HO3       44.2400  -18.6580  -12.0140 H     501  ISC501      0.2099
     20  H4        40.7140  -20.5010  -12.2450 H     501  ISC501      0.0333
     21  H5        41.7140  -21.8790  -13.8910 H     501  ISC501      0.0310
     22  H6        42.6990  -20.9090  -15.7570 H     501  ISC501      0.0318
     23  H3'       38.3920  -18.1850  -13.6280 H     501  ISC501      0.0301
     24 H3'A       37.8200  -17.8300  -12.2000 H     501  ISC501      0.0301
@<TRIPOS>BOND
     1     3     1   ar
     2    22    10    1
     3     1     5   ar
     4     1     2    1
     5    10     2    1
     6    10     9    1
     7     2     4    1
     8    17     4    1
     9    21     9    1
    10     9     8    1
    11    23    15    1
    12     4     7    1
    13     4     6    1
    14    16     6    1
    15    16    13    1
    16    15    13    1
    17    15    24    1
    18     7    19    1
    19     8     6    1
    20     8    20    1
    21     6    18    1
    22    13    11    1
    23    11    14   ar
    24    11    12   ar
