@<TRIPOS>MOLECULE
3tg4_SAM_A_1.pdb
 27 29 0 0 0
SMALL
GASTEIGER

@<TRIPOS>ATOM
      1  N         23.7390   10.5710   13.6180 N.3   434  SAM434     -0.1208
      2  CA        22.8970   10.7730   14.8410 C.3   434  SAM434      0.1952
      3  C         23.6220   11.5930   15.9050 C.2   434  SAM434      0.3819
      4  O         23.0790   11.8350   16.9970 O.co2 434  SAM434     -0.2441
      5  OXT       24.7600   12.0360   15.6960 O.co2 434  SAM434     -0.2441
      6  CB        22.4310    9.4330   15.4190 C.3   434  SAM434      0.0414
      7  CG        21.2300    8.8630   14.6650 C.3   434  SAM434      0.0503
      8  SD        19.7360    9.8760   14.8550 S.3   434  SAM434     -0.1761
      9  CE        18.5450    8.6080   15.3800 C.3   434  SAM434      0.0590
     10  C5'       19.1190   10.1630   13.1890 C.3   434  SAM434      0.0806
     11  C4'       19.9920   11.1590   12.4100 C.3   434  SAM434      0.1622
     12  O4'       21.2790   10.6330   12.1070 O.3   434  SAM434     -0.3153
     13  C3'       19.3980   11.4950   11.0680 C.3   434  SAM434      0.2168
     14  O3'       18.4640   12.5310   11.1820 O.3   434  SAM434     -0.2175
     15  C2'       20.6070   11.9220   10.2520 C.3   434  SAM434      0.2569
     16  O2'       20.9410   13.2770   10.5210 O.3   434  SAM434     -0.2130
     17  C1'       21.6940   11.0380   10.8090 C.3   434  SAM434      0.3185
     18  N9        21.8950    9.8340    9.9730 N.pl3 434  SAM434     -0.1439
     19  C8        21.5490    8.5490   10.3250 C.3   434  SAM434      0.3377
     20  N7        21.8980    7.7160    9.3190 N.2   434  SAM434     -0.2095
     21  C5        22.4770    8.4400    8.3310 C.2   434  SAM434      0.2526
     22  C6        23.0080    8.0760    7.0910 C.2   434  SAM434      0.4393
     23  N6        22.9950    6.7970    6.7120 N.pl3 434  SAM434      0.2180
     24  N1        23.5330    9.0540    6.2640 N.2   434  SAM434      0.0021
     25  C2        23.5310   10.3810    6.6620 C.3   434  SAM434      0.5254
     26  N3        23.0090   10.7340    7.8980 N.2   434  SAM434     -0.0055
     27  C4        22.4870    9.7790    8.7230 C.2   434  SAM434      0.3518
@<TRIPOS>BOND
     1    24    25    1
     2    24    22    2
     3    25    26    1
     4    23    22    1
     5    22    21    1
     6    26    27    2
     7    21    27    1
     8    21    20    2
     9    27    18    1
    10    20    19    1
    11    18    19    1
    12    18    17    1
    13    15    16    1
    14    15    17    1
    15    15    13    1
    16    17    12    1
    17    13    14    1
    18    13    11    1
    19    12    11    1
    20    11    10    1
    21    10     8    1
    22     1     2    1
    23     7     8    1
    24     7     6    1
    25     2     6    1
    26     2     3    1
    27     8     9    1
    28     5     3   ar
    29     3     4   ar
