@<TRIPOS>MOLECULE
3tg5_SAH_A_1.pdb
 26 28 0 0 0
SMALL
GASTEIGER

@<TRIPOS>ATOM
      1  N         24.6870  -11.0570   -9.9070 N.3   435  SAH435     -0.1208
      2  CA        23.6920  -11.4030  -10.9620 C.3   435  SAH435      0.1952
      3  CB        23.1730  -10.1280  -11.6260 C.3   435  SAH435      0.0422
      4  CG        21.9310   -9.5970  -10.9160 C.3   435  SAH435      0.0597
      5  SD        20.5620  -10.6910  -11.1350 S.3   435  SAH435     -0.1375
      6  C         24.2990  -12.3330  -11.9740 C.2   435  SAH435      0.3819
      7  O         25.4360  -12.7850  -11.8350 O.co2 435  SAH435     -0.2441
      8  OXT       23.6670  -12.6800  -12.9700 O.co2 435  SAH435     -0.2441
      9  C5'       19.9620  -10.8320   -9.4770 C.3   435  SAH435      0.0899
     10  C4'       20.8130  -11.8280   -8.6950 C.3   435  SAH435      0.1630
     11  O4'       22.0560  -11.2300   -8.2970 O.3   435  SAH435     -0.3153
     12  C3'       20.1650  -12.2900   -7.4000 C.3   435  SAH435      0.2168
     13  O3'       19.3410  -13.4390   -7.5970 O.3   435  SAH435     -0.2175
     14  C2'       21.3520  -12.5960   -6.5110 C.3   435  SAH435      0.2569
     15  O2'       21.8650  -13.9000   -6.7990 O.3   435  SAH435     -0.2130
     16  C1'       22.3940  -11.5820   -6.9490 C.3   435  SAH435      0.3185
     17  N9        22.3850  -10.3770   -6.0730 N.pl3 435  SAH435     -0.1439
     18  C8        21.8610   -9.1810   -6.3970 C.3   435  SAH435      0.3377
     19  N7        22.0160   -8.2840   -5.3950 N.2   435  SAH435     -0.2095
     20  C5        22.6530   -8.9080   -4.3920 C.2   435  SAH435      0.2526
     21  C6        23.1300   -8.5370   -3.0360 C.2   435  SAH435      0.4393
     22  N6        22.9380   -7.2860   -2.5560 N.pl3 435  SAH435      0.2180
     23  N1        23.7490   -9.4900   -2.2970 N.2   435  SAH435      0.0021
     24  C2        23.9370  -10.7390   -2.7680 C.3   435  SAH435      0.5254
     25  N3        23.5360  -11.1410   -3.9920 N.2   435  SAH435     -0.0055
     26  C4        22.8980  -10.2890   -4.8380 C.2   435  SAH435      0.3518
@<TRIPOS>BOND
     1     8     6   ar
     2     6     7   ar
     3     6     2    1
     4     3     2    1
     5     3     4    1
     6     5     4    1
     7     5     9    1
     8     2     1    1
     9     9    10    1
    10    10    11    1
    11    10    12    1
    12    11    16    1
    13    13    12    1
    14    12    14    1
    15    16    14    1
    16    16    17    1
    17    15    14    1
    18    18    17    1
    19    18    19    1
    20    17    26    1
    21    19    20    2
    22    26    20    1
    23    26    25    2
    24    20    21    1
    25    25    24    1
    26    21    22    1
    27    21    23    2
    28    24    23    1
