@<TRIPOS>MOLECULE
3tg6_0MM_A_1.pdb
 31 34 0 0 0
SMALL
GASTEIGER

@<TRIPOS>ATOM
      1  C1        25.8580  -33.5330   21.1210 C.ar    1  0MM1        0.0208
      2  C2        24.7620  -34.2530   21.5830 C.ar    1  0MM1        0.0056
      3  C3        26.4590  -35.7110   15.4720 C.ar    1  0MM1        0.0171
      4  C4        27.2230  -35.0840   14.4880 C.ar    1  0MM1        0.0254
      5  C5        25.5320  -33.3870   14.2490 C.ar    1  0MM1        0.0367
      6  C6        26.9600  -34.2430   20.6820 C.ar    1  0MM1        0.0998
      7  C7        24.7940  -35.6420   21.5970 C.ar    1  0MM1        0.0496
      8  C8        22.9140  -37.3810   21.4270 C.ar    1  0MM1        0.1072
      9  C9        25.2270  -35.1750   15.8460 C.ar    1  0MM1        0.0587
     10  C10       26.7530  -33.9220   13.8820 C.ar    1  0MM1        0.1438
     11  C11       24.7760  -34.0150   15.2240 C.ar    1  0MM1        0.0726
     12  C12       23.6490  -36.3690   22.0790 C.ar    1  0MM1        0.1292
     13  C13       21.9390  -37.7160   22.3370 C.ar    1  0MM1        0.1591
     14  C14       25.9470  -36.2600   21.1400 C.ar    1  0MM1        0.1398
     15  C15       23.0820  -38.0060   20.1070 C.2     1  0MM1        0.2534
     16  C16       24.1600  -35.0830   18.0730 C.3     1  0MM1        0.1124
     17  C17       24.6190  -37.2680   16.9780 C.3     1  0MM1        0.1124
     18  C18       23.1380  -35.7730   18.9870 C.3     1  0MM1        0.1151
     19  C19       23.3510  -37.8070   17.6180 C.3     1  0MM1        0.1151
     20  C20       20.8310  -38.6800   22.3480 C.3     1  0MM1        0.0755
     21  N21       27.0320  -35.5910   20.6800 N.ar    1  0MM1       -0.2324
     22  N22       23.1560  -36.1000   23.2890 N.ar    1  0MM1       -0.0771
     23  N23       24.4710  -35.8230   16.8330 N.pl3   1  0MM1       -0.3034
     24  N24       23.1930  -37.2350   18.9530 N.am    1  0MM1       -0.2725
     25  N25       27.4890  -33.2490   12.8800 N.pl3   1  0MM1        0.0577
     26  O26       28.6080  -33.7020   12.5150 O.2     1  0MM1       -0.1261
     27  O27       23.1120  -39.2310   20.1040 O.2     1  0MM1       -0.2698
     28  O28       26.9810  -32.2060   12.3880 O.2     1  0MM1       -0.1261
     29  O29       22.0690  -36.9560   23.4520 O.2     1  0MM1       -0.3576
     30 CL30       23.2740  -33.2890   15.6140 Cl      1  0MM1       -0.0809
     31 CL31       26.1250  -37.9830   21.1050 Cl      1  0MM1       -0.0613
@<TRIPOS>BOND
     1    28    25    2
     2    26    25    2
     3    25    10    1
     4    10     5   ar
     5    10     4   ar
     6     5    11   ar
     7     4     3   ar
     8    11    30    1
     9    11     9   ar
    10     3     9   ar
    11     9    23    1
    12    23    17    1
    13    23    16    1
    14    17    19    1
    15    19    24    1
    16    16    18    1
    17    24    18    1
    18    24    15   am
    19    27    15    2
    20    15     8    1
    21    21     6   ar
    22    21    14   ar
    23     6     1   ar
    24    31    14    1
    25     1     2   ar
    26    14     7   ar
    27     8    12   ar
    28     8    13   ar
    29     2     7   ar
    30     7    12    1
    31    12    22   ar
    32    13    20    1
    33    13    29   ar
    34    22    29   ar
