@<TRIPOS>MOLECULE
3tga_HEM_A_1.pdb
 43 50 0 0 0
SMALL
GASTEIGER

@<TRIPOS>ATOM
      1  CHA      -15.4930  -14.9060   17.6790 C.2   185  HEM185      0.0000
      2  CHB      -18.2670  -18.5560   16.1850 C.2   185  HEM185      0.0000
      3  CHC      -14.4000  -20.7370   14.2510 C.2   185  HEM185      0.0000
      4  CHD      -11.5670  -17.6220   16.6570 C.2   185  HEM185      0.0000
      5  C1A      -16.5860  -15.6690   17.3830 C.ar  185  HEM185      0.0000
      6  C2A      -17.9730  -15.2940   17.5680 C.ar  185  HEM185      0.0000
      7  C3A      -18.7360  -16.2980   17.1550 C.ar  185  HEM185      0.0000
      8  C4A      -17.8580  -17.3470   16.6910 C.ar  185  HEM185      0.0000
      9  CMA      -20.2800  -16.3330   17.1700 C.3   185  HEM185      0.0000
     10  CAA      -18.5170  -13.9700   18.1290 C.3   185  HEM185      0.0000
     11  CBA      -17.9230  -13.6290   19.4810 C.3   185  HEM185      0.0000
     12  CGA      -18.3630  -12.2160   19.7460 C.2   185  HEM185      0.0000
     13  O1A      -17.5410  -11.4170   20.2520 O.co2 185  HEM185      0.0000
     14  O2A      -19.5330  -11.8860   19.4170 O.co2 185  HEM185      0.0000
     15  C1B      -17.4740  -19.4260   15.4810 C.2   185  HEM185      0.0000
     16  C2B      -17.9460  -20.5560   14.7100 C.2   185  HEM185      0.0000
     17  C3B      -16.8790  -21.1590   14.1880 C.2   185  HEM185      0.0000
     18  C4B      -15.7000  -20.4250   14.5870 C.2   185  HEM185      0.0000
     19  CMB      -19.4200  -20.9850   14.5660 C.3   185  HEM185      0.0000
     20  CAB      -16.8550  -22.3830   13.2560 C.2   185  HEM185      0.0000
     21  CBB      -17.7660  -22.4960   12.2770 C.2   185  HEM185      0.0000
     22  C1C      -13.2840  -20.1200   14.7800 C.ar  185  HEM185      0.0000
     23  C2C      -11.9010  -20.5340   14.6050 C.ar  185  HEM185      0.0000
     24  C3C      -11.1270  -19.6790   15.2990 C.ar  185  HEM185      0.0000
     25  C4C      -11.9870  -18.6880   15.8950 C.ar  185  HEM185      0.0000
     26  CMC      -11.4540  -21.7710   13.7900 C.3   185  HEM185      0.0000
     27  CAC       -9.5880  -19.6370   15.4400 C.2   185  HEM185      0.0000
     28  CBC       -8.8070  -20.1840   14.5140 C.2   185  HEM185      0.0000
     29  C1D      -12.3460  -16.5650   17.0580 C.2   185  HEM185      0.0000
     30  C2D      -11.8340  -15.3020   17.5350 C.2   185  HEM185      0.0000
     31  C3D      -13.0620  -14.4670   17.8640 C.2   185  HEM185      0.0000
     32  C4D      -14.1880  -15.2970   17.5290 C.2   185  HEM185      0.0000
     33  CMD      -10.3670  -14.8780   17.7070 C.3   185  HEM185      0.0000
     34  CAD      -13.0920  -13.0340   18.4130 C.3   185  HEM185      0.0000
     35  CBD      -12.7240  -12.1050   17.2650 C.3   185  HEM185      0.0000
     36  CGD      -12.7290  -10.6630   17.6930 C.2   185  HEM185      0.0000
     37  O1D      -11.9380   -9.8880   17.1150 O.co2 185  HEM185      0.0000
     38  O2D      -13.5010  -10.2850   18.6100 O.co2 185  HEM185      0.0000
     39  NA       -16.5470  -16.9350   16.8370 N.ar  185  HEM185      0.0000
     40  NB       -16.0950  -19.3670   15.3850 N.2   185  HEM185      0.0000
     41  NC       -13.2980  -18.9860   15.5770 N.ar  185  HEM185      0.0000
     42  ND       -13.7390  -16.5250   17.0550 N.2   185  HEM185      0.0000
     43 FE        -14.9150  -17.9400   16.2020 Fe    185  HEM185      0.0000
@<TRIPOS>BOND
     1    21    20    2
     2    20    17    1
     3    26    23    1
     4    17    18    1
     5    17    16    2
     6     3    18    2
     7     3    22    1
     8    28    27    2
     9    19    16    1
    10    18    40    1
    11    23    22   ar
    12    23    24   ar
    13    16    15    1
    14    22    41   ar
    15    24    27    1
    16    24    25   ar
    17    40    15    2
    18    40    43    1
    19    15     2    1
    20    41    25   ar
    21    41    43    1
    22    25     4    1
    23     2     8    2
    24    43    39    1
    25    43    42    1
    26     4    29    2
    27     8    39   ar
    28     8     7   ar
    29    39     5   ar
    30    42    29    1
    31    42    32    2
    32    29    30    1
    33    37    36   ar
    34     7     9    1
    35     7     6   ar
    36    35    36    1
    37    35    34    1
    38     5     6   ar
    39     5     1    2
    40    32     1    1
    41    32    31    1
    42    30    33    1
    43    30    31    2
    44     6    10    1
    45    36    38   ar
    46    31    34    1
    47    10    11    1
    48    14    12   ar
    49    11    12    1
    50    12    13   ar
