@<TRIPOS>MOLECULE
3tgb_HEM_A_1.pdb
 43 50 0 0 0
SMALL
GASTEIGER

@<TRIPOS>ATOM
      1  CHA      -13.4550    6.4950   -8.5880 C.2   185  HEM185      0.0000
      2  CHB      -16.3230    2.9410  -10.1320 C.2   185  HEM185      0.0000
      3  CHC      -12.4700    0.7030  -12.0760 C.2   185  HEM185      0.0000
      4  CHD       -9.5840    3.7090   -9.6080 C.2   185  HEM185      0.0000
      5  C1A      -14.5600    5.7530   -8.8890 C.ar  185  HEM185      0.0000
      6  C2A      -15.9220    6.1720   -8.6640 C.ar  185  HEM185      0.0000
      7  C3A      -16.7300    5.1980   -9.0890 C.ar  185  HEM185      0.0000
      8  C4A      -15.8940    4.1290   -9.5970 C.ar  185  HEM185      0.0000
      9  CMA      -18.2750    5.1890   -9.0500 C.3   185  HEM185      0.0000
     10  CAA      -16.3290    7.5220   -8.0350 C.3   185  HEM185      0.0000
     11  CBA      -16.5110    7.3440   -6.5300 C.3   185  HEM185      0.0000
     12  CGA      -16.7230    8.6790   -5.8580 C.2   185  HEM185      0.0000
     13  O1A      -15.8510    9.5750   -5.9950 O.co2 185  HEM185      0.0000
     14  O2A      -17.7660    8.8440   -5.1700 O.co2 185  HEM185      0.0000
     15  C1B      -15.5330    2.0630  -10.8350 C.2   185  HEM185      0.0000
     16  C2B      -16.0140    0.9360  -11.6050 C.2   185  HEM185      0.0000
     17  C3B      -14.9560    0.3110  -12.1320 C.2   185  HEM185      0.0000
     18  C4B      -13.7680    1.0300  -11.7340 C.2   185  HEM185      0.0000
     19  CMB      -17.5020    0.5540  -11.7370 C.3   185  HEM185      0.0000
     20  CAB      -14.9410   -0.9120  -13.0680 C.2   185  HEM185      0.0000
     21  CBB      -15.8230   -0.9900  -14.0740 C.2   185  HEM185      0.0000
     22  C1C      -11.3460    1.2840  -11.5240 C.ar  185  HEM185      0.0000
     23  C2C       -9.9790    0.8290  -11.6910 C.ar  185  HEM185      0.0000
     24  C3C       -9.1760    1.6480  -10.9840 C.ar  185  HEM185      0.0000
     25  C4C      -10.0110    2.6610  -10.3890 C.ar  185  HEM185      0.0000
     26  CMC       -9.5800   -0.4160  -12.5190 C.3   185  HEM185      0.0000
     27  CAC       -7.6360    1.6340  -10.8240 C.2   185  HEM185      0.0000
     28  CBC       -6.8480    1.1050  -11.7560 C.2   185  HEM185      0.0000
     29  C1D      -10.3440    4.7730   -9.2010 C.2   185  HEM185      0.0000
     30  C2D       -9.8060    6.0170   -8.7020 C.2   185  HEM185      0.0000
     31  C3D      -11.0170    6.8790   -8.3820 C.2   185  HEM185      0.0000
     32  C4D      -12.1600    6.0800   -8.7320 C.2   185  HEM185      0.0000
     33  CMD       -8.3260    6.3860   -8.5220 C.3   185  HEM185      0.0000
     34  CAD      -11.0180    8.3110   -7.8220 C.3   185  HEM185      0.0000
     35  CBD      -10.5930    9.2470   -8.9490 C.3   185  HEM185      0.0000
     36  CGD      -10.7070   10.6980   -8.5550 C.2   185  HEM185      0.0000
     37  O1D       -9.9600   11.5190   -9.1270 O.co2 185  HEM185      0.0000
     38  O2D      -11.5330   11.0390   -7.6720 O.co2 185  HEM185      0.0000
     39  NA       -14.5690    4.5000   -9.4650 N.ar  185  HEM185      0.0000
     40  NB       -14.1510    2.0990  -10.9400 N.2   185  HEM185      0.0000
     41  NC       -11.3270    2.4150  -10.7270 N.ar  185  HEM185      0.0000
     42  ND       -11.7370    4.8440   -9.2110 N.2   185  HEM185      0.0000
     43 FE        -12.9340    3.4480  -10.0780 Fe    185  HEM185      0.0000
@<TRIPOS>BOND
     1    21    20    2
     2    20    17    1
     3    26    23    1
     4    17    18    1
     5    17    16    2
     6     3    18    2
     7     3    22    1
     8    28    27    2
     9    19    16    1
    10    18    40    1
    11    23    22   ar
    12    23    24   ar
    13    16    15    1
    14    22    41   ar
    15    24    27    1
    16    24    25   ar
    17    40    15    2
    18    40    43    1
    19    15     2    1
    20    41    25   ar
    21    41    43    1
    22    25     4    1
    23     2     8    2
    24    43    39    1
    25    43    42    1
    26     4    29    2
    27     8    39   ar
    28     8     7   ar
    29    39     5   ar
    30    42    29    1
    31    42    32    2
    32    29    30    1
    33    37    36   ar
    34     7     9    1
    35     7     6   ar
    36    35    36    1
    37    35    34    1
    38     5     6   ar
    39     5     1    2
    40    32     1    1
    41    32    31    1
    42    30    33    1
    43    30    31    2
    44     6    10    1
    45    36    38   ar
    46    31    34    1
    47    10    11    1
    48    11    12    1
    49    13    12   ar
    50    12    14   ar
