@<TRIPOS>MOLECULE
3tgc_HEM_A_1.pdb
 43 50 0 0 0
SMALL
GASTEIGER

@<TRIPOS>ATOM
      1  CHA      -13.5100    6.6210   -8.6710 C.2   185  HEM185      0.0000
      2  CHB      -16.2680    2.9350  -10.1470 C.2   185  HEM185      0.0000
      3  CHC      -12.4020    0.7720  -12.1310 C.2   185  HEM185      0.0000
      4  CHD       -9.5880    3.8850   -9.6960 C.2   185  HEM185      0.0000
      5  C1A      -14.5920    5.8300   -8.9460 C.ar  185  HEM185      0.0000
      6  C2A      -15.9680    6.1710   -8.6750 C.ar  185  HEM185      0.0000
      7  C3A      -16.7330    5.1560   -9.0830 C.ar  185  HEM185      0.0000
      8  C4A      -15.8620    4.1400   -9.6280 C.ar  185  HEM185      0.0000
      9  CMA      -18.2720    5.0530   -9.0010 C.3   185  HEM185      0.0000
     10  CAA      -16.4290    7.4920   -8.0270 C.3   185  HEM185      0.0000
     11  CBA      -16.5360    7.3140   -6.5150 C.3   185  HEM185      0.0000
     12  CGA      -16.8060    8.6450   -5.8610 C.2   185  HEM185      0.0000
     13  O1A      -15.9400    9.5540   -5.9620 O.co2 185  HEM185      0.0000
     14  O2A      -17.8860    8.7920   -5.2270 O.co2 185  HEM185      0.0000
     15  C1B      -15.4730    2.0620  -10.8480 C.2   185  HEM185      0.0000
     16  C2B      -15.9490    0.9150  -11.5880 C.2   185  HEM185      0.0000
     17  C3B      -14.8830    0.3100  -12.1220 C.2   185  HEM185      0.0000
     18  C4B      -13.7000    1.0670  -11.7680 C.2   185  HEM185      0.0000
     19  CMB      -17.4310    0.4840  -11.6890 C.3   185  HEM185      0.0000
     20  CAB      -14.8680   -0.9340  -13.0290 C.2   185  HEM185      0.0000
     21  CBB      -15.8620   -1.1230  -13.9090 C.2   185  HEM185      0.0000
     22  C1C      -11.2910    1.3880  -11.5890 C.ar  185  HEM185      0.0000
     23  C2C       -9.9140    0.9670  -11.7510 C.ar  185  HEM185      0.0000
     24  C3C       -9.1330    1.8110  -11.0560 C.ar  185  HEM185      0.0000
     25  C4C       -9.9920    2.8170  -10.4690 C.ar  185  HEM185      0.0000
     26  CMC       -9.4860   -0.2830  -12.5540 C.3   185  HEM185      0.0000
     27  CAC       -7.5920    1.8120  -10.9150 C.2   185  HEM185      0.0000
     28  CBC       -6.8370    1.2290  -11.8410 C.2   185  HEM185      0.0000
     29  C1D      -10.3670    4.9420   -9.2820 C.2   185  HEM185      0.0000
     30  C2D       -9.8480    6.1980   -8.7910 C.2   185  HEM185      0.0000
     31  C3D      -11.0690    7.0400   -8.4630 C.2   185  HEM185      0.0000
     32  C4D      -12.2050    6.2270   -8.8100 C.2   185  HEM185      0.0000
     33  CMD       -8.3780    6.6060   -8.6030 C.3   185  HEM185      0.0000
     34  CAD      -11.0940    8.4750   -7.9140 C.3   185  HEM185      0.0000
     35  CBD      -10.7000    9.3800   -9.0750 C.3   185  HEM185      0.0000
     36  CGD      -10.7650   10.8220   -8.6520 C.2   185  HEM185      0.0000
     37  O1D      -10.0100   11.6350   -9.2230 O.co2 185  HEM185      0.0000
     38  O2D      -11.5650   11.1530   -7.7440 O.co2 185  HEM185      0.0000
     39  NA       -14.5560    4.5790   -9.5260 N.ar  185  HEM185      0.0000
     40  NB       -14.0910    2.1350  -10.9770 N.2   185  HEM185      0.0000
     41  NC       -11.2990    2.5270  -10.8060 N.ar  185  HEM185      0.0000
     42  ND       -11.7610    4.9990   -9.2960 N.2   185  HEM185      0.0000
     43 FE        -12.9080    3.5420  -10.1280 Fe    185  HEM185      0.0000
@<TRIPOS>BOND
     1    21    20    2
     2    20    17    1
     3    26    23    1
     4     3    18    2
     5     3    22    1
     6    17    18    1
     7    17    16    2
     8    28    27    2
     9    18    40    1
    10    23    22   ar
    11    23    24   ar
    12    19    16    1
    13    22    41   ar
    14    16    15    1
    15    24    27    1
    16    24    25   ar
    17    40    15    2
    18    40    43    1
    19    15     2    1
    20    41    25   ar
    21    41    43    1
    22    25     4    1
    23     2     8    2
    24    43    39    1
    25    43    42    1
    26     4    29    2
    27     8    39   ar
    28     8     7   ar
    29    39     5   ar
    30    42    29    1
    31    42    32    2
    32    29    30    1
    33    37    36   ar
    34     7     9    1
    35     7     6   ar
    36    35    36    1
    37    35    34    1
    38     5     6   ar
    39     5     1    2
    40    32     1    1
    41    32    31    1
    42    30    33    1
    43    30    31    2
    44     6    10    1
    45    36    38   ar
    46    31    34    1
    47    10    11    1
    48    11    12    1
    49    13    12   ar
    50    12    14   ar
