@<TRIPOS>MOLECULE
3tgm_3TG_A_1.pdb
 22 24 0 0 0
SMALL
GASTEIGER

@<TRIPOS>ATOM
      1  C        -23.8780  -11.3350    6.9300 C.2   301  3TG301      0.1741
      2  N        -22.5210  -13.3840    6.8900 N.ar  301  3TG301     -0.3006
      3  O        -24.7230  -11.9270    6.2730 O.2   301  3TG301     -0.2940
      4  CA       -22.6590  -12.0500    7.4640 C.3   301  3TG301      0.1721
      5  CAB      -24.0660   -6.0420    4.0080 C.ar  301  3TG301     -0.0000
      6  CAC      -28.0480   -8.1220    9.6130 C.ar  301  3TG301     -0.0000
      7  CAD      -25.0330   -6.9570    3.5950 C.ar  301  3TG301     -0.0003
      8  CAE      -23.4800   -6.1710    5.2650 C.ar  301  3TG301     -0.0003
      9  CAF      -27.5560   -9.4250    9.5490 C.ar  301  3TG301     -0.0003
     10  CAG      -27.6280   -7.1730    8.6810 C.ar  301  3TG301     -0.0003
     11  CAH      -22.1020  -15.0390    5.5130 C.ar  301  3TG301      0.1193
     12  CAI      -25.4130   -8.0000    4.4340 C.ar  301  3TG301     -0.0039
     13  CAJ      -23.8560   -7.2140    6.1060 C.ar  301  3TG301     -0.0039
     14  CAK      -26.6450   -9.7860    8.5560 C.ar  301  3TG301     -0.0039
     15  CAL      -26.7190   -7.5380    7.6880 C.ar  301  3TG301     -0.0039
     16  CAM      -22.0950  -13.6680    5.6570 C.ar  301  3TG301      0.0984
     17  CAN      -22.7960  -14.5270    7.5210 C.ar  301  3TG301      0.1790
     18  CAO      -24.0140   -9.8630    7.2360 C.3   301  3TG301      0.0753
     19  NAQ      -22.5430  -15.5510    6.6790 N.ar  301  3TG301     -0.2223
     20  CAS      -24.8290   -8.1300    5.6940 C.ar  301  3TG301     -0.0180
     21  CAT      -26.2200   -8.8430    7.6190 C.ar  301  3TG301     -0.0180
     22  CAU      -25.2480   -9.2530    6.5710 C.3   301  3TG301      0.0519
@<TRIPOS>BOND
     1     7     5   ar
     2     7    12   ar
     3     5     8   ar
     4    12    20   ar
     5     8    13   ar
     6    11    16   ar
     7    11    19   ar
     8    16     2   ar
     9    20    13   ar
    10    20    22    1
    11     3     1    2
    12    22    18    1
    13    22    21    1
    14    19    17   ar
    15     2     4    1
    16     2    17   ar
    17     1    18    1
    18     1     4    1
    19    21    15   ar
    20    21    14   ar
    21    15    10   ar
    22    14     9   ar
    23    10     6   ar
    24     9     6   ar
