@<TRIPOS>MOLECULE
3tgm_HEM_A_1.pdb
 43 50 0 0 0
SMALL
GASTEIGER

@<TRIPOS>ATOM
      1  CHA      -20.7450  -18.7440    7.9850 C.2   300  HEM300      0.0000
      2  CHB      -23.1530  -18.3310    3.8140 C.2   300  HEM300      0.0000
      3  CHC      -26.2640  -15.2690    5.9240 C.2   300  HEM300      0.0000
      4  CHD      -24.6270  -16.7890   10.2370 C.2   300  HEM300      0.0000
      5  C1A      -21.0050  -18.7150    6.6300 C.ar  300  HEM300      0.0000
      6  C2A      -20.0660  -18.9280    5.5370 C.ar  300  HEM300      0.0000
      7  C3A      -20.7350  -18.8090    4.3840 C.ar  300  HEM300      0.0000
      8  C4A      -22.1200  -18.5280    4.7040 C.ar  300  HEM300      0.0000
      9  CMA      -20.1450  -18.9510    2.9600 C.3   300  HEM300      0.0000
     10  CAA      -18.5510  -19.2210    5.6500 C.3   300  HEM300      0.0000
     11  CBA      -18.2770  -20.5300    6.3790 C.3   300  HEM300      0.0000
     12  CGA      -16.9910  -20.3740    7.1530 C.2   300  HEM300      0.0000
     13  O1A      -17.0310  -20.4320    8.4160 O.co2 300  HEM300      0.0000
     14  O2A      -15.9250  -20.1880    6.5050 O.co2 300  HEM300      0.0000
     15  C1B      -24.1270  -17.3680    3.9760 C.2   300  HEM300      0.0000
     16  C2B      -24.8140  -16.6480    2.9250 C.2   300  HEM300      0.0000
     17  C3B      -25.6760  -15.7950    3.5070 C.2   300  HEM300      0.0000
     18  C4B      -25.5590  -15.9490    4.9480 C.2   300  HEM300      0.0000
     19  CMB      -24.5670  -16.8620    1.4120 C.3   300  HEM300      0.0000
     20  CAB      -26.6390  -14.8140    2.7940 C.2   300  HEM300      0.0000
     21  CBB      -26.2280  -14.0870    1.7480 C.2   300  HEM300      0.0000
     22  C1C      -26.1440  -15.4530    7.2890 C.ar  300  HEM300      0.0000
     23  C2C      -26.9880  -14.8910    8.3300 C.ar  300  HEM300      0.0000
     24  C3C      -26.5310  -15.3170    9.5120 C.ar  300  HEM300      0.0000
     25  C4C      -25.3830  -16.1600    9.2730 C.ar  300  HEM300      0.0000
     26  CMC      -28.2050  -13.9610    8.1140 C.3   300  HEM300      0.0000
     27  CAC      -27.1090  -14.9680   10.9010 C.2   300  HEM300      0.0000
     28  CBC      -26.7440  -13.8200   11.4800 C.2   300  HEM300      0.0000
     29  C1D      -23.4140  -17.4200   10.0640 C.2   300  HEM300      0.0000
     30  C2D      -22.5650  -17.9140   11.1260 C.2   300  HEM300      0.0000
     31  C3D      -21.3470  -18.5260   10.4200 C.2   300  HEM300      0.0000
     32  C4D      -21.5890  -18.3420    9.0040 C.2   300  HEM300      0.0000
     33  CMD      -22.8230  -17.8400   12.6490 C.3   300  HEM300      0.0000
     34  CAD      -20.1290  -19.2030   11.0870 C.3   300  HEM300      0.0000
     35  CBD      -20.4280  -20.6920   11.2310 C.3   300  HEM300      0.0000
     36  CGD      -19.3930  -21.3700   12.0930 C.2   300  HEM300      0.0000
     37  O1D      -19.7460  -21.8040   13.2240 O.co2 300  HEM300      0.0000
     38  O2D      -18.2180  -21.4840   11.6470 O.co2 300  HEM300      0.0000
     39  NA       -22.2440  -18.4720    6.0780 N.ar  300  HEM300      0.0000
     40  NB       -24.6080  -16.9190    5.1910 N.2   300  HEM300      0.0000
     41  NC       -25.1810  -16.2220    7.9090 N.ar  300  HEM300      0.0000
     42  ND       -22.8090  -17.6920    8.8440 N.2   300  HEM300      0.0000
     43 FE        -23.7310  -17.3160    7.0120 Fe    300  HEM300      0.0000
@<TRIPOS>BOND
     1    19    16    1
     2    21    20    2
     3    20    17    1
     4    16    17    2
     5    16    15    1
     6     9     7    1
     7    17    18    1
     8     2    15    1
     9     2     8    2
    10    15    40    2
    11     7     8   ar
    12     7     6   ar
    13     8    39   ar
    14    18    40    1
    15    18     3    2
    16    40    43    1
    17     6    10    1
    18     6     5   ar
    19    10    11    1
    20     3    22    1
    21    39     5   ar
    22    39    43    1
    23    11    12    1
    24    14    12   ar
    25     5     1    2
    26    43    41    1
    27    43    42    1
    28    12    13   ar
    29    22    41   ar
    30    22    23   ar
    31    41    25   ar
    32     1    32    1
    33    26    23    1
    34    23    24   ar
    35    42    32    2
    36    42    29    1
    37    32    31    1
    38    25    24   ar
    39    25     4    1
    40    24    27    1
    41    29     4    2
    42    29    30    1
    43    31    34    1
    44    31    30    2
    45    27    28    2
    46    34    35    1
    47    30    33    1
    48    35    36    1
    49    38    36   ar
    50    36    37   ar
