@<TRIPOS>MOLECULE
3tgp_GNP_A_1.pdb
 41 43 0 0 0
SMALL
GASTEIGER

@<TRIPOS>ATOM
      1  PG         4.8380   31.9440   21.8070 P.3   167  GNP167      0.4884
      2  O1G        4.6460   32.5270   23.1910 O.3   167  GNP167     -0.1240
      3  O2G        4.4870   30.4780   21.7400 O.3   167  GNP167     -0.1240
      4  O3G        4.1030   32.8610   20.8520 O.2   167  GNP167     -0.2331
      5  N3B        6.3830   32.0740   21.3940 N.3   167  GNP167     -0.0163
      6  PB         7.0360   31.8440   19.9430 P.3   167  GNP167      0.4669
      7  O1B        7.1810   30.3940   19.6880 O.3   167  GNP167     -0.1253
      8  O2B        6.3020   32.6280   18.9130 O.2   167  GNP167     -0.2351
      9  O3A        8.4700   32.3910   20.0350 O.3   167  GNP167     -0.2360
     10  PA         8.9720   33.7750   19.5920 P.3   167  GNP167      0.2213
     11  O1A        8.9910   33.8140   18.1100 O.2   167  GNP167     -0.5170
     12  O2A        8.2690   34.8510   20.3300 O.3   167  GNP167     -0.4371
     13  O5'       10.4900   33.8540   20.0260 O.3   167  GNP167     -0.3245
     14  C5'       10.8440   33.6050   21.3870 C.3   167  GNP167      0.0836
     15  C4'       12.2410   34.1230   21.6710 C.3   167  GNP167      0.1131
     16  O4'       13.2100   33.3260   20.9410 O.3   167  GNP167     -0.3474
     17  C3'       12.4790   35.5690   21.2550 C.3   167  GNP167      0.1133
     18  O3'       13.3660   36.1980   22.1720 O.3   167  GNP167     -0.3864
     19  C2'       13.1150   35.4020   19.8810 C.3   167  GNP167      0.1266
     20  O2'       13.9430   36.4870   19.5240 O.3   167  GNP167     -0.3849
     21  C1'       13.9690   34.1640   20.0980 C.3   167  GNP167      0.1618
     22  N9        14.2350   33.4610   18.8520 N.pl3 167  GNP167     -0.2228
     23  C8        13.3030   33.0160   17.9410 C.2   167  GNP167      0.1459
     24  N7        13.8390   32.4200   16.9120 N.2   167  GNP167     -0.3785
     25  C5        15.2050   32.4730   17.1600 C.2   167  GNP167      0.2713
     26  C6        16.2920   31.9860   16.3990 C.1   167  GNP167      0.2499
     27  O6        16.2600   31.3920   15.3140 O.2   167  GNP167     -0.2058
     28  N1        17.5190   32.2420   17.0070 N.2   167  GNP167     -0.2475
     29  C2        17.6830   32.8930   18.2050 C.1   167  GNP167      0.2532
     30  N2        18.9460   33.0520   18.6300 N.pl3 167  GNP167     -0.0226
     31  N3        16.6700   33.3540   18.9290 N.2   167  GNP167     -0.3059
     32  C4        15.4670   33.1110   18.3490 C.2   167  GNP167      0.2459
     33 H5'2       10.8150   32.6400   21.5580 H     167  GNP167      0.0591
     34 H5'1       10.2050   34.0580   21.9760 H     167  GNP167      0.0591
     35  H4'       12.4200   34.0370   22.6310 H     167  GNP167      0.0647
     36  H3'       11.6320   36.0580   21.1910 H     167  GNP167      0.0647
     37 HO3'       13.6210   35.5520   22.8640 H     167  GNP167      0.2100
     38  H2'       12.4320   35.2390   19.1970 H     167  GNP167      0.0663
     39 HO2'       13.5380   36.9620   18.7680 H     167  GNP167      0.2101
     40  H1'       14.8110   34.4080   20.5350 H     167  GNP167      0.0841
     41  H8        12.3460   33.2180   18.0080 H     167  GNP167      0.1149
@<TRIPOS>BOND
     1    27    26    2
     2    26    28    2
     3    26    25    1
     4    24    25    2
     5    24    23    2
     6    28    29    2
     7    25    32    1
     8    23    41    1
     9    23    22    1
    10    11    10    2
    11    29    30    1
    12    29    31    2
    13    32    22    1
    14    32    31    2
    15    39    20    1
    16    22    21    1
    17     8     6    2
    18    38    19    1
    19    20    19    1
    20    10    13    1
    21    10     9    1
    22    10    12    1
    23     7     6    1
    24    19    21    1
    25    19    17    1
    26     6     9    1
    27     6     5    1
    28    13    14    1
    29    21    40    1
    30    21    16    1
    31     4     1    2
    32    16    15    1
    33    36    17    1
    34    17    15    1
    35    17    18    1
    36    14    33    1
    37    14    15    1
    38    14    34    1
    39     5     1    1
    40    15    35    1
    41     3     1    1
    42     1     2    1
    43    18    37    1
