@<TRIPOS>MOLECULE
3tgs_03G_A_1.pdb
 23 24 0 0 0
SMALL
GASTEIGER

@<TRIPOS>ATOM
      1  C1       -24.0410   -8.8800   19.8170 C.ar  507  03G507      0.0578
      2  C2       -23.4370   -8.2350   20.8930 C.ar  507  03G507      0.0127
      3  C3       -23.2810   -6.8390   20.9530 C.ar  507  03G507      0.0175
      4  C4       -23.7310   -5.9880   19.9520 C.ar  507  03G507      0.0739
      5  C5       -24.3310   -6.6370   18.8470 C.ar  507  03G507      0.0175
      6  C6       -24.4790   -8.0410   18.8020 C.ar  507  03G507      0.0127
      7  N1       -23.5120   -4.5430   19.9570 N.am  507  03G507     -0.1715
      8  C7       -22.3550   -3.9260   20.5280 C.2   507  03G507      0.3243
      9 CL1       -24.1740  -10.3620   19.7810 Cl    507  03G507     -0.0822
     10  C8       -22.1480   -2.3520   20.3500 C.2   507  03G507      0.3204
     11  N2       -21.0670   -1.7530   21.0010 N.am  507  03G507     -0.1994
     12  C9       -20.5010   -0.4820   20.5230 C.3   507  03G507      0.0985
     13  C10      -19.5080    0.0800   21.5220 C.3   507  03G507      0.0378
     14  C11      -18.9070    1.3980   21.0010 C.3   507  03G507      0.0610
     15  N3       -18.1480    1.2450   19.7360 N.3   507  03G507     -0.2234
     16  C12      -18.7820    0.3930   18.6880 C.3   507  03G507      0.0610
     17  C13      -19.7240   -0.7570   19.1980 C.3   507  03G507      0.0378
     18  C14      -17.9680    1.9890   22.0740 C.3   507  03G507      0.0175
     19  C15      -20.0740    2.4060   20.8170 C.3   507  03G507      0.0175
     20  C16      -19.5520    1.2700   17.6780 C.3   507  03G507      0.0175
     21  C17      -17.6680   -0.2710   17.8670 C.3   507  03G507      0.0175
     22  O1       -22.9800   -1.6790   19.7450 O.2   507  03G507     -0.2633
     23  O2       -21.4910   -4.5170   21.0940 O.2   507  03G507     -0.2629
@<TRIPOS>BOND
     1    20    16    1
     2    21    16    1
     3    16    17    1
     4    16    15    1
     5     6     5   ar
     6     6     1   ar
     7     5     4   ar
     8    17    12    1
     9    15    14    1
    10    22    10    2
    11     9     1    1
    12     1     2   ar
    13     4     7    1
    14     4     3   ar
    15     7     8   am
    16    10     8    1
    17    10    11   am
    18    12    11    1
    19    12    13    1
    20     8    23    2
    21    19    14    1
    22     2     3   ar
    23    14    13    1
    24    14    18    1
