@<TRIPOS>MOLECULE
3tgu_UQ_C_1.pdb
 19 19 0 0 0
SMALL
GASTEIGER

@<TRIPOS>ATOM
      1  C1        28.5210  111.5650   71.5730 C.2   504  UQ504       0.2285
      2  C2        27.9810  110.1310   71.9130 C.2   504  UQ504       0.2140
      3  C3        28.3770  109.4650   73.0900 C.2   504  UQ504       0.2140
      4  C4        29.3690  110.1510   74.0800 C.2   504  UQ504       0.2282
      5  C5        29.9240  111.5730   73.7620 C.2   504  UQ504       0.0198
      6  C6        29.5270  112.2620   72.5660 C.2   504  UQ504       0.0235
      7  CM5       30.9210  112.1680   74.8070 C.3   504  UQ504       0.0343
      8  CM3       28.7640  107.0120   73.1200 C.3   504  UQ504       0.2528
      9  CM2       27.7040  108.7750   69.9160 C.3   504  UQ504       0.2528
     10  C7        30.0480  113.7130   72.1370 C.3   504  UQ504       0.0548
     11  C8        30.0870  114.8580   73.1520 C.2   504  UQ504      -0.0298
     12  C9        30.6710  116.0910   73.0140 C.2   504  UQ504      -0.0478
     13  C10       31.3840  116.4480   71.7200 C.3   504  UQ504       0.0260
     14  C11       30.6740  117.1870   74.0830 C.3   504  UQ504       0.0217
     15  C12       31.7030  117.0150   75.2400 C.3   504  UQ504       0.0047
     16  O2        27.0800  109.5140   70.9990 O.2   504  UQ504      -0.4652
     17  O3        27.8840  108.1480   73.4060 O.2   504  UQ504      -0.4652
     18  O4        29.7150  109.5530   75.1180 O.2   504  UQ504      -0.2836
     19  O1        28.1490  112.1420   70.5070 O.2   504  UQ504      -0.2835
@<TRIPOS>BOND
     1     9    16    1
     2    19     1    2
     3    16     2    1
     4     1     2    1
     5     1     6    1
     6    13    12    1
     7     2     3    2
     8    10     6    1
     9    10    11    1
    10     6     5    2
    11    12    11    2
    12    12    14    1
    13     3    17    1
    14     3     4    1
    15     8    17    1
    16     5     4    1
    17     5     7    1
    18     4    18    2
    19    14    15    1
