@<TRIPOS>MOLECULE
3tgu_HEC_D_1.pdb
 43 50 0 0 0
SMALL
GASTEIGER

@<TRIPOS>ATOM
      1 FE          4.1020  161.7860   66.1640 Fe    501  HEC501      0.0000
      2  CHA        2.8440  159.3980   68.1880 C.2   501  HEC501      0.0000
      3  CHB        5.3540  159.3760   64.1290 C.2   501  HEC501      0.0000
      4  CHC        5.3520  164.1480   63.9910 C.2   501  HEC501      0.0000
      5  CHD        2.9890  164.1750   68.0990 C.2   501  HEC501      0.0000
      6  NA         4.0680  159.8370   66.1810 N.ar  501  HEC501      0.0000
      7  C1A        3.5030  158.9740   67.1000 C.ar  501  HEC501      0.0000
      8  C2A        3.6450  157.5870   66.6800 C.ar  501  HEC501      0.0000
      9  C3A        4.4850  157.6070   65.5910 C.ar  501  HEC501      0.0000
     10  C4A        4.6610  158.9870   65.2480 C.ar  501  HEC501      0.0000
     11  CMA        5.0770  156.3880   64.8490 C.3   501  HEC501      0.0000
     12  CAA        2.8610  156.3300   67.0140 C.3   501  HEC501      0.0000
     13  CBA        2.5080  156.0880   68.4330 C.3   501  HEC501      0.0000
     14  CGA        1.9500  154.7040   68.6350 C.2   501  HEC501      0.0000
     15  O1A        1.6290  154.3630   69.7890 O.co2 501  HEC501      0.0000
     16  O2A        1.8380  153.9520   67.6420 O.co2 501  HEC501      0.0000
     17  NB         5.1000  161.7860   64.4470 N.2   501  HEC501      0.0000
     18  C1B        5.5640  160.6680   63.7530 C.2   501  HEC501      0.0000
     19  C2B        6.2930  161.0360   62.5430 C.2   501  HEC501      0.0000
     20  C3B        6.2670  162.3790   62.4610 C.2   501  HEC501      0.0000
     21  C4B        5.5500  162.8450   63.6590 C.2   501  HEC501      0.0000
     22  CMB        7.0070  160.1210   61.5770 C.3   501  HEC501      0.0000
     23  CAB        6.9940  163.3120   61.5320 C.3   501  HEC501      0.0000
     24  CBB        6.6070  162.9500   60.1080 C.3   501  HEC501      0.0000
     25  NC         4.1220  163.7160   66.0750 N.ar  501  HEC501      0.0000
     26  C1C        4.6730  164.5670   65.1190 C.ar  501  HEC501      0.0000
     27  C2C        4.5660  165.9790   65.5400 C.ar  501  HEC501      0.0000
     28  C3C        4.0760  165.9450   66.7850 C.ar  501  HEC501      0.0000
     29  C4C        3.6230  164.5790   67.0000 C.ar  501  HEC501      0.0000
     30  CMC        5.1100  167.2030   64.8680 C.3   501  HEC501      0.0000
     31  CAC        4.0050  166.9410   67.9360 C.3   501  HEC501      0.0000
     32  CBC        3.0080  168.0530   67.6880 C.3   501  HEC501      0.0000
     33  ND         3.2380  161.7810   67.7740 N.2   501  HEC501      0.0000
     34  C1D        2.8210  162.9020   68.4720 C.2   501  HEC501      0.0000
     35  C2D        2.0300  162.5790   69.6520 C.2   501  HEC501      0.0000
     36  C3D        1.8870  161.2260   69.6410 C.2   501  HEC501      0.0000
     37  C4D        2.6930  160.7190   68.4950 C.2   501  HEC501      0.0000
     38  CMD        1.5350  163.5340   70.7110 C.3   501  HEC501      0.0000
     39  CAD        1.0900  160.4840   70.6670 C.3   501  HEC501      0.0000
     40  CBD        0.0070  159.5450   70.1730 C.3   501  HEC501      0.0000
     41  CGD       -0.7270  158.8960   71.3270 C.2   501  HEC501      0.0000
     42  O1D       -0.0750  158.1380   72.0850 O.co2 501  HEC501      0.0000
     43  O2D       -1.9470  159.1560   71.4800 O.co2 501  HEC501      0.0000
@<TRIPOS>BOND
     1    24    23    1
     2    23    20    1
     3    22    19    1
     4    20    19    2
     5    20    21    1
     6    19    18    1
     7    21     4    2
     8    21    17    1
     9    18     3    1
    10    18    17    2
    11     4    26    1
    12     3    10    2
    13    17     1    1
    14    11     9    1
    15    30    27    1
    16    26    27   ar
    17    26    25   ar
    18    10     9   ar
    19    10     6   ar
    20    27    28   ar
    21     9     8   ar
    22    25     1    1
    23    25    29   ar
    24     1     6    1
    25     1    33    1
    26     6     7   ar
    27     8    12    1
    28     8     7   ar
    29    28    29   ar
    30    28    31    1
    31    29     5    1
    32    12    13    1
    33     7     2    2
    34    16    14   ar
    35    32    31    1
    36    33    34    1
    37    33    37    2
    38     5    34    2
    39     2    37    1
    40    13    14    1
    41    34    35    1
    42    37    36    1
    43    14    15   ar
    44    36    35    2
    45    36    39    1
    46    35    38    1
    47    40    39    1
    48    40    41    1
    49    41    43   ar
    50    41    42   ar
