@<TRIPOS>MOLECULE
3tgu_HEM_C_1.pdb
 43 50 0 0 0
SMALL
GASTEIGER

@<TRIPOS>ATOM
      1  CHA       20.9900  137.9630   77.6150 C.2   501  HEM501      0.0000
      2  CHB       20.2190  133.2590   77.3910 C.2   501  HEM501      0.0000
      3  CHC       24.6460  132.5560   78.9750 C.2   501  HEM501      0.0000
      4  CHD       25.2960  137.2290   79.4470 C.2   501  HEM501      0.0000
      5  C1A       20.3850  136.7320   77.4880 C.ar  501  HEM501      0.0000
      6  C2A       19.0310  136.5470   77.0860 C.ar  501  HEM501      0.0000
      7  C3A       18.7830  135.2460   77.0730 C.ar  501  HEM501      0.0000
      8  C4A       20.0140  134.6230   77.4350 C.ar  501  HEM501      0.0000
      9  CMA       17.4940  134.5560   76.6500 C.3   501  HEM501      0.0000
     10  CAA       18.1450  137.6490   76.6000 C.3   501  HEM501      0.0000
     11  CBA       18.3670  137.8450   75.1180 C.3   501  HEM501      0.0000
     12  CGA       17.5370  138.9810   74.5680 C.2   501  HEM501      0.0000
     13  O1A       18.0310  140.1350   74.5800 O.co2 501  HEM501      0.0000
     14  O2A       16.3830  138.7100   74.1460 O.co2 501  HEM501      0.0000
     15  C1B       21.3850  132.6430   77.7340 C.2   501  HEM501      0.0000
     16  C2B       21.4980  131.2040   77.8940 C.2   501  HEM501      0.0000
     17  C3B       22.8100  131.0010   78.3090 C.2   501  HEM501      0.0000
     18  C4B       23.3850  132.3300   78.5020 C.2   501  HEM501      0.0000
     19  CMB       20.3560  130.1980   77.6420 C.3   501  HEM501      0.0000
     20  CAB       23.5280  129.8220   78.4000 C.3   501  HEM501      0.0000
     21  CBB       23.0350  128.5300   79.0140 C.3   501  HEM501      0.0000
     22  C1C       25.2200  133.7710   79.2380 C.ar  501  HEM501      0.0000
     23  C2C       26.5250  133.9430   79.8460 C.ar  501  HEM501      0.0000
     24  C3C       26.6470  135.2820   80.0640 C.ar  501  HEM501      0.0000
     25  C4C       25.4990  135.8900   79.4670 C.ar  501  HEM501      0.0000
     26  CMC       27.5480  132.8340   80.1820 C.3   501  HEM501      0.0000
     27  CAC       27.6660  135.9650   80.7120 C.3   501  HEM501      0.0000
     28  CBC       29.1540  135.5860   80.6720 C.3   501  HEM501      0.0000
     29  C1D       24.1660  137.8220   79.0030 C.2   501  HEM501      0.0000
     30  C2D       24.0080  139.2630   78.9070 C.2   501  HEM501      0.0000
     31  C3D       22.7580  139.4850   78.4010 C.2   501  HEM501      0.0000
     32  C4D       22.2100  138.1740   78.1440 C.2   501  HEM501      0.0000
     33  CMD       25.0770  140.3290   79.1900 C.3   501  HEM501      0.0000
     34  CAD       22.1540  140.8710   78.2060 C.3   501  HEM501      0.0000
     35  CBD       22.2850  141.5610   76.8560 C.3   501  HEM501      0.0000
     36  CGD       21.2600  141.0780   75.8640 C.2   501  HEM501      0.0000
     37  O1D       20.0550  141.1410   76.1920 O.co2 501  HEM501      0.0000
     38  O2D       21.6420  140.6400   74.7590 O.co2 501  HEM501      0.0000
     39  NA        20.9810  135.5430   77.7460 N.ar  501  HEM501      0.0000
     40  NB        22.5130  133.3300   78.1730 N.2   501  HEM501      0.0000
     41  NC        24.5930  134.9580   78.9990 N.ar  501  HEM501      0.0000
     42  ND        23.0600  137.1500   78.5320 N.2   501  HEM501      0.0000
     43 FE         22.7770  135.2390   78.3210 Fe    501  HEM501      0.0000
@<TRIPOS>BOND
     1    14    12   ar
     2    12    13   ar
     3    12    11    1
     4    38    36   ar
     5    11    10    1
     6    36    37   ar
     7    36    35    1
     8    10     6    1
     9     9     7    1
    10    35    34    1
    11     7     6   ar
    12     7     8   ar
    13     6     5   ar
    14     2     8    2
    15     2    15    1
    16     8    39   ar
    17     5     1    2
    18     5    39   ar
    19     1    32    1
    20    19    16    1
    21    15    16    1
    22    15    40    2
    23    39    43    1
    24    16    17    2
    25    32    31    1
    26    32    42    2
    27    40    43    1
    28    40    18    1
    29    34    31    1
    30    17    20    1
    31    17    18    1
    32    43    42    1
    33    43    41    1
    34    20    21    1
    35    31    30    2
    36    18     3    2
    37    42    29    1
    38    30    29    1
    39    30    33    1
    40     3    22    1
    41    41    22   ar
    42    41    25   ar
    43    29     4    2
    44    22    23   ar
    45     4    25    1
    46    25    24   ar
    47    23    24   ar
    48    23    26    1
    49    24    27    1
    50    28    27    1
