@<TRIPOS>MOLECULE
3tgu_WF3_C_1.pdb
 31 33 0 0 0
SMALL
GASTEIGER

@<TRIPOS>ATOM
      1  C1        12.8450  133.7090   77.9510 C.3   503  WF3503      0.2560
      2  O2        12.1720  134.1830   79.1500 O.3   503  WF3503     -0.4413
      3  C3        10.8670  134.5520   79.1670 C.2   503  WF3503      0.3444
      4  O4        10.1980  134.2420   78.1830 O.2   503  WF3503     -0.2448
      5  C5        10.1880  135.3280   80.2880 C.2   503  WF3503      0.1123
      6  C6        11.0620  136.0730   81.2980 C.2   503  WF3503      0.1787
      7  O7        10.5150  136.6160   82.4080 O.2   503  WF3503     -0.4682
      8  C8        11.5420  137.2750   83.1670 C.3   503  WF3503      0.2526
      9  C9         8.7680  135.4100   80.3570 C.ar  503  WF3503      0.0088
     10  C10        8.1710  136.5300   79.6660 C.ar  503  WF3503      0.0001
     11  C11        6.7560  136.7100   79.6680 C.ar  503  WF3503     -0.0000
     12  C12        5.9190  135.7820   80.3550 C.ar  503  WF3503     -0.0002
     13  C13        6.4830  134.6740   81.0390 C.ar  503  WF3503     -0.0007
     14  C14        7.9020  134.4560   81.0620 C.ar  503  WF3503      0.0216
     15  C15        8.4380  133.3500   81.7360 C.3   503  WF3503      0.2348
     16  O16        7.6280  132.1510   81.7060 O.2   503  WF3503     -0.4450
     17  C17        8.0850  131.0180   82.3000 C.2   503  WF3503      0.3127
     18  C18        7.1930  129.9040   82.3980 C.2   503  WF3503      0.2684
     19  C19        5.7440  129.9750   81.8600 C.3   503  WF3503      0.4521
     20  F20        5.7490  130.3310   80.5800 F     503  WF3503     -0.1634
     21  F21        5.1560  128.7850   81.9730 F     503  WF3503     -0.1634
     22  F22        5.0310  130.8650   82.5500 F     503  WF3503     -0.1634
     23  N23        7.6500  128.7510   82.9890 N.2   503  WF3503     -0.3896
     24  C24        8.9210  128.6270   83.4890 C.ar  503  WF3503      0.1607
     25  C25        9.3540  127.4090   84.0980 C.ar  503  WF3503      0.0304
     26  C26       10.6940  127.3480   84.6090 C.ar  503  WF3503     -0.0191
     27  C27       11.1830  126.0580   85.2700 C.3   503  WF3503      0.0311
     28  C28       11.5930  128.4780   84.5200 C.ar  503  WF3503     -0.0015
     29  C29       11.1620  129.6950   83.9070 C.ar  503  WF3503      0.0345
     30  C30        9.8230  129.7600   83.3940 C.ar  503  WF3503      0.1643
     31  N31        9.3590  130.9000   82.8000 N.2   503  WF3503     -0.3631
@<TRIPOS>BOND
     1     1     2    1
     2     4     3    2
     3     2     3    1
     4     3     5    1
     5    10    11   ar
     6    10     9   ar
     7    11    12   ar
     8     5     9    1
     9     5     6    2
    10    12    13   ar
    11     9    14   ar
    12    20    19    1
    13    13    14   ar
    14    14    15    1
    15     6     7    1
    16    16    15    1
    17    16    17    1
    18    19    21    1
    19    19    18    1
    20    19    22    1
    21    17    18    1
    22    17    31    2
    23    18    23    2
    24     7     8    1
    25    31    30    2
    26    23    24    2
    27    30    24   ar
    28    30    29   ar
    29    24    25   ar
    30    29    28   ar
    31    25    26   ar
    32    28    26   ar
    33    26    27    1
