@<TRIPOS>MOLECULE
3tgw_AES_B_1.pdb
 13 13 0 0 0
SMALL
GASTEIGER

@<TRIPOS>ATOM
      1  C3       -45.3420  -22.6470   -7.5390 C.ar  1474  AES1474    -0.0028
      2  C2       -45.7980  -21.9900   -8.6730 C.ar  1474  AES1474     0.0208
      3  C1       -45.0800  -22.1120   -9.8740 C.ar  1474  AES1474     0.1382
      4  S        -45.6240  -21.3250  -11.2180 S.O2  1474  AES1474     0.1484
      5  F        -47.0730  -21.6870  -11.5820 F     1474  AES1474    -0.0562
      6  O1S      -45.8230  -19.9290  -10.9770 O.2   1474  AES1474    -0.1378
      7  O2S      -44.7470  -21.4030  -12.2470 O.2   1474  AES1474    -0.1378
      8  C6       -43.9390  -22.9270   -9.9040 C.ar  1474  AES1474     0.0208
      9  C5       -43.4540  -23.5720   -8.7780 C.ar  1474  AES1474    -0.0028
     10  C4       -44.1630  -23.3850   -7.5930 C.ar  1474  AES1474    -0.0206
     11  C7       -43.6660  -24.1230   -6.3900 C.3   1474  AES1474     0.0468
     12  C8       -44.4350  -23.7340   -5.1460 C.3   1474  AES1474     0.1140
     13  N8       -45.7990  -24.2290   -5.1930 N.3   1474  AES1474    -0.1310
@<TRIPOS>BOND
     1     7     4    2
     2     5     4    1
     3     4     6    2
     4     4     3    1
     5     8     3   ar
     6     8     9   ar
     7     3     2   ar
     8     9    10   ar
     9     2     1   ar
    10    10     1   ar
    11    10    11    1
    12    11    12    1
    13    13    12    1
