@<TRIPOS>MOLECULE
3tgy_HEM_A_1.pdb
 43 50 0 0 0
SMALL
GASTEIGER

@<TRIPOS>ATOM
      1  CHA       15.1330   -0.1220   24.3870 C.2   605  HEM605      0.0000
      2  CHB       15.4780    4.7590   24.2030 C.2   605  HEM605      0.0000
      3  CHC       17.3570    4.3250   19.7580 C.2   605  HEM605      0.0000
      4  CHD       17.1700   -0.6050   20.0020 C.2   605  HEM605      0.0000
      5  C1A       15.1250    1.2290   24.6500 C.2   605  HEM605      0.0000
      6  C2A       14.6330    1.7220   25.9990 C.2   605  HEM605      0.0000
      7  C3A       14.7420    3.0030   25.9690 C.2   605  HEM605      0.0000
      8  C4A       15.2570    3.4760   24.6180 C.2   605  HEM605      0.0000
      9  CMA       14.3710    3.9210   27.0900 C.3   605  HEM605      0.0000
     10  CAA       14.2150    0.6880   27.0280 C.3   605  HEM605      0.0000
     11  CBA       15.4320    0.2380   27.8330 C.3   605  HEM605      0.0000
     12  CGA       15.0310   -0.8370   28.8030 C.2   605  HEM605      0.0000
     13  O1A       15.2080   -2.0430   28.5630 O.co2 605  HEM605      0.0000
     14  O2A       14.4640   -0.3510   29.9050 O.co2 605  HEM605      0.0000
     15  C1B       16.0120    5.0890   22.9280 C.ar  605  HEM605      0.0000
     16  C2B       16.2720    6.3890   22.4080 C.ar  605  HEM605      0.0000
     17  C3B       16.8030    6.2300   21.1200 C.ar  605  HEM605      0.0000
     18  C4B       16.8590    4.8450   20.9070 C.ar  605  HEM605      0.0000
     19  CMB       15.9980    7.7280   23.2070 C.3   605  HEM605      0.0000
     20  CAB       17.2510    7.2120   20.1540 C.3   605  HEM605      0.0000
     21  CBB       17.3290    8.5770   20.4400 C.3   605  HEM605      0.0000
     22  C1C       17.4650    3.0010   19.5240 C.2   605  HEM605      0.0000
     23  C2C       18.0480    2.4490   18.3370 C.2   605  HEM605      0.0000
     24  C3C       18.0180    1.1140   18.3710 C.2   605  HEM605      0.0000
     25  C4C       17.3840    0.7030   19.6130 C.2   605  HEM605      0.0000
     26  CMC       18.6190    3.4780   17.2160 C.3   605  HEM605      0.0000
     27  CAC       18.4900    0.0160   17.3950 C.3   605  HEM605      0.0000
     28  CBC       19.1400    0.2090   16.1640 C.3   605  HEM605      0.0000
     29  C1D       16.5180   -0.8780   21.2310 C.ar  605  HEM605      0.0000
     30  C2D       16.1130   -2.2070   21.6370 C.ar  605  HEM605      0.0000
     31  C3D       15.4870   -2.0860   22.9370 C.ar  605  HEM605      0.0000
     32  C4D       15.5750   -0.6860   23.2250 C.ar  605  HEM605      0.0000
     33  CMD       16.2470   -3.5530   20.9820 C.3   605  HEM605      0.0000
     34  CAD       14.8630   -3.2580   23.7770 C.3   605  HEM605      0.0000
     35  CBD       13.4620   -3.4430   23.1390 C.3   605  HEM605      0.0000
     36  CGD       12.6690   -4.6020   23.8580 C.2   605  HEM605      0.0000
     37  O1D       12.0130   -4.2460   24.9060 O.co2 605  HEM605      0.0000
     38  O2D       12.6620   -5.8320   23.3760 O.co2 605  HEM605      0.0000
     39  NA        15.4610    2.3220   23.9180 N.2   605  HEM605      0.0000
     40  NB        16.3740    4.1930   21.9890 N.ar  605  HEM605      0.0000
     41  NC        17.0600    1.9080   20.3080 N.2   605  HEM605      0.0000
     42  ND        16.1780    0.0400   22.2100 N.ar  605  HEM605      0.0000
     43 FE         16.2950    2.0590   22.1570 Fe    605  HEM605      0.0000
@<TRIPOS>BOND
     1    28    27    1
     2    26    23    1
     3    27    24    1
     4    23    24    2
     5    23    22    1
     6    24    25    1
     7    22     3    2
     8    22    41    1
     9    25     4    1
    10    25    41    2
    11     3    18    1
    12     4    29    2
    13    20    21    1
    14    20    17    1
    15    41    43    1
    16    18    17   ar
    17    18    40   ar
    18    33    30    1
    19    17    16   ar
    20    29    30   ar
    21    29    42   ar
    22    30    31   ar
    23    40    43    1
    24    40    15   ar
    25    43    42    1
    26    43    39    1
    27    42    32   ar
    28    16    15   ar
    29    16    19    1
    30    15     2    1
    31    31    32   ar
    32    31    34    1
    33    35    34    1
    34    35    36    1
    35    32     1    2
    36    38    36   ar
    37    36    37   ar
    38    39     8    1
    39    39     5    2
    40     2     8    2
    41     1     5    1
    42     8     7    1
    43     5     6    1
    44     7     6    2
    45     7     9    1
    46     6    10    1
    47    10    11    1
    48    11    12    1
    49    13    12   ar
    50    12    14   ar
