@<TRIPOS>MOLECULE
3tgy_ASC_A_1.pdb
 12 12 0 0 0
SMALL
GASTEIGER

@<TRIPOS>ATOM
      1  C1        11.8850    2.5330   23.7370 C.2   800  ASC800      0.3506
      2  C2        11.4740    1.3620   24.4800 C.3   800  ASC800      0.2833
      3  C3        10.8350    1.8400   25.5270 C.3   800  ASC800      0.2354
      4  C4        10.3510    3.2070   25.2110 C.3   800  ASC800      0.2348
      5  C5         9.9060    4.0210   26.4220 C.3   800  ASC800      0.2271
      6  C6         8.5370    4.6520   26.2170 C.3   800  ASC800      0.2186
      7  O1        12.2460    2.3960   22.5870 O.2   800  ASC800     -0.2472
      8  O2        11.7400    0.0770   24.1560 O.3   800  ASC800     -0.2081
      9  O3        10.5800    1.2080   26.6630 O.3   800  ASC800     -0.2158
     10  O4        11.3240    3.6400   24.3220 O.3   800  ASC800     -0.4449
     11  O5        10.9060    4.8540   26.9460 O.3   800  ASC800     -0.2163
     12  O6         7.3960    3.8170   26.4160 O.3   800  ASC800     -0.2174
@<TRIPOS>BOND
     1     7     1    2
     2     1    10    1
     3     1     2    1
     4     8     2    1
     5    10     4    1
     6     2     3    1
     7     4     3    1
     8     4     5    1
     9     3     9    1
    10     6    12    1
    11     6     5    1
    12     5    11    1
