@<TRIPOS>MOLECULE
3th0_GLA_A_1.pdb
 11 11 0 0 0
SMALL
GASTEIGER

@<TRIPOS>ATOM
      1  C1        11.8250   -7.8560   36.5730 C.3   705  GLA705      0.1777
      2  C2        11.3110   -9.2800   36.6110 C.3   705  GLA705      0.2141
      3  C3        11.6370  -10.0070   35.3010 C.3   705  GLA705      0.2173
      4  C4        11.0790   -9.2360   34.1050 C.3   705  GLA705      0.2142
      5  C5        11.6140   -7.7910   34.1410 C.3   705  GLA705      0.1810
      6  C6        10.9240   -6.9410   33.0430 C.3   705  GLA705      0.2141
      7  O2        11.9670   -9.9590   37.6950 O.3   705  GLA705     -0.2176
      8  O3        10.9830  -11.2940   35.2810 O.3   705  GLA705     -0.2175
      9  O4         9.6540   -9.2290   34.1780 O.3   705  GLA705     -0.2176
     10  O5        11.2940   -7.1910   35.4000 O.3   705  GLA705     -0.3481
     11  O6        11.7210   -5.7990   32.7540 O.3   705  GLA705     -0.2176
@<TRIPOS>BOND
     1    11     6    1
     2     6     5    1
     3     4     5    1
     4     4     9    1
     5     4     3    1
     6     5    10    1
     7     8     3    1
     8     3     2    1
     9    10     1    1
    10     1     2    1
    11     2     7    1
