@<TRIPOS>MOLECULE
3th0_RAM_A_1.pdb
 11 11 0 0 0
SMALL
GASTEIGER

@<TRIPOS>ATOM
      1  C1        15.3820   -0.5090   36.5890 C.3   708  RAM708      0.3023
      2  C2        16.3790   -1.4450   35.9390 C.3   708  RAM708      0.2434
      3  C3        15.9410   -2.9170   35.6340 C.3   708  RAM708      0.2198
      4  C4        14.5340   -3.2810   36.1290 C.3   708  RAM708      0.2118
      5  C5        14.1170   -2.4040   37.2990 C.3   708  RAM708      0.1509
      6  C6        12.6850   -2.6960   37.7220 C.3   708  RAM708      0.0350
      7  O1        16.2530   -0.5640   37.7280 O.3   708  RAM708     -0.1869
      8  O2        17.1830   -0.7620   34.9770 O.3   708  RAM708     -0.2148
      9  O3        16.1830   -3.3120   34.2940 O.3   708  RAM708     -0.2174
     10  O4        14.7000   -4.5800   36.6920 O.3   708  RAM708     -0.2177
     11  O5        14.0960   -1.0370   36.8960 O.3   708  RAM708     -0.3264
@<TRIPOS>BOND
     1     9     3    1
     2     8     2    1
     3     3     2    1
     4     3     4    1
     5     2     1    1
     6     4    10    1
     7     4     5    1
     8     1    11    1
     9     1     7    1
    10    11     5    1
    11     5     6    1
