@<TRIPOS>MOLECULE
3th0_MAN_A_1.pdb
 11 11 0 0 0
SMALL
GASTEIGER

@<TRIPOS>ATOM
      1  C1        14.0670   -5.6190   35.9980 C.3   706  MAN706      0.1777
      2  C2        13.8480   -6.6930   37.0430 C.3   706  MAN706      0.2141
      3  C3        15.1750   -7.1010   37.6520 C.3   706  MAN706      0.2173
      4  C4        16.0940   -7.5910   36.5190 C.3   706  MAN706      0.2142
      5  C5        16.2130   -6.5520   35.3830 C.3   706  MAN706      0.1810
      6  C6        16.9000   -7.1640   34.1540 C.3   706  MAN706      0.2141
      7  O2        13.2640   -7.8640   36.4850 O.3   706  MAN706     -0.2176
      8  O3        14.9290   -8.2260   38.5810 O.3   706  MAN706     -0.2175
      9  O4        17.4180   -7.9080   37.0490 O.3   706  MAN706     -0.2176
     10  O5        14.9270   -6.0970   34.9310 O.3   706  MAN706     -0.3481
     11  O6        17.1010   -6.1420   33.1710 O.3   706  MAN706     -0.2176
@<TRIPOS>BOND
     1    11     6    1
     2     6     5    1
     3    10     5    1
     4    10     1    1
     5     5     4    1
     6     1     2    1
     7     7     2    1
     8     4     9    1
     9     4     3    1
    10     2     3    1
    11     3     8    1
