@<TRIPOS>MOLECULE
3th2_FUC_L_1.pdb
 10 10 0 0 0
SMALL
GASTEIGER

@<TRIPOS>ATOM
      1  C1        21.4450   31.1170   64.1640 C.3   144  FUC144      0.1776
      2  C2        20.5130   32.2170   64.6590 C.3   144  FUC144      0.2141
      3  C3        20.3990   33.2690   63.5580 C.3   144  FUC144      0.2172
      4  C4        20.0510   32.6490   62.2090 C.3   144  FUC144      0.2116
      5  C5        20.9790   31.4780   61.8330 C.3   144  FUC144      0.1483
      6  C6        20.4140   30.7500   60.6120 C.3   144  FUC144      0.0349
      7  O2        21.0790   32.7770   65.8530 O.3   144  FUC144     -0.2176
      8  O3        19.4530   34.2920   63.8660 O.3   144  FUC144     -0.2175
      9  O4        18.7190   32.1620   62.2260 O.3   144  FUC144     -0.2177
     10  O5        21.0060   30.5570   62.9220 O.3   144  FUC144     -0.3508
@<TRIPOS>BOND
     1     6     5    1
     2     5     4    1
     3     5    10    1
     4     4     9    1
     5     4     3    1
     6    10     1    1
     7     3     8    1
     8     3     2    1
     9     1     2    1
    10     2     7    1
