@<TRIPOS>MOLECULE
3th2_BGC_L_1.pdb
 11 11 0 0 0
SMALL
GASTEIGER

@<TRIPOS>ATOM
      1  C2        37.7710   32.5480   63.5210 C.3   143  BGC143      0.2141
      2  C3        38.7580   32.2600   62.4000 C.3   143  BGC143      0.2173
      3  C4        38.4240   33.1740   61.2380 C.3   143  BGC143      0.2142
      4  C5        38.2930   34.6650   61.5880 C.3   143  BGC143      0.1810
      5  C6        37.6820   35.4170   60.3820 C.3   143  BGC143      0.2141
      6  C1        37.9150   34.0420   63.9010 C.3   143  BGC143      0.1777
      7  O2        37.9820   31.6780   64.6010 O.3   143  BGC143     -0.2176
      8  O3        38.8490   30.9300   61.9210 O.3   143  BGC143     -0.2175
      9  O4        39.4980   33.0070   60.3650 O.3   143  BGC143     -0.2176
     10  O5        37.5600   34.8750   62.8050 O.3   143  BGC143     -0.3481
     11  O6        37.1050   36.6680   60.7140 O.3   143  BGC143     -0.2176
@<TRIPOS>BOND
     1     9     3    1
     2     5    11    1
     3     5     4    1
     4     3     4    1
     5     3     2    1
     6     4    10    1
     7     8     2    1
     8     2     1    1
     9    10     6    1
    10     1     6    1
    11     1     7    1
