@<TRIPOS>MOLECULE
3th3_0GE_H_1.pdb
 41 42 0 0 0
SMALL
GASTEIGER

@<TRIPOS>ATOM
      1  C11       22.1170   10.9740  -16.2850 C.ar    1  0GE1        0.1236
      2  C21       22.0020   10.0120  -17.2830 C.ar    1  0GE1        0.0200
      3  C3        21.8510   10.3770  -18.6210 C.ar    1  0GE1        0.0014
      4  C4        21.8070   11.7100  -19.0310 C.ar    1  0GE1        0.0013
      5  C4A       21.9150   12.7400  -18.1050 C.ar    1  0GE1        0.0146
      6  C5        21.8750   14.0740  -18.4870 C.ar    1  0GE1        0.0479
      7  C6        21.9870   15.0690  -17.5190 C.ar    1  0GE1        0.0145
      8  C7        22.1390   14.7520  -16.1700 C.ar    1  0GE1        0.0013
      9  C8        22.1850   13.4300  -15.7390 C.ar    1  0GE1        0.0014
     10  C8A       22.0770   12.4070  -16.6710 C.ar    1  0GE1        0.0199
     11  N3        21.7230   14.4160  -19.8360 N.pl3   1  0GE1       -0.3041
     12  CM1       22.8950   14.6830  -20.6550 C.3     1  0GE1        0.1122
     13  CM2       20.3920   14.5050  -20.4180 C.3     1  0GE1        0.1122
     14  S         22.2890   10.5460  -14.7580 S.O2    1  0GE1        0.0772
     15  O1S       21.3160   11.2330  -13.9560 O.2     1  0GE1       -0.1516
     16  O2S       22.0980    9.1280  -14.6330 O.2     1  0GE1       -0.1516
     17  N         23.7600   10.9320  -14.2580 N.3     1  0GE1       -0.0699
     18  CA        24.9030   10.1620  -14.7070 C.3     1  0GE1        0.1757
     19  C         25.0880    8.9190  -13.8860 C.2     1  0GE1        0.2596
     20  O         24.7960    8.9100  -12.7030 O.2     1  0GE1       -0.2718
     21  CB        26.1660   11.0120  -14.6330 C.3     1  0GE1        0.0405
     22  CG        25.8420   12.4880  -14.8280 C.3     1  0GE1        0.1161
     23  CD        25.8010   13.1760  -13.4850 C.2     1  0GE1        0.3649
     24  OE1       25.9770   12.4870  -12.4580 O.co2   1  0GE1       -0.2457
     25  OE2       25.5920   14.4080  -13.4510 O.co2   1  0GE1       -0.2457
     26  N1        25.5790    7.8580  -14.5200 N.am    1  0GE1       -0.1942
     27  CA1       25.8490    6.5460  -13.9510 C.3     1  0GE1        0.2014
     28  C1        27.1030    6.6090  -13.1120 C.2     1  0GE1        0.2635
     29  O1        28.0450    7.3030  -13.4570 O.2     1  0GE1       -0.2714
     30  N2        27.1120    5.8760  -12.0030 N.am    1  0GE1       -0.2031
     31  CA2       28.2700    5.8630  -11.1220 C.3     1  0GE1        0.1257
     32  C2        28.9750    4.5450  -11.4170 C.3     1  0GE1        0.1718
     33  O2        30.4000    4.7390  -11.3490 O.3     1  0GE1       -0.2213
     34  CB1       27.6930    5.8710   -9.7120 C.3     1  0GE1        0.0280
     35  CG1       26.7230    7.0310   -9.5250 C.3     1  0GE1        0.0488
     36  CD1       26.2050    7.0840   -8.0920 C.3     1  0GE1        0.2205
     37  NE        25.5740    8.3890   -7.9680 N.pl3   1  0GE1       -0.0865
     38  CZ        24.6980    8.7700   -7.0430 C.cat   1  0GE1        0.5346
     39  NH1       24.2060   10.0060   -7.0610 N.pl3   1  0GE1        0.1354
     40  NH2       24.3150    7.9160   -6.0980 N.pl3   1  0GE1        0.1354
     41  CM        28.6000    4.0200  -12.7900 C.3     1  0GE1        0.0373
@<TRIPOS>BOND
     1    12    11    1
     2    13    11    1
     3    11     6    1
     4     4     3   ar
     5     4     5   ar
     6     3     2   ar
     7     6     5   ar
     8     6     7   ar
     9     5    10   ar
    10     7     8   ar
    11     2     1   ar
    12    10     1   ar
    13    10     9   ar
    14     1    14    1
    15     8     9   ar
    16    22    21    1
    17    22    23    1
    18    14    16    2
    19    14    17    1
    20    14    15    2
    21    18    21    1
    22    18    17    1
    23    18    19    1
    24    26    27    1
    25    26    19   am
    26    27    28    1
    27    19    20    2
    28    23    25   ar
    29    23    24   ar
    30    29    28    2
    31    28    30   am
    32    41    32    1
    33    30    31    1
    34    32    33    1
    35    32    31    1
    36    31    34    1
    37    34    35    1
    38    35    36    1
    39    36    37    1
    40    37    38    2
    41    39    38    1
    42    38    40    1
