@<TRIPOS>MOLECULE
3th3_BGC_L_1.pdb
 11 11 0 0 0
SMALL
GASTEIGER

@<TRIPOS>ATOM
      1  C2       -21.7310    1.8040   21.4610 C.3   143  BGC143      0.2141
      2  C3       -21.5100    1.9200   19.9450 C.3   143  BGC143      0.2173
      3  C4       -21.0530    0.5600   19.4140 C.3   143  BGC143      0.2142
      4  C5       -22.0870   -0.5200   19.7610 C.3   143  BGC143      0.1810
      5  C6       -21.7230   -1.8910   19.1870 C.3   143  BGC143      0.2141
      6  C1       -22.6710    0.6330   21.7900 C.3   143  BGC143      0.1777
      7  O2       -22.2250    3.0020   22.0240 O.3   143  BGC143     -0.2176
      8  O3       -20.5600    2.9180   19.6070 O.3   143  BGC143     -0.2175
      9  O4       -20.8370    0.6330   18.0300 O.3   143  BGC143     -0.2176
     10  O5       -22.2460   -0.5860   21.1780 O.3   143  BGC143     -0.3481
     11  O6       -21.1770   -2.7080   20.2000 O.3   143  BGC143     -0.2176
@<TRIPOS>BOND
     1     9     3    1
     2     5     4    1
     3     5    11    1
     4     3     4    1
     5     3     2    1
     6     8     2    1
     7     4    10    1
     8     2     1    1
     9    10     6    1
    10     1     6    1
    11     1     7    1
