@<TRIPOS>MOLECULE
3th3_FUC_L_1.pdb
 10 10 0 0 0
SMALL
GASTEIGER

@<TRIPOS>ATOM
      1  C1       -10.6470   -3.4440   32.9670 C.3   144  FUC144      0.1776
      2  C2       -11.1220   -4.7190   33.6620 C.3   144  FUC144      0.2141
      3  C3       -11.0080   -5.8740   32.6730 C.3   144  FUC144      0.2172
      4  C4        -9.5850   -5.9850   32.1150 C.3   144  FUC144      0.2116
      5  C5        -8.9310   -4.6300   31.8340 C.3   144  FUC144      0.1483
      6  C6        -7.4170   -4.8190   31.7540 C.3   144  FUC144      0.0349
      7  O2       -12.4500   -4.5980   34.1010 O.3   144  FUC144     -0.2176
      8  O3       -11.3870   -7.0690   33.3120 O.3   144  FUC144     -0.2175
      9  O4        -8.7600   -6.6750   33.0200 O.3   144  FUC144     -0.2177
     10  O5        -9.2520   -3.6440   32.8190 O.3   144  FUC144     -0.3508
@<TRIPOS>BOND
     1     6     5    1
     2     5     4    1
     3     5    10    1
     4     4     3    1
     5     4     9    1
     6     3     8    1
     7     3     2    1
     8    10     1    1
     9     1     2    1
    10     2     7    1
