@<TRIPOS>MOLECULE
3th4_0GE_H_1.pdb
 41 42 0 0 0
SMALL
GASTEIGER

@<TRIPOS>ATOM
      1  C11       37.5850    7.7500   10.7820 C.ar    1  0GE1        0.1236
      2  C21       37.6610    8.7840    9.8550 C.ar    1  0GE1        0.0200
      3  C3        38.7190    8.8620    8.9480 C.ar    1  0GE1        0.0014
      4  C4        39.7480    7.9210    8.9180 C.ar    1  0GE1        0.0013
      5  C4A       39.7570    6.8530    9.8070 C.ar    1  0GE1        0.0146
      6  C5        40.7690    5.9030    9.7980 C.ar    1  0GE1        0.0479
      7  C6        40.7320    4.8520   10.7100 C.ar    1  0GE1        0.0145
      8  C7        39.6960    4.7320   11.6350 C.ar    1  0GE1        0.0013
      9  C8        38.6590    5.6600   11.6820 C.ar    1  0GE1        0.0014
     10  C8A       38.6580    6.7230   10.7900 C.ar    1  0GE1        0.0199
     11  N3        41.8200    6.0020    8.8790 N.pl3   1  0GE1       -0.3041
     12  CM1       42.8360    7.0310    9.0430 C.3     1  0GE1        0.1122
     13  CM2       41.8970    5.0760    7.7590 C.3     1  0GE1        0.1122
     14  S         36.3730    7.6700   11.8150 S.O2    1  0GE1        0.0772
     15  O1S       36.8840    7.4490   13.1380 O.2     1  0GE1       -0.1516
     16  O2S       35.6360    8.9020   11.7860 O.2     1  0GE1       -0.1516
     17  N         35.4060    6.4610   11.4090 N.3     1  0GE1       -0.0699
     18  CA        34.6350    6.5300   10.1830 C.3     1  0GE1        0.1757
     19  C         33.4980    7.5010   10.3000 C.2     1  0GE1        0.2596
     20  O         32.9090    7.6410   11.3590 O.2     1  0GE1       -0.2718
     21  CB        34.0910    5.1510    9.8310 C.3     1  0GE1        0.0405
     22  CG        35.2100    4.1180    9.7860 C.3     1  0GE1        0.1161
     23  CD        35.3720    3.4910   11.1500 C.2     1  0GE1        0.3649
     24  OE1       36.5000    3.0660   11.4810 O.co2   1  0GE1       -0.2457
     25  OE2       34.3720    3.4220   11.8970 O.co2   1  0GE1       -0.2457
     26  N1        33.1830    8.1820    9.2010 N.am    1  0GE1       -0.1942
     27  CA1       32.1280    9.1740    9.0580 C.3     1  0GE1        0.2014
     28  C1        30.7890    8.4800    8.9910 C.2     1  0GE1        0.2635
     29  O1        30.6650    7.4330    8.3760 O.2     1  0GE1       -0.2714
     30  N2        29.7820    9.0690    9.6290 N.am    1  0GE1       -0.2031
     31  CA2       28.4500    8.4840    9.6270 C.3     1  0GE1        0.1257
     32  C2        27.6430    9.3420    8.6590 C.3     1  0GE1        0.1718
     33  O2        26.4480    8.6480    8.2910 O.3     1  0GE1       -0.2213
     34  CB1       27.9440    8.6510   11.0560 C.3     1  0GE1        0.0280
     35  CG1       28.6960    7.7320   12.0110 C.3     1  0GE1        0.0488
     36  CD1       28.4760    8.1520   13.4600 C.3     1  0GE1        0.2205
     37  NE        29.1990    7.1690   14.2510 N.pl3   1  0GE1       -0.0865
     38  CZ        29.1690    7.0270   15.5730 C.cat   1  0GE1        0.5346
     39  NH1       28.4180    7.8390   16.3120 N.pl3   1  0GE1        0.1354
     40  NH2       29.8900    6.0740   16.1560 N.pl3   1  0GE1        0.1354
     41  CM        28.4520    9.6590    7.4070 C.3     1  0GE1        0.0373
@<TRIPOS>BOND
     1    41    32    1
     2    13    11    1
     3    33    32    1
     4    29    28    2
     5    32    31    1
     6    11    12    1
     7    11     6    1
     8     4     3   ar
     9     4     5   ar
    10     3     2   ar
    11    28    27    1
    12    28    30   am
    13    27    26    1
    14    26    19   am
    15    31    30    1
    16    31    34    1
    17    22    21    1
    18    22    23    1
    19     6     5   ar
    20     6     7   ar
    21     5    10   ar
    22    21    18    1
    23     2     1   ar
    24    18    19    1
    25    18    17    1
    26    19    20    2
    27     7     8   ar
    28     1    10   ar
    29     1    14    1
    30    10     9   ar
    31    34    35    1
    32    23    24   ar
    33    23    25   ar
    34    17    14    1
    35     8     9   ar
    36    16    14    2
    37    14    15    2
    38    35    36    1
    39    36    37    1
    40    37    38    2
    41    38    40    1
    42    38    39    1
