@<TRIPOS>MOLECULE
3th4_FUC_L_1.pdb
 10 10 0 0 0
SMALL
GASTEIGER

@<TRIPOS>ATOM
      1  C1        21.0650   31.2640   64.0270 C.3   144  FUC144      0.1776
      2  C2        20.0850   32.3610   64.4390 C.3   144  FUC144      0.2141
      3  C3        19.9320   33.3990   63.3410 C.3   144  FUC144      0.2172
      4  C4        19.6560   32.7410   61.9900 C.3   144  FUC144      0.2116
      5  C5        20.6620   31.6200   61.7250 C.3   144  FUC144      0.1483
      6  C6        20.3020   30.8950   60.4110 C.3   144  FUC144      0.0349
      7  O2        20.5330   32.9730   65.6410 O.3   144  FUC144     -0.2176
      8  O3        18.8120   34.2700   63.6590 O.3   144  FUC144     -0.2175
      9  O4        18.2970   32.2080   61.9650 O.3   144  FUC144     -0.2177
     10  O5        20.6250   30.6870   62.7930 O.3   144  FUC144     -0.3508
@<TRIPOS>BOND
     1     6     5    1
     2     5     4    1
     3     5    10    1
     4     9     4    1
     5     4     3    1
     6    10     1    1
     7     3     8    1
     8     3     2    1
     9     1     2    1
    10     2     7    1
