@<TRIPOS>MOLECULE
3th4_BGC_L_1.pdb
 11 11 0 0 0
SMALL
GASTEIGER

@<TRIPOS>ATOM
      1  C2        37.5860   33.3310   63.2270 C.3   143  BGC143      0.2141
      2  C3        38.5590   33.2230   62.0590 C.3   143  BGC143      0.2173
      3  C4        38.1310   34.1230   60.9060 C.3   143  BGC143      0.2142
      4  C5        37.8290   35.5330   61.3970 C.3   143  BGC143      0.1810
      5  C6        37.3280   36.4130   60.2580 C.3   143  BGC143      0.2141
      6  C1        37.3170   34.7890   63.5790 C.3   143  BGC143      0.1777
      7  O2        38.1310   32.6570   64.3670 O.3   143  BGC143     -0.2176
      8  O3        38.6140   31.8640   61.6090 O.3   143  BGC143     -0.2175
      9  O4        39.1740   34.1720   59.9260 O.3   143  BGC143     -0.2176
     10  O5        36.8410   35.4780   62.4250 O.3   143  BGC143     -0.3481
     11  O6        36.6150   37.5320   60.7970 O.3   143  BGC143     -0.2176
@<TRIPOS>BOND
     1     9     3    1
     2     5    11    1
     3     5     4    1
     4     3     4    1
     5     3     2    1
     6     4    10    1
     7     8     2    1
     8     2     1    1
     9    10     6    1
    10     1     6    1
    11     1     7    1
