@<TRIPOS>MOLECULE
3th5_GNP_A_1.pdb
 32 34 0 0 0
SMALL
GASTEIGER

@<TRIPOS>ATOM
      1  PG       -12.0800   -8.7380   -6.2340 P.3   1001  GNP1001     0.4884
      2  O1G      -11.1980   -9.4430   -7.2330 O.2   1001  GNP1001    -0.2331
      3  O2G      -11.4440   -7.5740   -5.5200 O.3   1001  GNP1001    -0.1240
      4  O3G      -13.3240   -8.3960   -7.0300 O.3   1001  GNP1001    -0.1240
      5  N3B      -12.5570   -9.7670   -5.1130 N.3   1001  GNP1001    -0.0163
      6  PB       -11.6080  -10.3160   -3.9580 P.3   1001  GNP1001     0.4669
      7  O1B      -10.7190  -11.3720   -4.4950 O.2   1001  GNP1001    -0.2351
      8  O2B      -10.9800   -9.1170   -3.3610 O.3   1001  GNP1001    -0.1253
      9  O3A      -12.4650  -11.0120   -2.8910 O.3   1001  GNP1001    -0.2360
     10  PA       -12.9730  -10.3610   -1.5920 P.3   1001  GNP1001     0.2220
     11  O1A      -11.8730  -10.3070   -0.5990 O.3   1001  GNP1001    -0.4370
     12  O2A      -13.6430   -9.0780   -1.8850 O.2   1001  GNP1001    -0.5170
     13  O5'      -14.0460  -11.3550   -0.9900 O.3   1001  GNP1001    -0.3111
     14  C5'      -15.0970  -11.8880   -1.8200 C.3   1001  GNP1001     0.1813
     15  C4'      -16.2020  -12.5870   -1.0340 C.3   1001  GNP1001     0.1799
     16  O4'      -15.6800  -13.7740   -0.3820 O.3   1001  GNP1001    -0.3326
     17  C3'      -16.8760  -11.7750    0.0710 C.3   1001  GNP1001     0.2158
     18  O3'      -18.2640  -12.1030    0.1400 O.3   1001  GNP1001    -0.2175
     19  C2'      -16.1450  -12.2410    1.3240 C.3   1001  GNP1001     0.2310
     20  O2'      -16.9060  -12.1020    2.5040 O.3   1001  GNP1001    -0.2158
     21  C1'      -15.9130  -13.7150    1.0120 C.3   1001  GNP1001     0.2293
     22  N9       -14.7340  -14.2400    1.6940 N.pl3 1001  GNP1001    -0.2354
     23  C8       -13.4560  -13.7300    1.6110 C.3   1001  GNP1001     0.2246
     24  N7       -12.5870  -14.3830    2.3250 N.2   1001  GNP1001    -0.2322
     25  C5       -13.3300  -15.3920    2.9240 C.2   1001  GNP1001     0.2182
     26  C6       -12.9180  -16.4160    3.8130 C.1   1001  GNP1001     0.2372
     27  O6       -11.7740  -16.6240    4.2510 O.2   1001  GNP1001    -0.2069
     28  N1       -13.9850  -17.2450    4.1940 N.2   1001  GNP1001    -0.2485
     29  C2       -15.2900  -17.0880    3.7630 C.1   1001  GNP1001     0.2531
     30  N2       -16.1860  -17.9670    4.2320 N.pl3 1001  GNP1001    -0.0226
     31  N3       -15.6860  -16.1310    2.9300 N.2   1001  GNP1001    -0.3074
     32  C4       -14.6590  -15.3200    2.5490 C.2   1001  GNP1001     0.2300
@<TRIPOS>BOND
     1     2     1    2
     2     4     1    1
     3     1     3    1
     4     1     5    1
     5     5     6    1
     6     7     6    2
     7     6     8    1
     8     6     9    1
     9     9    10    1
    10    12    10    2
    11    14    15    1
    12    14    13    1
    13    10    13    1
    14    10    11    1
    15    15    16    1
    16    15    17    1
    17    16    21    1
    18    17    18    1
    19    17    19    1
    20    21    19    1
    21    21    22    1
    22    19    20    1
    23    23    22    1
    24    23    24    1
    25    22    32    1
    26    24    25    2
    27    32    25    1
    28    32    31    2
    29    25    26    1
    30    31    29    2
    31    29    28    2
    32    29    30    1
    33    26    28    2
    34    26    27    2
