@<TRIPOS>MOLECULE
3th8_TH9_B_1.pdb
 25 25 0 0 0
SMALL
GASTEIGER

@<TRIPOS>ATOM
      1  CAA      -13.0810   -4.1000   -0.2720 C.3   289  TH9289      0.0000
      2  OAB       -3.6140    9.2780   -2.0070 O.co2 289  TH9289     -0.2369
      3  OAC       -6.6200    6.6110    0.6770 O.2   289  TH9289     -0.2683
      4  OAD       -2.9090   10.1880   -0.1470 O.co2 289  TH9289     -0.2369
      5  OAE       -4.7130    8.5600    1.2270 O.2   289  TH9289     -0.2793
      6  CAF       -5.4040    7.6160   -1.0690 C.2   289  TH9289      0.1084
      7  CAG      -10.8670    2.4850   -3.9440 C.ar  289  TH9289      0.0028
      8  CAH       -9.5090    2.6680   -3.6940 C.ar  289  TH9289     -0.0041
      9  CAI      -11.6690    1.9080   -2.9680 C.ar  289  TH9289      0.0369
     10  CAJ       -9.7260    1.7200   -1.4990 C.ar  289  TH9289      0.0326
     11  CAK      -13.9140   -3.0390    0.4790 C.3   289  TH9289      0.0000
     12  CAL      -13.4890   -1.6040    0.1180 C.3   289  TH9289      0.0001
     13  CAM      -12.1840   -1.1710    0.8130 C.3   289  TH9289      0.0038
     14  CAN      -12.3450    0.2330    1.4530 C.3   289  TH9289      0.0473
     15  CAO       -7.2220    3.5680   -1.1820 C.3   289  TH9289      0.0281
     16  CAP       -8.0260    4.9030   -1.2260 C.3   289  TH9289      0.1158
     17  CAQ      -11.6990    1.3080    0.5650 C.3   289  TH9289      0.2054
     18  CAR       -7.5550    2.5280   -2.3030 C.3   289  TH9289      0.0283
     19  NAS       -7.0630    5.9830   -1.4660 N.am  289  TH9289     -0.2016
     20  OAT      -11.9400    0.9720   -0.8130 O.3   289  TH9289     -0.4755
     21  CAU       -3.6460    9.3780   -0.7900 C.2   289  TH9289      0.4262
     22  CAV       -6.4510    6.6980   -0.5240 C.2   289  TH9289      0.2684
     23  CAW       -4.5970    8.4970   -0.1180 C.2   289  TH9289      0.2793
     24  CAX       -8.9320    2.3060   -2.4880 C.ar  289  TH9289     -0.0191
     25  CAY      -11.1000    1.5320   -1.7430 C.ar  289  TH9289      0.1382
@<TRIPOS>BOND
     1     7     8   ar
     2     7     9   ar
     3     8    24   ar
     4     9    25   ar
     5    24    18    1
     6    24    10   ar
     7    18    15    1
     8     2    21   ar
     9    25    10   ar
    10    25    20    1
    11    19    16    1
    12    19    22   am
    13    16    15    1
    14     6    22    1
    15     6    23    2
    16    20    17    1
    17    21     4   ar
    18    21    23    1
    19    22     3    2
    20     1    11    1
    21    23     5    1
    22    12    11    1
    23    12    13    1
    24    17    14    1
    25    13    14    1
