@<TRIPOS>MOLECULE
3th9_9Y9_A_1.pdb
 34 36 0 0 0
SMALL
GASTEIGER

@<TRIPOS>ATOM
      1  C1         9.2940   27.2360    8.4290 C.ar  100  9Y9100      0.0310
      2  C2         8.3830   27.6290    7.4490 C.ar  100  9Y9100      0.1399
      3  C3         8.1240   26.8590    6.2690 C.ar  100  9Y9100      0.0267
      4  C4         9.9620   26.0230    8.2600 C.ar  100  9Y9100      0.0219
      5  F5         7.7290   28.7630    7.6430 F     100  9Y9100     -0.2042
      6  C6         8.7970   25.6250    6.0930 C.ar  100  9Y9100     -0.0013
      7  C7         9.7340   25.2360    7.0940 C.ar  100  9Y9100      0.1184
      8  S8        10.6470   23.7340    6.9630 S.O2  100  9Y9100      0.0631
      9  C9         8.5200   24.8350    4.8230 C.3   100  9Y9100      0.0292
     10  N10       11.4890   23.8930    5.5210 N.3   100  9Y9100     -0.1529
     11  C11        9.7060   24.6400    3.8540 C.3   100  9Y9100      0.0221
     12  C12       10.7950   23.6310    4.2430 C.3   100  9Y9100      0.0962
     13  C13        9.2280   24.1810    2.4730 C.3   100  9Y9100      0.0018
     14  C14       12.7600   24.6490    5.4760 C.3   100  9Y9100      0.1304
     15  O15        9.7110   22.7300    6.7990 O.2   100  9Y9100     -0.1528
     16  O16       11.6690   23.7170    7.9920 O.2   100  9Y9100     -0.1528
     17  C17       13.9060   23.6980    5.0790 C.3   100  9Y9100      0.1898
     18  C18       14.3550   22.6270    6.0800 C.3   100  9Y9100      0.1347
     19  N19       15.1940   21.5910    5.3670 N.am  100  9Y9100     -0.1675
     20  C20       15.0590   23.1340    7.3350 C.3   100  9Y9100      0.0508
     21  C21       15.2670   21.9790    8.2340 C.ar  100  9Y9100     -0.0204
     22  C22       14.1970   21.5250    9.0310 C.ar  100  9Y9100     -0.0042
     23  C23       14.4070   20.4080    9.8380 C.ar  100  9Y9100     -0.0003
     24  C24       15.6520   19.7460    9.8530 C.ar  100  9Y9100     -0.0000
     25  C25       16.7260   20.1970    9.0440 C.ar  100  9Y9100     -0.0003
     26  C26       16.5280   21.3230    8.2440 C.ar  100  9Y9100     -0.0042
     27  C27       14.6530   20.4550    4.8730 C.2   100  9Y9100      0.4209
     28  O28       13.4500   20.2120    4.9740 O.2   100  9Y9100     -0.2246
     29  O29       15.6500   19.6910    4.2810 O.3   100  9Y9100     -0.4408
     30  O30       15.0560   24.4320    4.7060 O.3   100  9Y9100     -0.2197
     31  C31       15.3190   18.6040    3.4150 C.3   100  9Y9100      0.1379
     32  C32       14.5550   19.1570    2.2090 C.3   100  9Y9100      0.0437
     33  C33       16.6330   17.9920    2.9180 C.3   100  9Y9100      0.0437
     34  C34       14.5740   17.5490    4.2490 C.3   100  9Y9100      0.0437
@<TRIPOS>BOND
     1    32    31    1
     2    13    11    1
     3    33    31    1
     4    31    34    1
     5    31    29    1
     6    11    12    1
     7    11     9    1
     8    12    10    1
     9    29    27    1
    10    30    17    1
    11     9     6    1
    12    27    28    2
    13    27    19   am
    14    17    14    1
    15    17    18    1
    16    19    18    1
    17    14    10    1
    18    10     8    1
    19    18    20    1
    20     6     3   ar
    21     6     7   ar
    22     3     2   ar
    23    15     8    2
    24     8     7    1
    25     8    16    2
    26     7     4   ar
    27    20    21    1
    28     2     5    1
    29     2     1   ar
    30    21    26   ar
    31    21    22   ar
    32    26    25   ar
    33     4     1   ar
    34    22    23   ar
    35    25    24   ar
    36    23    24   ar
