@<TRIPOS>MOLECULE
3thb_3TA_A_1.pdb
 31 34 0 0 0
SMALL
GASTEIGER

@<TRIPOS>ATOM
      1  C1       -43.7040   14.5920   10.1920 C.2     1  3TA1        0.0433
      2 CL1       -43.3870    9.2340   14.5070 Cl      1  3TA1       -0.0865
      3  C2       -43.9720   15.2870    9.0200 C.2     1  3TA1        0.1111
      4  N3       -44.4590   14.6390    7.9710 N.2     1  3TA1       -0.1686
      5  C4       -44.6950   13.3240    8.0240 C.1     1  3TA1        0.1697
      6  N5       -44.4510   12.6260    9.1430 N.2     1  3TA1       -0.3363
      7  C6       -43.9730   13.2390   10.2340 C.2     1  3TA1        0.1448
      8  C7       -42.7710   12.5350   12.2780 C.2     1  3TA1        0.1265
      9  C8       -43.7490   12.3770   11.2960 C.2     1  3TA1        0.0569
     10  N9       -41.8720   13.5280   12.3680 N.2     1  3TA1       -0.3693
     11  C10      -41.9350   14.7990   11.9400 C.1     1  3TA1        0.0211
     12  C11      -43.1510   15.4650   11.3120 C.3     1  3TA1        0.1302
     13  C12      -44.4760   10.3170   12.3000 C.2     1  3TA1        0.0076
     14  C13      -43.5000   10.4580   13.2840 C.2     1  3TA1        0.0425
     15  C14      -42.6390   11.5640   13.2740 C.3     1  3TA1        0.0978
     16  C15      -44.6030   11.2770   11.3010 C.2     1  3TA1        0.0054
     17  S16      -40.5110   15.8090   12.1380 S.2     1  3TA1        0.0196
     18  N18      -45.1690   12.7210    6.9510 N.pl3   1  3TA1       -0.1346
     19  C19      -45.6610   11.4780    6.9640 C.ar    1  3TA1        0.0958
     20  C20      -44.8990   10.3990    7.4070 C.ar    1  3TA1        0.0158
     21  C21      -45.4740    9.1310    7.3870 C.ar    1  3TA1       -0.0017
     22  C22      -46.7750    8.9770    6.9180 C.ar    1  3TA1        0.0942
     23  N23      -47.4790   10.0100    6.5040 N.ar    1  3TA1       -0.2471
     24  C24      -46.9620   11.2440    6.5070 C.ar    1  3TA1        0.0753
     25  C25      -44.7020    7.8800    7.8550 C.3     1  3TA1        0.0294
     26  C26      -44.6830    7.6950    9.3730 C.3     1  3TA1        0.0221
     27  C27      -43.9520    6.4090    9.7920 C.3     1  3TA1        0.0725
     28  N28      -42.5830    6.2500    9.2250 N.3     1  3TA1       -0.2703
     29  C29      -41.6290    7.3510    9.5130 C.3     1  3TA1        0.0897
     30  C30      -42.0310    4.9810    9.7500 C.3     1  3TA1        0.0897
     31  C31      -47.8360   12.3900    6.0060 C.3     1  3TA1        0.0535
@<TRIPOS>BOND
     1    31    24    1
     2    23    24   ar
     3    23    22   ar
     4    24    19   ar
     5    22    21   ar
     6    18    19    1
     7    18     5    1
     8    19    20   ar
     9    21    20   ar
    10    21    25    1
    11    25    26    1
    12     4     5    2
    13     4     3    1
    14     5     6    2
    15     3     1    2
    16     6     7    2
    17    28    29    1
    18    28    30    1
    19    28    27    1
    20    26    27    1
    21     1     7    1
    22     1    12    1
    23     7     9    1
    24     9    16    2
    25     9     8    1
    26    16    13    1
    27    12    11    1
    28    11    17    2
    29    11    10    2
    30     8    10    2
    31     8    15    1
    32    13    14    2
    33    15    14    1
    34    14     2    1
