@<TRIPOS>MOLECULE
3thc_GAL_A_1.pdb
 12 12 0 0 0
SMALL
GASTEIGER

@<TRIPOS>ATOM
      1  C1        -4.3840   -8.1750    5.5280 C.3   900  GAL900      0.3024
      2  C2        -3.5660   -6.8700    5.3860 C.3   900  GAL900      0.2434
      3  C3        -2.6460   -6.6530    6.6030 C.3   900  GAL900      0.2199
      4  C4        -3.4040   -6.7940    7.9150 C.3   900  GAL900      0.2144
      5  C5        -4.0860   -8.1910    7.9110 C.3   900  GAL900      0.1836
      6  C6        -4.8680   -8.5590    9.1760 C.3   900  GAL900      0.2142
      7  O1        -5.5060   -8.2150    4.6250 O.3   900  GAL900     -0.1869
      8  O2        -2.7550   -6.9000    4.2270 O.3   900  GAL900     -0.2148
      9  O3        -2.0150   -5.3790    6.5970 O.3   900  GAL900     -0.2174
     10  O4        -4.3900   -5.7670    8.0860 O.3   900  GAL900     -0.2176
     11  O5        -4.9970   -8.2270    6.8180 O.3   900  GAL900     -0.3236
     12  O6        -4.0380   -8.5500   10.3610 O.3   900  GAL900     -0.2176
@<TRIPOS>BOND
     1     8     2    1
     2     7     1    1
     3     2     1    1
     4     2     3    1
     5     1    11    1
     6     9     3    1
     7     3     4    1
     8    11     5    1
     9     5     4    1
    10     5     6    1
    11     4    10    1
    12     6    12    1
