@<TRIPOS>MOLECULE
3thc_NAG_A_1.pdb
 14 14 0 0 0
SMALL
GASTEIGER

@<TRIPOS>ATOM
      1  C1       -22.3990   23.9800   11.0980 C.3   702  NAG702      0.1665
      2  C2       -21.6370   23.4390    9.8870 C.3   702  NAG702      0.1576
      3  C3       -21.5350   24.4940    8.7750 C.3   702  NAG702      0.2069
      4  C4       -22.8990   25.0790    8.4320 C.3   702  NAG702      0.2134
      5  C5       -23.4600   25.6560    9.7190 C.3   702  NAG702      0.1809
      6  C6       -24.8200   26.3480    9.5550 C.3   702  NAG702      0.2141
      7  C7       -19.9050   21.8700   10.6320 C.2   702  NAG702      0.2420
      8  C8       -18.4690   21.6870   11.0420 C.3   702  NAG702      0.0964
      9  N2       -20.2790   23.0940   10.2930 N.am  702  NAG702     -0.2019
     10  O3       -20.9820   23.9430    7.6190 O.3   702  NAG702     -0.2184
     11  O4       -22.7750   26.1140    7.4470 O.3   702  NAG702     -0.2176
     12  O5       -23.6000   24.6520   10.7250 O.3   702  NAG702     -0.3489
     13  O6       -25.7990   25.4090    9.1740 O.3   702  NAG702     -0.2176
     14  O7       -20.6850   20.9240   10.6480 O.2   702  NAG702     -0.2733
@<TRIPOS>BOND
     1    11     4    1
     2    10     3    1
     3     4     3    1
     4     4     5    1
     5     3     2    1
     6    13     6    1
     7     6     5    1
     8     5    12    1
     9     2     9    1
    10     2     1    1
    11     9     7   am
    12     7    14    2
    13     7     8    1
    14    12     1    1
