@<TRIPOS>MOLECULE
3thd_DGJ_A_1.pdb
 11 11 0 0 0
SMALL
GASTEIGER

@<TRIPOS>ATOM
      1  C1        -4.4190   -7.8350    5.2890 C.3   900  DGJ900      0.1243
      2  C2        -3.4140   -6.6730    5.2510 C.3   900  DGJ900      0.2020
      3  O2        -2.6140   -6.7400    4.0530 O.3   900  DGJ900     -0.2188
      4  C3        -2.5080   -6.5970    6.5100 C.3   900  DGJ900      0.2151
      5  O3        -1.9380   -5.2870    6.6210 O.3   900  DGJ900     -0.2176
      6  C4        -3.4580   -6.7500    7.6340 C.3   900  DGJ900      0.2031
      7  O4        -4.3300   -5.7240    8.0280 O.3   900  DGJ900     -0.2187
      8  C5        -4.0770   -8.1660    7.7290 C.3   900  DGJ900      0.1386
      9  N5        -5.0400   -8.0160    6.6280 N.3   900  DGJ900     -0.2113
     10  C6        -4.8920   -8.5100    8.9820 C.3   900  DGJ900      0.2020
     11  O6        -4.0360   -8.5870   10.1780 O.3   900  DGJ900     -0.2188
@<TRIPOS>BOND
     1     3     2    1
     2     2     1    1
     3     2     4    1
     4     1     9    1
     5     4     5    1
     6     4     6    1
     7     9     8    1
     8     6     8    1
     9     6     7    1
    10     8    10    1
    11    10    11    1
