@<TRIPOS>MOLECULE
3thh_ABH_A_1.pdb
 13 12 0 0 0
SMALL
GASTEIGER

@<TRIPOS>ATOM
      1  N        -19.2710  -16.2780    4.1690 N.3   700  ABH700      0.0000
      2  CA       -19.4670  -16.1730    5.6210 C.3   700  ABH700      0.0000
      3  C        -20.8800  -16.6090    6.0080 C.2   700  ABH700      0.0000
      4  O        -21.2440  -16.6440    7.3030 O.co2 700  ABH700      0.0000
      5  OT       -21.6630  -16.9870    5.1540 O.co2 700  ABH700      0.0000
      6  CB       -19.1540  -14.7400    6.1190 C.3   700  ABH700      0.0000
      7  CG       -19.9960  -13.6740    5.3880 C.3   700  ABH700      0.0000
      8  CD       -19.8730  -12.3230    6.1130 C.3   700  ABH700      0.0000
      9  CE       -21.1000  -11.4520    5.7860 C.3   700  ABH700      0.0000
     10  B        -20.7000   -9.9160    5.4690 B     700  ABH700      0.0000
     11  O2       -21.8480   -9.1790    5.2640 O.3   700  ABH700      0.0000
     12  O1       -19.9330   -9.8530    4.3370 O.3   700  ABH700      0.0000
     13  O3       -20.0070   -9.3790    6.5240 O.3   700  ABH700      0.0000
@<TRIPOS>BOND
     1     1     2    1
     2    12    10    1
     3     5     3   ar
     4    11    10    1
     5     7     8    1
     6     7     6    1
     7    10     9    1
     8    10    13    1
     9     2     3    1
    10     2     6    1
    11     9     8    1
    12     3     4   ar
