@<TRIPOS>MOLECULE
3thk_III_C_1.pdb
 42 46 0 0 0
SMALL
GASTEIGER

@<TRIPOS>ATOM
      1  N         13.2160   12.1820   -2.0820 N.3    74  PRO74      -0.2103
      2  CA        14.1210   11.2870   -1.3580 C.3    74  PRO74       0.1489
      3  C         13.4810   10.7630   -0.0920 C.2    74  PRO74       0.2418
      4  O         12.5750   11.4020    0.4080 O.2    74  PRO74      -0.2734
      5  CB        15.3040   12.1930   -1.0210 C.3    74  PRO74       0.0282
      6  CG        14.8550   13.5650   -1.2900 C.3    74  PRO74       0.0208
      7  CD        13.8940   13.4380   -2.4090 C.3    74  PRO74       0.0893
      8  N         13.9640    9.6180    0.3870 N.am   75  PRO75      -0.2719
      9  CA        13.4380    8.9540    1.5700 C.3    75  PRO75       0.1520
     10  C         13.9700    9.5860    2.8330 C.2    75  PRO75       0.2440
     11  O         14.6340   10.5600    2.7610 O.2    75  PRO75      -0.2731
     12  CB        13.9490    7.5170    1.4130 C.3    75  PRO75       0.0310
     13  CG        14.5030    7.4210    0.0300 C.3    75  PRO75       0.0237
     14  CD        14.1950    8.6600   -0.6900 C.3    75  PRO75       0.0939
     15  N         13.6140    9.0600    3.9820 N.am   76  PRO76      -0.2716
     16  CA        13.9960    9.6920    5.2260 C.3    76  PRO76       0.1536
     17  C         15.2910    9.1350    5.6170 C.2    76  PRO76       0.2598
     18  O         15.5970    8.1060    5.1120 O.2    76  PRO76      -0.2715
     19  CB        12.8850    9.2840    6.2020 C.3    76  PRO76       0.0310
     20  CG        12.1480    8.3140    5.5730 C.3    76  PRO76       0.0237
     21  CD        12.3300    8.3710    4.1190 C.3    76  PRO76       0.0939
     22  N         16.0630    9.7740    6.4590 N.am   77  VAL77      -0.1964
     23  CA        17.3030    9.1680    6.8410 C.3    77  VAL77       0.1712
     24  C         16.9540    8.2070    7.9470 C.2    77  VAL77       0.2458
     25  O         15.8180    8.1360    8.3290 O.2    77  VAL77      -0.2730
     26  CB        18.3680   10.2470    7.1110 C.3    77  VAL77       0.0289
     27  CG1       19.7600    9.6620    7.3820 C.3    77  VAL77       0.0023
     28  CG2       18.4540   11.1180    5.8570 C.3    77  VAL77       0.0023
     29  N         17.8590    7.3950    8.4320 N.am   78  PRO78      -0.2716
     30  CA        17.4400    6.5630    9.5450 C.3    78  PRO78       0.1521
     31  C         17.9010    7.2400   10.8100 C.2    78  PRO78       0.2440
     32  O         18.5400    8.2500   10.6640 O.2    78  PRO78      -0.2731
     33  CB        18.0660    5.2150    9.2230 C.3    78  PRO78       0.0310
     34  CG        18.1640    5.2140    7.7730 C.3    78  PRO78       0.0237
     35  CD        18.4780    6.5840    7.3720 C.3    78  PRO78       0.0939
     36  N         17.5450    6.7680   12.0010 N.am   79  PRO79      -0.2727
     37  CA        17.7420    7.5590   13.2190 C.3    79  PRO79       0.1402
     38  C         19.1290    7.5900   13.8160 C.2    79  PRO79       0.2269
     39  O         19.9950    6.9960   13.2240 O.2    79  PRO79      -0.2865
     40  CB        16.7870    6.9220   14.1840 C.3    79  PRO79       0.0296
     41  CG        15.7300    6.4060   13.3530 C.3    79  PRO79       0.0237
     42  CD        16.2570    6.0670   12.0390 C.3    79  PRO79       0.0939
@<TRIPOS>BOND
     1     7     1    1
     2     7     6    1
     3     1     2    1
     4     2     5    1
     5     2     3    1
     6     6     5    1
     7    14    13    1
     8    14     8    1
     9     3     8   am
    10     3     4    2
    11    13    12    1
    12     8     9    1
    13    12     9    1
    14     9    10    1
    15    11    10    2
    16    10    15   am
    17    15    21    1
    18    15    16    1
    19    21    20    1
    20    18    17    2
    21    16    17    1
    22    16    19    1
    23    20    19    1
    24    17    22   am
    25    28    26    1
    26    22    23    1
    27    23    26    1
    28    23    24    1
    29    26    27    1
    30    35    34    1
    31    35    29    1
    32    34    33    1
    33    24    25    2
    34    24    29   am
    35    29    30    1
    36    33    30    1
    37    30    31    1
    38    32    31    2
    39    31    36   am
    40    36    42    1
    41    36    37    1
    42    42    41    1
    43    37    38    1
    44    37    40    1
    45    39    38    2
    46    41    40    1
