@<TRIPOS>MOLECULE
3tho_ADP_A_1.pdb
 27 29 0 0 0
SMALL
GASTEIGER

@<TRIPOS>ATOM
      1  PB       -42.5710  -12.4460   24.4790 P.3   1452  ADP1452     0.5373
      2  O1B      -41.9600  -12.1790   23.1020 O.2   1452  ADP1452    -0.2221
      3  O2B      -43.8210  -13.3600   24.3240 O.3   1452  ADP1452    -0.1143
      4  O3B      -42.9640  -11.1440   25.2020 O.3   1452  ADP1452    -0.1143
      5  PA       -40.1720  -13.8710   25.1450 P.3   1452  ADP1452     0.2231
      6  O1A      -40.3330  -14.8830   24.0230 O.2   1452  ADP1452    -0.5169
      7  O2A      -39.0370  -12.8580   24.8060 O.3   1452  ADP1452    -0.4370
      8  O3A      -41.5630  -13.1410   25.4590 O.3   1452  ADP1452    -0.2261
      9  O5'      -39.7340  -14.5240   26.4920 O.3   1452  ADP1452    -0.3111
     10  C5'      -40.3910  -15.7030   26.9800 C.3   1452  ADP1452     0.1813
     11  C4'      -40.1000  -16.1080   28.3380 C.3   1452  ADP1452     0.1821
     12  O4'      -38.9100  -16.9780   28.4380 O.3   1452  ADP1452    -0.3135
     13  C3'      -39.8050  -14.9560   29.2180 C.3   1452  ADP1452     0.2184
     14  O3'      -40.4830  -15.1540   30.3810 O.3   1452  ADP1452    -0.2174
     15  C2'      -38.3430  -15.0080   29.4300 C.3   1452  ADP1452     0.2570
     16  O2'      -37.9110  -14.4060   30.5660 O.3   1452  ADP1452    -0.2130
     17  C1'      -38.1090  -16.4860   29.5000 C.3   1452  ADP1452     0.3186
     18  N9       -36.7500  -16.9570   29.3640 N.pl3 1452  ADP1452    -0.1439
     19  C8       -35.6650  -16.2830   28.9120 C.3   1452  ADP1452     0.3377
     20  N7       -34.6080  -17.1140   28.9450 N.2   1452  ADP1452    -0.2095
     21  C5       -35.0290  -18.3170   29.4080 C.2   1452  ADP1452     0.2526
     22  C6       -34.4050  -19.5580   29.6400 C.2   1452  ADP1452     0.4393
     23  N6       -33.0320  -19.7660   29.3710 N.pl3 1452  ADP1452     0.2180
     24  N1       -35.1390  -20.5660   30.1260 N.2   1452  ADP1452     0.0021
     25  C2       -36.4610  -20.4330   30.3780 C.3   1452  ADP1452     0.5254
     26  N3       -37.0870  -19.2740   30.1530 N.2   1452  ADP1452    -0.0055
     27  C4       -36.3990  -18.2130   29.6760 C.2   1452  ADP1452     0.3518
@<TRIPOS>BOND
     1     2     1    2
     2     6     5    2
     3     3     1    1
     4     1     4    1
     5     1     8    1
     6     7     5    1
     7     5     8    1
     8     5     9    1
     9     9    10    1
    10    10    11    1
    11    11    12    1
    12    11    13    1
    13    12    17    1
    14    19    20    1
    15    19    18    1
    16    20    21    2
    17    13    15    1
    18    13    14    1
    19    18    17    1
    20    18    27    1
    21    23    22    1
    22    21    22    1
    23    21    27    1
    24    15    17    1
    25    15    16    1
    26    22    24    2
    27    27    26    2
    28    24    25    1
    29    26    25    1
