@<TRIPOS>MOLECULE
3thp_AKG_A_1.pdb
 10 9 0 0 0
SMALL
GASTEIGER

@<TRIPOS>ATOM
      1  C1        10.7360   22.3910   22.2180 C.2   403  AKG403      0.4219
      2  O1        10.0210   21.4720   22.5730 O.co2 403  AKG403     -0.2373
      3  O2        10.1880   23.6010   21.9630 O.co2 403  AKG403     -0.2373
      4  C2        12.2220   22.1930   22.0510 C.2   403  AKG403      0.2526
      5  O5        12.7360   22.4870   20.9950 O.2   403  AKG403     -0.2843
      6  C3        13.0740   21.6350   23.1870 C.3   403  AKG403      0.0881
      7  C4        12.9510   20.1060   23.2870 C.3   403  AKG403      0.1224
      8  C5        14.0560   19.3910   22.5390 C.2   403  AKG403      0.3653
      9  O3        13.8000   18.5110   21.7470 O.co2 403  AKG403     -0.2456
     10  O4        15.3350   19.7210   22.7610 O.co2 403  AKG403     -0.2456
@<TRIPOS>BOND
     1     5     4    2
     2     9     8   ar
     3     3     1   ar
     4     4     1    1
     5     4     6    1
     6     1     2   ar
     7     8    10   ar
     8     8     7    1
     9     6     7    1
