@<TRIPOS>MOLECULE
3thq_NUP_A_1.pdb
 22 23 0 0 0
SMALL
GASTEIGER

@<TRIPOS>ATOM
      1  O4        16.2590   -7.5480    5.7460 O.2   1000  NUP1000    -0.2082
      2  C4        17.0960   -7.6060    6.7930 C.1   1000  NUP1000     0.2263
      3  N2        18.1550   -8.4360    6.7110 N.2   1000  NUP1000    -0.2265
      4  C2        19.0270   -8.5290    7.7190 C.1   1000  NUP1000     0.3759
      5  O2        19.9860   -9.3190    7.5540 O.2   1000  NUP1000    -0.1670
      6  C5        16.8830   -6.8200    7.9090 C.2   1000  NUP1000     0.2000
      7  C6        17.8180   -6.9370    8.9330 C.2   1000  NUP1000     0.3944
      8  N3        17.6090   -6.1290    9.9970 N.pl3 1000  NUP1000     0.2119
      9  N1        18.8540   -7.8080    8.8400 N.am  1000  NUP1000    -0.0553
     10  C1'       19.8340   -7.8900    9.9310 C.3   1000  NUP1000     0.3330
     11  O4'       21.0840   -7.4050    9.4760 O.3   1000  NUP1000    -0.3127
     12  C2'       20.1440   -9.2870   10.4520 C.3   1000  NUP1000     0.2581
     13  O2'       19.2850   -9.5990   11.5420 O.3   1000  NUP1000    -0.2130
     14  C3'       21.5800   -9.1540   10.9510 C.3   1000  NUP1000     0.2185
     15  O3'       21.5560   -8.5090   12.2600 O.3   1000  NUP1000    -0.2174
     16  C4'       22.1750   -8.2100    9.9360 C.3   1000  NUP1000     0.1823
     17  C5'       22.8330   -8.8820    8.7310 C.3   1000  NUP1000     0.1860
     18  O5'       24.0050   -9.5330    9.2640 O.3   1000  NUP1000    -0.2675
     19  P         25.0000  -10.3720    8.3140 P.3   1000  NUP1000     0.5327
     20  O1P       24.1970  -11.1660    7.3080 O.2   1000  NUP1000    -0.2224
     21  O2P       25.6480  -11.2790    9.3360 O.3   1000  NUP1000    -0.1145
     22  O3P       25.9430   -9.3910    7.6720 O.3   1000  NUP1000    -0.1145
@<TRIPOS>BOND
     1     1     2    2
     2     3     2    2
     3     3     4    2
     4     2     6    1
     5    20    19    2
     6     5     4    2
     7    22    19    1
     8     4     9   am
     9     6     7    2
    10    19    18    1
    11    19    21    1
    12    17    18    1
    13    17    16    1
    14     9     7    1
    15     9    10    1
    16     7     8    1
    17    11    10    1
    18    11    16    1
    19    10    12    1
    20    16    14    1
    21    12    14    1
    22    12    13    1
    23    14    15    1
