@<TRIPOS>MOLECULE
3thr_C2F_A_1.pdb
 33 35 0 0 0
SMALL
GASTEIGER

@<TRIPOS>ATOM
      1  N1         8.4000  -23.9090   19.4190 N.2   1100  C2F1100    -0.2726
      2  C2         7.2270  -23.6740   20.1050 C.1   1100  C2F1100     0.2603
      3  NA2        6.1260  -24.4940   20.0950 N.pl3 1100  C2F1100    -0.0221
      4  N3         7.1360  -22.5550   20.8490 N.2   1100  C2F1100    -0.2515
      5  C4         8.1580  -21.6690   20.9290 C.1   1100  C2F1100     0.2218
      6  O4         8.0780  -20.6440   21.5970 O.2   1100  C2F1100    -0.2109
      7  C4A        9.3170  -21.8480   20.2720 C.3   1100  C2F1100     0.2763
      8  N5        10.4200  -20.9370   20.3560 N.3   1100  C2F1100    -0.2435
      9  C6        10.8400  -20.5550   18.9810 C.3   1100  C2F1100     0.1062
     10  C7        11.2120  -21.8640   18.2140 C.3   1100  C2F1100     0.1547
     11  N8        10.6400  -23.0910   18.8460 N.2   1100  C2F1100    -0.2096
     12  C8A        9.4440  -23.0010   19.5030 C.1   1100  C2F1100     0.1050
     13  C9        11.9600  -19.4730   19.0610 C.3   1100  C2F1100     0.1302
     14  N10       12.6250  -19.2770   17.7820 N.pl3 1100  C2F1100    -0.2361
     15  C11       10.2800  -19.7620   21.2070 C.3   1100  C2F1100     0.0915
     16  C12       16.6200  -18.8070   17.0450 C.ar  1100  C2F1100     0.0551
     17  C13       15.7810  -18.7160   15.9670 C.ar  1100  C2F1100     0.0059
     18  C14       14.4360  -18.8900   16.2400 C.ar  1100  C2F1100     0.0162
     19  C15       13.9470  -19.1230   17.5240 C.ar  1100  C2F1100     0.0654
     20  C16       14.8090  -19.2140   18.5250 C.ar  1100  C2F1100     0.0162
     21  C17       16.1280  -19.0730   18.2530 C.ar  1100  C2F1100     0.0059
     22  C         18.1040  -18.6630   17.1050 C.2   1100  C2F1100     0.2652
     23  O         18.7330  -17.6460   16.8010 O.2   1100  C2F1100    -0.2684
     24  N         18.6500  -19.7150   17.6460 N.am  1100  C2F1100    -0.1918
     25  CA        20.0420  -20.0530   17.8340 C.3   1100  C2F1100     0.1986
     26  CB        21.0270  -19.0110   18.4300 C.3   1100  C2F1100     0.0451
     27  CG        22.3130  -18.7370   17.6730 C.3   1100  C2F1100     0.1164
     28  CD        23.5430  -18.5350   18.5790 C.2   1100  C2F1100     0.3649
     29  OE1       24.4300  -19.4450   18.5690 O.co2 1100  C2F1100    -0.2457
     30  OE2       23.6260  -17.4700   19.2860 O.co2 1100  C2F1100    -0.2457
     31  CT        19.7900  -21.2320   18.6770 C.2   1100  C2F1100     0.3842
     32  O1        20.7900  -21.8430   19.0130 O.co2 1100  C2F1100    -0.2437
     33  O2        18.5930  -21.5530   18.8970 O.co2 1100  C2F1100    -0.2437
@<TRIPOS>BOND
     1    17    18   ar
     2    17    16   ar
     3    18    19   ar
     4    23    22    2
     5    16    22    1
     6    16    21   ar
     7    22    24   am
     8    19    14    1
     9    19    20   ar
    10    24    25    1
    11    27    26    1
    12    27    28    1
    13    14    13    1
    14    25    26    1
    15    25    31    1
    16    10    11    1
    17    10     9    1
    18    21    20   ar
    19    29    28   ar
    20    28    30   ar
    21    31    33   ar
    22    31    32   ar
    23    11    12    2
    24     9    13    1
    25     9     8    1
    26     1    12    2
    27     1     2    2
    28    12     7    1
    29     3     2    1
    30     2     4    2
    31     7     8    1
    32     7     5    1
    33     8    15    1
    34     4     5    2
    35     5     6    2
