@<TRIPOS>MOLECULE
3tht_AKG_A_1.pdb
 10 9 0 0 0
SMALL
GASTEIGER

@<TRIPOS>ATOM
      1  C1       -36.1660   21.6440   40.1320 C.2   403  AKG403      0.4219
      2  O1       -36.5310   21.8620   38.9920 O.co2 403  AKG403     -0.2373
      3  O2       -34.8470   21.7310   40.4190 O.co2 403  AKG403     -0.2373
      4  C2       -37.1710   21.2600   41.2190 C.2   403  AKG403      0.2526
      5  O5       -37.0110   20.2060   41.8080 O.2   403  AKG403     -0.2843
      6  C3       -38.3610   22.1830   41.5500 C.3   403  AKG403      0.0881
      7  C4       -39.1530   21.7510   42.8060 C.3   403  AKG403      0.1224
      8  C5       -40.6670   21.8520   42.5860 C.2   403  AKG403      0.3653
      9  O3       -41.2750   21.0110   41.9580 O.co2 403  AKG403     -0.2456
     10  O4       -41.3550   22.8750   43.1010 O.co2 403  AKG403     -0.2456
@<TRIPOS>BOND
     1     2     1   ar
     2     1     3   ar
     3     1     4    1
     4     4     6    1
     5     4     5    2
     6     6     7    1
     7     9     8   ar
     8     8     7    1
     9     8    10   ar
