@<TRIPOS>MOLECULE
3thv_DDS_A_1.pdb
 41 43 0 0 0
SMALL
GASTEIGER

@<TRIPOS>ATOM
      1  N1       123.8700  -22.0990   37.4670 N.2   201  DDS201     -0.3296
      2  C2       124.5010  -22.7500   36.4920 C.1   201  DDS201      0.0930
      3  N3       125.2450  -23.8010   36.7880 N.2   201  DDS201     -0.3287
      4  C4       125.4040  -24.2210   38.0740 C.2   201  DDS201      0.2353
      5  C5       124.7450  -23.5650   39.1060 C.2   201  DDS201      0.2211
      6  C6       123.9760  -22.4550   38.7640 C.2   201  DDS201      0.2227
      7  N6       123.2690  -21.6810   39.7600 N.pl3 201  DDS201     -0.3300
      8  N7       125.0840  -24.2050   40.2510 N.2   201  DDS201     -0.3871
      9  C8       125.9020  -25.2270   39.9490 C.2   201  DDS201      0.1450
     10  N9       126.0640  -25.2450   38.6060 N.pl3 201  DDS201     -0.2260
     11  PA       128.8000  -26.8860   42.4430 P.3   201  DDS201      0.2182
     12  PB       131.2200  -25.5630   42.0090 P.3   201  DDS201      0.2277
     13  PG       132.2310  -25.6150   44.6740 P.3   201  DDS201      0.5373
     14  C1'      126.8830  -26.1000   37.8110 C.3   201  DDS201      0.1335
     15  O1A      127.8450  -26.3150   43.4360 O.3   201  DDS201     -0.4371
     16  O1B      131.5310  -24.4440   41.0120 O.2   201  DDS201     -0.5168
     17  O1G      131.5240  -25.1860   45.9270 O.3   201  DDS201     -0.1143
     18  C2'      128.1480  -25.3350   37.5690 C.3   201  DDS201     -0.0068
     19  O2A      129.6460  -27.9600   43.0360 O.2   201  DDS201     -0.5170
     20  O2B      131.9490  -26.8090   41.6280 O.3   201  DDS201     -0.4368
     21  O2G      132.3050  -27.0840   44.6130 O.2   201  DDS201     -0.2221
     22  C3'      128.9760  -25.7890   38.6990 C.3   201  DDS201     -0.0205
     23  O3A      129.6460  -25.6980   41.8850 O.3   201  DDS201     -0.2700
     24  O3B      131.4900  -24.9560   43.4490 O.3   201  DDS201     -0.2258
     25  O3G      133.6360  -25.0560   44.6870 O.3   201  DDS201     -0.1143
     26  C4'      128.6630  -27.2670   38.7400 C.3   201  DDS201      0.0848
     27  O4'      127.3130  -27.3800   38.3790 O.3   201  DDS201     -0.3528
     28  C5'      128.8070  -27.8590   40.0950 C.3   201  DDS201      0.0811
     29  O5'      128.0470  -27.3800   41.1540 O.3   201  DDS201     -0.3247
     30  H2       124.4060  -22.4570   35.5600 H     201  DDS201      0.1751
     31  HN6      122.7650  -20.9590   39.5060 H     201  DDS201      0.1448
     32 HN6A      123.3250  -21.9110   40.6410 H     201  DDS201      0.1448
     33  H8       126.2840  -25.8460   40.5700 H     201  DDS201      0.1149
     34  H1'      126.4160  -26.2630   36.9500 H     201  DDS201      0.0813
     35  H2'      128.0210  -24.3680   37.5880 H     201  DDS201      0.0307
     36 H2'A      128.5560  -25.6090   36.7170 H     201  DDS201      0.0307
     37  H3'      129.9520  -25.6340   38.5130 H     201  DDS201      0.0292
     38 H3'A      128.6940  -25.3420   39.5490 H     201  DDS201      0.0292
     39  H4'      129.1680  -27.7920   38.0840 H     201  DDS201      0.0620
     40  H5'      128.6090  -28.8130   40.0080 H     201  DDS201      0.0590
     41 H5'A      129.7410  -27.7790   40.3520 H     201  DDS201      0.0590
@<TRIPOS>BOND
     1    30     2    1
     2     2     3    2
     3     2     1    2
     4    36    18    1
     5     3     4    2
     6    34    14    1
     7     1     6    2
     8    18    35    1
     9    18    14    1
    10    18    22    1
    11    14    27    1
    12    14    10    1
    13     4    10    1
    14     4     5    1
    15    39    26    1
    16    27    26    1
    17    37    22    1
    18    10     9    1
    19    22    26    1
    20    22    38    1
    21    26    28    1
    22     6     5    1
    23     6     7    1
    24     5     8    2
    25    31     7    1
    26     7    32    1
    27     9     8    2
    28     9    33    1
    29    40    28    1
    30    28    41    1
    31    28    29    1
    32    16    12    2
    33    29    11    1
    34    20    12    1
    35    23    12    1
    36    23    11    1
    37    12    24    1
    38    11    19    2
    39    11    15    1
    40    24    13    1
    41    21    13    2
    42    13    25    1
    43    13    17    1
