@<TRIPOS>MOLECULE
3ti0_DG3_A_1.pdb
 41 43 0 0 0
SMALL
GASTEIGER

@<TRIPOS>ATOM
      1  PG       131.9130  -25.7430   44.5330 P.3   201  DG3201      0.5373
      2  O1G      131.2420  -25.2970   45.7800 O.3   201  DG3201     -0.1143
      3  O2G      131.9300  -27.2260   44.4700 O.2   201  DG3201     -0.2221
      4  O3G      133.3260  -25.2320   44.4950 O.3   201  DG3201     -0.1143
      5  O3B      131.0920  -25.0390   43.3530 O.3   201  DG3201     -0.2258
      6  PB       130.8260  -25.5530   41.8630 P.3   201  DG3201      0.2277
      7  O1B      131.0590  -24.4020   40.9130 O.2   201  DG3201     -0.5168
      8  O2B      131.5240  -26.7690   41.4480 O.3   201  DG3201     -0.4368
      9  O3A      129.2170  -25.6870   41.8000 O.3   201  DG3201     -0.2700
     10  PA       128.4220  -26.9460   42.3300 P.3   201  DG3201      0.2182
     11  O1A      127.4160  -26.4320   43.3180 O.3   201  DG3201     -0.4371
     12  O2A      129.2990  -28.0130   42.9200 O.2   201  DG3201     -0.5170
     13  O5'      127.6860  -27.4290   41.0360 O.3   201  DG3201     -0.3247
     14  C5'      128.4240  -27.9680   39.9920 C.3   201  DG3201      0.0811
     15  C4'      128.1790  -27.5070   38.6060 C.3   201  DG3201      0.0848
     16  O4'      126.7930  -27.4800   38.3410 O.3   201  DG3201     -0.3528
     17  C3'      128.6580  -26.1020   38.4130 C.3   201  DG3201     -0.0205
     18  C2'      127.7310  -25.5300   37.4370 C.3   201  DG3201     -0.0068
     19  C1'      126.4440  -26.2420   37.6780 C.3   201  DG3201      0.1336
     20  N9       125.6510  -25.3460   38.4220 N.pl3 201  DG3201     -0.2254
     21  C8       125.4700  -25.2480   39.7650 C.2   201  DG3201      0.1458
     22  N7       124.6940  -24.1670   40.0400 N.2   201  DG3201     -0.3785
     23  C5       124.3950  -23.5560   38.8550 C.2   201  DG3201      0.2713
     24  C6       123.6590  -22.4280   38.4520 C.1   201  DG3201      0.2498
     25  O6       123.0080  -21.6100   39.3350 O.2   201  DG3201     -0.2058
     26  N1       123.5830  -22.1220   37.1450 N.2   201  DG3201     -0.2505
     27  C2       124.2150  -22.8690   36.2300 C.1   201  DG3201      0.2082
     28  N2       124.0780  -22.4770   34.8140 N.pl3 201  DG3201     -0.2829
     29  N3       124.9080  -23.9490   36.5500 N.2   201  DG3201     -0.3086
     30  C4       125.0280  -24.3040   37.8530 C.2   201  DG3201      0.2457
     31 H5'1      128.3030  -28.9450   40.0130 H     201  DG3201      0.0590
     32 H5'2      129.3660  -27.7850   40.1860 H     201  DG3201      0.0590
     33  H4'      128.6080  -28.1030   37.9040 H     201  DG3201      0.0620
     34 H3'1      129.5300  -26.1140   38.0590 H     201  DG3201      0.0292
     35 H3'2      128.6380  -25.5800   39.2770 H     201  DG3201      0.0292
     36 H2'1      128.0510  -25.6750   36.5320 H     201  DG3201      0.0307
     37 H2'2      127.6160  -24.6090   37.6060 H     201  DG3201      0.0307
     38  H1'      126.0720  -26.4840   36.8210 H     201  DG3201      0.0813
     39  H8       125.8340  -25.8620   40.4270 H     201  DG3201      0.1149
     40 HN21      124.5490  -22.9110   34.1800 H     201  DG3201      0.1556
     41 HN22      123.5120  -21.7870   34.5770 H     201  DG3201      0.1556
@<TRIPOS>BOND
     1    40    28    1
     2    41    28    1
     3    28    27    1
     4    27    29    2
     5    27    26    2
     6    36    18    1
     7    29    30    2
     8    38    19    1
     9    26    24    2
    10    18    37    1
    11    18    19    1
    12    18    17    1
    13    19    16    1
    14    19    20    1
    15    30    20    1
    16    30    23    1
    17    33    15    1
    18    34    17    1
    19    16    15    1
    20    17    15    1
    21    17    35    1
    22    20    21    1
    23    24    23    1
    24    24    25    2
    25    15    14    1
    26    23    22    2
    27    21    22    2
    28    21    39    1
    29    14    31    1
    30    14    32    1
    31    14    13    1
    32     7     6    2
    33    13    10    1
    34     8     6    1
    35     9     6    1
    36     9    10    1
    37     6     5    1
    38    10    12    2
    39    10    11    1
    40     5     1    1
    41     3     1    2
    42     4     1    1
    43     1     2    1
