@<TRIPOS>MOLECULE
3ti1_B49_A_1.pdb
 29 31 0 0 0
SMALL
GASTEIGER

@<TRIPOS>ATOM
      1  C4       -88.6640  -11.7370  -83.7510 C.3   299  B49299      0.0665
      2  C5       -96.3790   -7.0050  -87.8600 C.ar  299  B49299      0.0323
      3  C6       -95.4980   -7.9290  -88.4510 C.ar  299  B49299      0.0353
      4  C7       -95.1970   -7.2550  -85.7530 C.ar  299  B49299      0.0326
      5  C13      -90.9250   -8.9540  -82.5940 C.2   299  B49299      0.0105
      6  C15      -96.2290   -6.6710  -86.5110 C.ar  299  B49299      0.1403
      7  C17      -94.3290   -8.1800  -86.3510 C.ar  299  B49299      0.0411
      8  C20      -93.2050   -8.9080  -85.8020 C.2   299  B49299      0.0820
      9  C21      -92.6690   -9.7020  -86.8320 C.1   299  B49299      0.2010
     10  C22      -88.8190   -9.6600  -81.2000 C.2   299  B49299      0.2667
     11  C3       -91.4170   -7.8530  -81.6910 C.3   299  B49299      0.0336
     12  C12      -92.8110   -8.7210  -84.3220 C.3   299  B49299      0.0978
     13  C14      -89.7260  -10.6570  -83.5080 C.2   299  B49299      0.1131
     14  C16      -94.4520   -8.5230  -87.6670 C.ar  299  B49299      0.1449
     15  C18      -91.5340   -9.3570  -83.7920 C.2   299  B49299      0.1100
     16  C19      -89.7870   -9.7480  -82.4050 C.2   299  B49299      0.0786
     17  N23      -90.7910  -10.4010  -84.3350 N.2   299  B49299     -0.4104
     18  N24      -93.4160   -9.4650  -87.9550 N.2   299  B49299     -0.3331
     19  N25      -89.3410   -9.4500  -79.8490 N.am  299  B49299     -0.2001
     20  O27      -91.5900  -10.5590  -86.7520 O.2   299  B49299     -0.2096
     21  O28      -87.5780   -9.7840  -81.3780 O.2   299  B49299     -0.2683
     22  F29      -97.0350   -5.8140  -85.9080 F     299  B49299     -0.2042
     23  C37      -88.4410   -9.3820  -78.7420 C.3   299  B49299      0.1327
     24  C38      -88.6380   -8.3370  -77.6700 C.3   299  B49299      0.0958
     25  N4       -88.8810   -6.9440  -78.0590 N.3   299  B49299     -0.2712
     26  C39      -90.1050   -6.4500  -77.4910 C.3   299  B49299      0.0722
     27  C40      -87.7840   -6.1150  -77.6800 C.3   299  B49299      0.0722
     28  C41      -87.6640   -5.7050  -76.2090 C.3   299  B49299      0.0188
     29  C42      -90.8970   -7.3200  -76.5720 C.3   299  B49299      0.0188
@<TRIPOS>BOND
     1     3     2   ar
     2     3    14   ar
     3    18    14    2
     4    18     9    2
     5     2     6   ar
     6    14     7   ar
     7     9    20    2
     8     9     8    1
     9     6    22    1
    10     6     4   ar
    11     7     8    2
    12     7     4   ar
    13     8    12    1
    14    17    15    2
    15    17    13    2
    16    12    15    1
    17    15     5    1
    18     1    13    1
    19    13    16    1
    20     5    16    2
    21     5    11    1
    22    16    10    1
    23    21    10    2
    24    10    19   am
    25    19    23    1
    26    23    24    1
    27    25    27    1
    28    25    24    1
    29    25    26    1
    30    27    28    1
    31    26    29    1
