@<TRIPOS>MOLECULE
3ti3_LNV_A_1.pdb
 24 24 0 0 0
SMALL
GASTEIGER

@<TRIPOS>ATOM
      1  CAA       29.4460   13.2070  -22.7790 C.3   801  LNV801      0.2924
      2  CAB       30.8780   13.7230  -22.6260 C.2   801  LNV801      0.0668
      3  CAC       31.2210   14.5310  -21.3690 C.2   801  LNV801      0.1768
      4  CAD       30.0190   14.8570  -20.4400 C.2   801  LNV801      0.1394
      5  CAE       28.5810   14.5620  -20.9410 C.2   801  LNV801      0.1647
      6  OAF       28.3670   13.7620  -22.0880 O.2   801  LNV801     -0.4635
      7  CAG       29.0450   12.5680  -24.0610 C.2   801  LNV801      0.4085
      8  OAH       30.0140   11.9730  -24.8350 O.co2 801  LNV801     -0.2412
      9  OAI       27.8520   12.4960  -24.3280 O.co2 801  LNV801     -0.2412
     10  CAJ       27.4890   14.4280  -19.9420 C.3   801  LNV801      0.2055
     11  CAK       26.1260   14.6870  -20.5460 C.3   801  LNV801      0.2190
     12  CAL       25.0060   14.3680  -19.5850 C.3   801  LNV801      0.2178
     13  OAM       24.9720   15.1890  -18.4370 O.3   801  LNV801     -0.2175
     14  OAW       27.6190   13.1670  -19.4160 O.3   801  LNV801     -0.3432
     15  CAX       27.6650   13.0100  -18.0390 C.3   801  LNV801      0.1747
     16  OAY       26.0210   15.9410  -21.1130 O.3   801  LNV801     -0.2172
     17  NAZ       32.5430   14.3650  -20.8130 N.pl3 801  LNV801     -0.0593
     18  CBA       33.3070   15.3990  -20.1700 C.cat 801  LNV801      0.5393
     19  NBB       34.4020   15.0350  -19.5400 N.pl3 801  LNV801      0.1358
     20  NBC       32.9740   16.6840  -20.2710 N.pl3 801  LNV801      0.1358
     21  CBD       30.8320   15.4290  -18.0860 C.2   801  LNV801      0.2462
     22  CBE       30.9680   16.5840  -17.1480 C.3   801  LNV801      0.0968
     23  OBF       31.0600   14.2780  -17.7250 O.2   801  LNV801     -0.2730
     24  NBG       30.1530   15.7300  -19.3080 N.am  801  LNV801     -0.1734
@<TRIPOS>BOND
     1     8     7   ar
     2     9     7   ar
     3     7     1    1
     4     1     2    1
     5     1     6    1
     6     2     3    2
     7     6     5    1
     8     3    17    1
     9     3     4    1
    10    16    11    1
    11     5     4    2
    12     5    10    1
    13    17    18    2
    14    11    10    1
    15    11    12    1
    16     4    24    1
    17    20    18    1
    18    18    19    1
    19    10    14    1
    20    12    13    1
    21    14    15    1
    22    24    21   am
    23    21    23    2
    24    21    22    1
