@<TRIPOS>MOLECULE
3ti4_LVO_A_1.pdb
 26 26 0 0 0
SMALL
GASTEIGER

@<TRIPOS>ATOM
      1  CAA       29.5670   13.3780  -22.7790 C.3   801  LVO801      0.2213
      2  CAB       31.0040   13.6470  -22.5320 C.3   801  LVO801      0.0864
      3  CAC       31.3290   14.5130  -21.2880 C.3   801  LVO801      0.2063
      4  CAD       30.1860   14.5580  -20.2550 C.3   801  LVO801      0.1644
      5  CAE       28.7710   14.5230  -20.8810 C.3   801  LVO801      0.1687
      6  OAF       28.6370   13.5180  -21.8210 O.3   801  LVO801     -0.3430
      7  CAG       29.1870   12.5060  -23.9290 C.2   801  LVO801      0.3914
      8  OAH       30.1800   11.9660  -24.6480 O.co2 801  LVO801     -0.2430
      9  OAI       28.0670   12.4120  -24.1740 O.co2 801  LVO801     -0.2430
     10  CAJ       27.7160   14.3790  -19.8320 C.3   801  LVO801      0.1781
     11  CAK       26.4080   14.2930  -20.5380 C.3   801  LVO801      0.2248
     12  CAL       25.3630   13.8430  -19.5360 C.3   801  LVO801      0.2442
     13  OAM       24.4300   12.9300  -20.0160 O.3   801  LVO801     -0.4381
     14  CAN       24.6250   11.6640  -20.0770 C.2   801  LVO801      0.4182
     15  OAV       24.8680   10.9640  -19.1020 O.2   801  LVO801     -0.2375
     16  OAW       27.9460   13.2280  -19.1190 O.3   801  LVO801     -0.3483
     17  CAX       27.6530   13.3740  -17.8090 C.3   801  LVO801      0.1742
     18  OAY       26.0830   15.4430  -21.1580 O.3   801  LVO801     -0.2164
     19  NAZ       32.6560   14.3550  -20.7300 N.pl3 801  LVO801     -0.0882
     20  CBA       33.4400   15.3880  -20.1770 C.cat 801  LVO801      0.5345
     21  NBB       34.5220   15.0320  -19.5590 N.pl3 801  LVO801      0.1354
     22  NBC       33.1710   16.6080  -20.4360 N.pl3 801  LVO801      0.1354
     23  CBD       30.9800   15.3190  -18.0600 C.2   801  LVO801      0.2420
     24  CBE       31.2150   16.5870  -17.3250 C.3   801  LVO801      0.0964
     25  OBF       31.2400   14.3060  -17.6250 O.2   801  LVO801     -0.2733
     26  NBG       30.3310   15.5690  -19.2800 N.am  801  LVO801     -0.2010
@<TRIPOS>BOND
     1     8     7   ar
     2     9     7   ar
     3     7     1    1
     4     1     2    1
     5     1     6    1
     6     2     3    1
     7     6     5    1
     8     3    19    1
     9     3     4    1
    10    18    11    1
    11     5     4    1
    12     5    10    1
    13    19    20    2
    14    11    10    1
    15    11    12    1
    16    22    20    1
    17     4    26    1
    18    20    21    1
    19    14    13    1
    20    14    15    2
    21    13    12    1
    22    10    16    1
    23    26    23   am
    24    16    17    1
    25    23    25    2
    26    23    24    1
