@<TRIPOS>MOLECULE
3ti5_ZMR_A_1.pdb
 23 23 0 0 0
SMALL
GASTEIGER

@<TRIPOS>ATOM
      1  C1        29.0240   12.4410  -24.0780 C.2   1002  ZMR1002     0.4085
      2  O1A       27.8730   12.3690  -24.3830 O.co2 1002  ZMR1002    -0.2412
      3  O1B       30.0650   12.1270  -24.8870 O.co2 1002  ZMR1002    -0.2412
      4  C2        29.4050   13.2860  -22.8880 C.3   1002  ZMR1002     0.2924
      5  C3        30.8790   13.7170  -22.6450 C.2   1002  ZMR1002     0.0668
      6  C4        31.1660   14.6100  -21.4310 C.2   1002  ZMR1002     0.1768
      7  C5        30.0280   14.8170  -20.4450 C.2   1002  ZMR1002     0.1395
      8  N5        30.2020   15.6980  -19.3560 N.am  1002  ZMR1002    -0.1734
      9  C10       30.8210   15.4040  -18.1520 C.2   1002  ZMR1002     0.2462
     10  O10       31.1100   14.3280  -17.8420 O.2   1002  ZMR1002    -0.2730
     11  C11       30.9730   16.6000  -17.2400 C.3   1002  ZMR1002     0.0968
     12  C6        28.6070   14.6200  -20.9450 C.2   1002  ZMR1002     0.1680
     13  O6        28.3660   13.8060  -22.0820 O.2   1002  ZMR1002    -0.4633
     14  C7        27.4970   14.3380  -19.9630 C.3   1002  ZMR1002     0.2420
     15  O7        27.6230   13.0810  -19.5520 O.3   1002  ZMR1002    -0.2120
     16  C8        26.1260   14.6560  -20.5820 C.3   1002  ZMR1002     0.2223
     17  O8        26.0440   15.8100  -21.2620 O.3   1002  ZMR1002    -0.2171
     18  C9        25.0100   14.4560  -19.5970 C.3   1002  ZMR1002     0.2179
     19  O9        24.9810   15.3170  -18.6010 O.3   1002  ZMR1002    -0.2175
     20  NE        32.4530   14.4330  -20.9040 N.pl3 1002  ZMR1002    -0.0593
     21  CZ        33.3070   15.4480  -20.3950 C.cat 1002  ZMR1002     0.5393
     22  NH1       32.8510   16.6330  -20.3820 N.pl3 1002  ZMR1002     0.1358
     23  NH2       34.3720   15.0980  -19.7310 N.pl3 1002  ZMR1002     0.1358
@<TRIPOS>BOND
     1     3     1   ar
     2     2     1   ar
     3     1     4    1
     4     4     5    1
     5     4    13    1
     6     5     6    2
     7    13    12    1
     8     6    20    1
     9     6     7    1
    10    17    16    1
    11    12     7    2
    12    12    14    1
    13    20    21    2
    14    16    14    1
    15    16    18    1
    16     7     8    1
    17    21    22    1
    18    21    23    1
    19    14    15    1
    20    18    19    1
    21     8     9   am
    22     9    10    2
    23     9    11    1
