@<TRIPOS>MOLECULE
3ti6_G39_A_1.pdb
 20 20 0 0 0
SMALL
GASTEIGER

@<TRIPOS>ATOM
      1  C1       -28.8990   12.3580   24.4070 C.2   801  G39801      0.3644
      2  O1A      -29.7550   12.0040   25.1990 O.co2 801  G39801     -0.2457
      3  O1B      -27.5650   12.1950   24.6830 O.co2 801  G39801     -0.2457
      4  C2       -29.2740   13.1040   23.1830 C.3   801  G39801      0.1074
      5  C3       -30.7500   13.1290   22.6440 C.3   801  G39801      0.0322
      6  C4       -31.0140   14.2530   21.6620 C.3   801  G39801      0.1146
      7  C5       -30.0040   14.4900   20.5740 C.3   801  G39801      0.1398
      8  N5       -30.3110   15.5470   19.6230 N.am  801  G39801     -0.2032
      9  C10      -30.8280   15.2780   18.2920 C.2   801  G39801      0.2419
     10  O10      -30.9290   14.1280   17.8900 O.2   801  G39801     -0.2733
     11  C11      -31.1200   16.4540   17.3790 C.3   801  G39801      0.0964
     12  C6       -28.5320   14.2930   20.8980 C.3   801  G39801      0.1369
     13  C7       -28.1360   13.4220   22.1250 C.3   801  G39801      0.0427
     14  O7       -27.5770   14.3410   19.8470 O.3   801  G39801     -0.3569
     15  C8       -26.9160   15.5440   19.4870 C.3   801  G39801      0.1152
     16  C9       -25.9590   16.0650   20.5520 C.3   801  G39801      0.0296
     17  C81      -26.3140   15.4430   18.1010 C.3   801  G39801      0.0296
     18  C82      -27.1970   14.8830   17.0190 C.3   801  G39801      0.0026
     19  C91      -24.8040   15.2040   20.9520 C.3   801  G39801      0.0026
     20  N4       -32.3890   14.5390   21.3670 N.3   801  G39801     -0.1310
@<TRIPOS>BOND
     1    18    17    1
     2    11     9    1
     3    10     9    2
     4    17    15    1
     5     9     8   am
     6    15    14    1
     7    15    16    1
     8     8     7    1
     9    14    12    1
    10    16    19    1
    11     7    12    1
    12     7     6    1
    13    12    13    1
    14    20     6    1
    15     6     5    1
    16    13     4    1
    17     5     4    1
    18     4     1    1
    19     1     3   ar
    20     1     2   ar
