@<TRIPOS>MOLECULE
3ti8_LNV_A_1.pdb
 24 24 0 0 0
SMALL
GASTEIGER

@<TRIPOS>ATOM
      1  CAA       21.0230  -22.4130  -53.8270 C.3   901  LNV901      0.2924
      2  CAB       20.3500  -21.1210  -53.3690 C.2   901  LNV901      0.0668
      3  CAC       21.2170  -20.1380  -52.5740 C.2   901  LNV901      0.1768
      4  CAD       22.6590  -20.6070  -52.2260 C.2   901  LNV901      0.1394
      5  CAE       23.0120  -22.1040  -52.4560 C.2   901  LNV901      0.1647
      6  OAF       22.0870  -22.9530  -53.1080 O.2   901  LNV901     -0.4635
      7  CAG       20.2320  -23.4100  -54.6070 C.2   901  LNV901      0.4085
      8  OAH       18.9860  -23.0460  -55.0440 O.co2 901  LNV901     -0.2412
      9  OAI       20.5340  -24.5860  -54.4980 O.co2 901  LNV901     -0.2412
     10  CAJ       24.4430  -22.5050  -52.6270 C.3   901  LNV901      0.2055
     11  CAK       24.6500  -23.9580  -52.2490 C.3   901  LNV901      0.2190
     12  CAL       26.0920  -24.3940  -52.3760 C.3   901  LNV901      0.2178
     13  OAM       27.0140  -23.7160  -51.5580 O.3   901  LNV901     -0.2175
     14  OAW       24.8350  -22.1760  -53.9020 O.3   901  LNV901     -0.3432
     15  CAX       25.8990  -21.3040  -54.0700 C.3   901  LNV901      0.1747
     16  OAY       24.0700  -24.2820  -51.0350 O.3   901  LNV901     -0.2172
     17  NAZ       20.9880  -18.7400  -52.7820 N.pl3 901  LNV901     -0.0593
     18  CBA       21.0730  -17.7540  -51.7450 C.cat 901  LNV901      0.5393
     19  NBB       21.0770  -16.4930  -52.1190 N.pl3 901  LNV901      0.1358
     20  NBC       20.9930  -18.0970  -50.4590 N.pl3 901  LNV901      0.1358
     21  CBD       24.2190  -18.6990  -51.6250 C.2   901  LNV901      0.2462
     22  CBE       24.8620  -17.9790  -50.4810 C.3   901  LNV901      0.0968
     23  OBF       24.3660  -18.3370  -52.7880 O.2   901  LNV901     -0.2730
     24  NBG       23.4660  -19.8650  -51.3000 N.am  901  LNV901     -0.1734
@<TRIPOS>BOND
     1     8     7   ar
     2     7     9   ar
     3     7     1    1
     4    15    14    1
     5    14    10    1
     6     1     2    1
     7     1     6    1
     8     2     3    2
     9     6     5    1
    10    23    21    2
    11    17     3    1
    12    17    18    2
    13    10     5    1
    14    10    11    1
    15     3     4    1
    16     5     4    2
    17    12    11    1
    18    12    13    1
    19    11    16    1
    20     4    24    1
    21    19    18    1
    22    18    20    1
    23    21    24   am
    24    21    22    1
