@<TRIPOS>MOLECULE
3tia_MAN_A_1.pdb
 11 11 0 0 0
SMALL
GASTEIGER

@<TRIPOS>ATOM
      1  C1        62.1200    1.9110    3.5270 C.3   606  MAN606      0.1777
      2  C2        62.4210    0.5030    4.0340 C.3   606  MAN606      0.2141
      3  C3        61.6560    0.2210    5.3250 C.3   606  MAN606      0.2173
      4  C4        61.9270    1.3330    6.3270 C.3   606  MAN606      0.2142
      5  C5        61.6410    2.6830    5.6910 C.3   606  MAN606      0.1810
      6  C6        61.9370    3.8210    6.6620 C.3   606  MAN606      0.2141
      7  O2        63.8060    0.3700    4.2580 O.3   606  MAN606     -0.2176
      8  O3        62.0750   -1.0070    5.8830 O.3   606  MAN606     -0.2175
      9  O4        61.0940    1.1680    7.4500 O.3   606  MAN606     -0.2176
     10  O5        62.4390    2.8430    4.5380 O.3   606  MAN606     -0.3481
     11  O6        61.4520    5.0250    6.1070 O.3   606  MAN606     -0.2176
@<TRIPOS>BOND
     1     1     2    1
     2     1    10    1
     3     2     7    1
     4     2     3    1
     5    10     5    1
     6     3     8    1
     7     3     4    1
     8     5     4    1
     9     5     6    1
    10    11     6    1
    11     4     9    1
