@<TRIPOS>MOLECULE
3tia_LNV_A_1.pdb
 24 24 0 0 0
SMALL
GASTEIGER

@<TRIPOS>ATOM
      1  CAA       45.9820   28.4600   22.1320 C.2   801  LNV801      0.2172
      2  CAB       45.4350   27.0640   22.3060 C.2   801  LNV801      0.0619
      3  CAC       45.5370   26.0690   21.1460 C.3   801  LNV801      0.2297
      4  CAD       46.5390   26.4790   20.0440 C.3   801  LNV801      0.1815
      5  CAE       46.6910   28.0330   19.8570 C.3   801  LNV801      0.2192
      6  OAF       46.7590   28.7320   21.0600 O.2   801  LNV801     -0.4685
      7  CAG       45.9250   29.4930   23.2420 C.2   801  LNV801      0.4208
      8  OAH       45.1980   29.1880   24.2990 O.co2 801  LNV801     -0.2371
      9  OAI       46.3090   30.5710   22.9650 O.co2 801  LNV801     -0.2371
     10  CAJ       47.9320   28.4150   19.0310 C.3   801  LNV801      0.1897
     11  CAK       47.9020   29.8630   18.6880 C.3   801  LNV801      0.2153
     12  CAL       49.0970   30.3550   17.9340 C.3   801  LNV801      0.2174
     13  OAM       49.2700   29.7280   16.7390 O.3   801  LNV801     -0.2175
     14  OAW       49.0290   28.1790   19.7770 O.3   801  LNV801     -0.3471
     15  CAX       49.9620   27.3380   19.3710 C.3   801  LNV801      0.1743
     16  OAY       46.8070   30.2580   18.1040 O.3   801  LNV801     -0.2176
     17  NAZ       45.5420   24.6850   21.5230 N.pl3 801  LNV801     -0.0835
     18  CBA       44.9480   23.6490   20.7690 C.cat 801  LNV801      0.5348
     19  NBB       45.1460   22.4130   21.1240 N.pl3 801  LNV801      0.1354
     20  NBC       44.2680   23.9640   19.7100 N.pl3 801  LNV801      0.1354
     21  CBD       47.3260   24.6090   18.6610 C.2   801  LNV801      0.2420
     22  CBE       46.9880   23.9670   17.3560 C.3   801  LNV801      0.0964
     23  OBF       48.1420   24.2210   19.3800 O.2   801  LNV801     -0.2733
     24  NBG       46.5570   25.7380   18.8480 N.am  801  LNV801     -0.1994
@<TRIPOS>BOND
     1    13    12    1
     2    22    21    1
     3    12    11    1
     4    16    11    1
     5    21    24   am
     6    21    23    2
     7    11    10    1
     8    24     4    1
     9    10    14    1
    10    10     5    1
    11    15    14    1
    12    20    18    1
    13     5     4    1
    14     5     6    1
    15     4     3    1
    16    18    19    1
    17    18    17    2
    18     6     1    1
    19     3    17    1
    20     3     2    1
    21     1     2    2
    22     1     7    1
    23     9     7   ar
    24     7     8   ar
