@<TRIPOS>MOLECULE
3tia_BMA_A_1.pdb
 11 11 0 0 0
SMALL
GASTEIGER

@<TRIPOS>ATOM
      1  C1        58.8960    5.0940    2.1410 C.3   605  BMA605      0.1777
      2  C2        59.2010    3.8140    2.9010 C.3   605  BMA605      0.2141
      3  C3        60.5270    3.2330    2.4360 C.3   605  BMA605      0.2173
      4  C4        60.4780    3.0550    0.9200 C.3   605  BMA605      0.2142
      5  C5        60.0360    4.3410    0.2150 C.3   605  BMA605      0.1810
      6  C6        59.8600    4.0980   -1.2840 C.3   605  BMA605      0.2141
      7  O2        58.1740    2.8820    2.6310 O.3   605  BMA605     -0.2176
      8  O3        60.7500    1.9960    3.0880 O.3   605  BMA605     -0.2175
      9  O4        61.7590    2.6770    0.4550 O.3   605  BMA605     -0.2176
     10  O5        58.8170    4.8230    0.7560 O.3   605  BMA605     -0.3481
     11  O6        59.5760    5.3160   -1.9430 O.3   605  BMA605     -0.2176
@<TRIPOS>BOND
     1    11     6    1
     2     6     5    1
     3     5    10    1
     4     5     4    1
     5     9     4    1
     6    10     1    1
     7     4     3    1
     8     1     2    1
     9     3     2    1
    10     3     8    1
    11     7     2    1
