@<TRIPOS>MOLECULE
3tib_MAN_A_1.pdb
 11 11 0 0 0
SMALL
GASTEIGER

@<TRIPOS>ATOM
      1  C1        45.1370    4.6030  -17.4840 C.3   606  MAN606      0.1777
      2  C2        44.6650    6.0040  -17.8800 C.3   606  MAN606      0.2141
      3  C3        43.2320    6.2300  -17.4280 C.3   606  MAN606      0.2173
      4  C4        42.3680    5.1010  -17.9690 C.3   606  MAN606      0.2142
      5  C5        42.9370    3.7640  -17.5190 C.3   606  MAN606      0.1810
      6  C6        42.0990    2.6000  -18.0350 C.3   606  MAN606      0.2141
      7  O2        44.7530    6.1890  -19.2790 O.3   606  MAN606     -0.2176
      8  O3        42.7830    7.4520  -17.9630 O.3   606  MAN606     -0.2175
      9  O4        41.0470    5.2450  -17.5070 O.3   606  MAN606     -0.2176
     10  O5        44.2530    3.6370  -18.0080 O.3   606  MAN606     -0.3481
     11  O6        42.4630    1.4200  -17.3440 O.3   606  MAN606     -0.2176
@<TRIPOS>BOND
     1     7     2    1
     2     6     5    1
     3     6    11    1
     4    10     5    1
     5    10     1    1
     6     4     5    1
     7     4     9    1
     8     4     3    1
     9     8     3    1
    10     2     1    1
    11     2     3    1
