@<TRIPOS>MOLECULE
3tib_LVO_A_1.pdb
 26 26 0 0 0
SMALL
GASTEIGER

@<TRIPOS>ATOM
      1  CAA       23.4600  -21.9400   -5.6590 C.3   801  LVO801      0.2924
      2  CAB       23.3210  -20.7880   -4.7060 C.2   801  LVO801      0.0668
      3  CAC       24.4180  -19.6990   -4.7330 C.2   801  LVO801      0.1768
      4  CAD       25.7180  -20.0880   -5.5020 C.2   801  LVO801      0.1394
      5  CAE       25.8240  -21.5890   -5.9170 C.2   801  LVO801      0.1648
      6  OAF       24.7150  -22.4220   -5.7780 O.2   801  LVO801     -0.4635
      7  CAG       22.3700  -23.0020   -5.5840 C.2   801  LVO801      0.4085
      8  OAH       22.6160  -24.2790   -5.8490 O.co2 801  LVO801     -0.2412
      9  OAI       21.3210  -22.6910   -5.2320 O.co2 801  LVO801     -0.2412
     10  CAJ       26.9290  -21.9720   -6.8780 C.3   801  LVO801      0.2066
     11  CAK       27.5800  -23.3310   -6.6590 C.3   801  LVO801      0.2296
     12  CAL       28.7780  -23.6620   -7.5280 C.3   801  LVO801      0.2446
     13  OAM       29.7840  -22.7310   -7.6870 O.3   801  LVO801     -0.4381
     14  CAN       29.9420  -22.1040   -8.8250 C.2   801  LVO801      0.4182
     15  OAV       30.6350  -21.1080   -9.0180 O.2   801  LVO801     -0.2375
     16  OAW       26.6880  -21.6240   -8.1610 O.3   801  LVO801     -0.3432
     17  CAX       27.2210  -20.5590   -8.7770 C.3   801  LVO801      0.1747
     18  OAY       27.6930  -23.7260   -5.3940 O.3   801  LVO801     -0.2160
     19  NAZ       24.0510  -18.3550   -4.8070 N.pl3 801  LVO801     -0.0593
     20  CBA       24.7050  -17.2730   -4.1710 C.cat 801  LVO801      0.5393
     21  NBB       24.4170  -16.1020   -4.5260 N.pl3 801  LVO801      0.1358
     22  NBC       25.5330  -17.4420   -3.2180 N.pl3 801  LVO801      0.1358
     23  CBD       27.3380  -18.2670   -6.0480 C.2   801  LVO801      0.2462
     24  CBE       28.4660  -17.4480   -5.6010 C.3   801  LVO801      0.0968
     25  OBF       26.7740  -18.0070   -6.9930 O.2   801  LVO801     -0.2730
     26  NBG       26.9320  -19.3640   -5.3040 N.am  801  LVO801     -0.1734
@<TRIPOS>BOND
     1    15    14    2
     2    14    13    1
     3    17    16    1
     4    16    10    1
     5    13    12    1
     6    12    11    1
     7    25    23    2
     8    10    11    1
     9    10     5    1
    10    11    18    1
    11    23    24    1
    12    23    26   am
    13     5     6    1
    14     5     4    2
    15     8     7   ar
    16     6     1    1
    17     1     7    1
    18     1     2    1
    19     7     9   ar
    20     4    26    1
    21     4     3    1
    22    19     3    1
    23    19    20    2
    24     3     2    2
    25    21    20    1
    26    20    22    1
