@<TRIPOS>MOLECULE
3tib_BMA_A_1.pdb
 11 11 0 0 0
SMALL
GASTEIGER

@<TRIPOS>ATOM
      1  C1        45.7850    1.3380  -14.1050 C.3   605  BMA605      0.1777
      2  C2        45.0960    2.6100  -14.5870 C.3   605  BMA605      0.2141
      3  C3        45.8650    3.2470  -15.7330 C.3   605  BMA605      0.2173
      4  C4        47.3300    3.4090  -15.3420 C.3   605  BMA605      0.2142
      5  C5        47.8880    2.0950  -14.7950 C.3   605  BMA605      0.1810
      6  C6        49.3550    2.2420  -14.3850 C.3   605  BMA605      0.2141
      7  O2        45.0650    3.5300  -13.5180 O.3   605  BMA605     -0.2176
      8  O3        45.2780    4.4930  -16.0540 O.3   605  BMA605     -0.2175
      9  O4        48.0560    3.7840  -16.4890 O.3   605  BMA605     -0.2176
     10  O5        47.1000    1.6590  -13.7030 O.3   605  BMA605     -0.3481
     11  O6        50.0080    0.9830  -14.3850 O.3   605  BMA605     -0.2176
@<TRIPOS>BOND
     1     9     4    1
     2     8     3    1
     3     3     4    1
     4     3     2    1
     5     4     5    1
     6     5     6    1
     7     5    10    1
     8     2     1    1
     9     2     7    1
    10     6    11    1
    11     1    10    1
