@<TRIPOS>MOLECULE
3tic_BMA_A_1.pdb
 11 11 0 0 0
SMALL
GASTEIGER

@<TRIPOS>ATOM
      1  C1        -9.5110   -4.8720   58.2100 C.3   605  BMA605      0.1777
      2  C2        -8.8150   -3.6010   58.6780 C.3   605  BMA605      0.2141
      3  C3        -9.5660   -2.9770   59.8460 C.3   605  BMA605      0.2173
      4  C4       -11.0420   -2.8370   59.4930 C.3   605  BMA605      0.2142
      5  C5       -11.6090   -4.1510   58.9580 C.3   605  BMA605      0.1810
      6  C6       -13.0660   -3.9830   58.5400 C.3   605  BMA605      0.2141
      7  O2        -8.7810   -2.6870   57.6030 O.3   605  BMA605     -0.2176
      8  O3        -9.0020   -1.7180   60.1600 O.3   605  BMA605     -0.2175
      9  O4       -11.7530   -2.4680   60.6540 O.3   605  BMA605     -0.2176
     10  O5       -10.8470   -4.5910   57.8510 O.3   605  BMA605     -0.3481
     11  O6       -13.6610   -5.2520   58.3800 O.3   605  BMA605     -0.2176
@<TRIPOS>BOND
     1     7     2    1
     2    10     1    1
     3    10     5    1
     4     1     2    1
     5    11     6    1
     6     6     5    1
     7     2     3    1
     8     5     4    1
     9     4     3    1
    10     4     9    1
    11     3     8    1
