@<TRIPOS>MOLECULE
3tic_ZMR_A_1.pdb
 23 23 0 0 0
SMALL
GASTEIGER

@<TRIPOS>ATOM
      1  C1        13.8540  -29.1530   49.8070 C.2   1002  ZMR1002     0.4085
      2  O1A       13.6200  -30.2020   50.2090 O.co2 1002  ZMR1002    -0.2412
      3  O1B       15.0610  -28.7400   49.3930 O.co2 1002  ZMR1002    -0.2412
      4  C2        12.7930  -28.0930   49.9100 C.3   1002  ZMR1002     0.2924
      5  C3        13.0170  -26.7640   49.1270 C.2   1002  ZMR1002     0.0668
      6  C4        11.8780  -25.7830   49.1020 C.2   1002  ZMR1002     0.1768
      7  C5        10.6100  -26.2220   49.7770 C.2   1002  ZMR1002     0.1395
      8  N5         9.4490  -25.4420   49.6310 N.am  1002  ZMR1002    -0.1734
      9  C10        9.1020  -24.2530   50.2530 C.2   1002  ZMR1002     0.2462
     10  O10        9.6850  -23.7680   51.1120 O.2   1002  ZMR1002    -0.2730
     11  C11        7.8780  -23.6110   49.6690 C.3   1002  ZMR1002     0.0968
     12  C6        10.3910  -27.6860   50.1150 C.2   1002  ZMR1002     0.1680
     13  O6        11.4340  -28.5830   50.0200 O.2   1002  ZMR1002    -0.4633
     14  C7         9.3310  -28.1210   51.1180 C.3   1002  ZMR1002     0.2420
     15  O7         9.7350  -27.8390   52.3520 O.3   1002  ZMR1002    -0.2120
     16  C8         8.9220  -29.5600   50.9640 C.3   1002  ZMR1002     0.2223
     17  O8         8.7140  -29.9360   49.7230 O.3   1002  ZMR1002    -0.2171
     18  C9         7.8680  -29.9990   51.9340 C.3   1002  ZMR1002     0.2179
     19  O9         6.7540  -29.3200   51.8070 O.3   1002  ZMR1002    -0.2175
     20  NE        12.2010  -24.4090   49.0650 N.pl3 1002  ZMR1002    -0.0593
     21  CZ        11.5470  -23.4410   48.2690 C.cat 1002  ZMR1002     0.5393
     22  NH1       10.6250  -23.7260   47.3880 N.pl3 1002  ZMR1002     0.1358
     23  NH2       11.9530  -22.2250   48.4580 N.pl3 1002  ZMR1002     0.1358
@<TRIPOS>BOND
     1    22    21    1
     2    21    23    1
     3    21    20    2
     4    20     6    1
     5     6     5    2
     6     6     7    1
     7     5     4    1
     8     3     1   ar
     9     8     7    1
    10     8     9   am
    11    11     9    1
    12    17    16    1
    13     7    12    2
    14     1     4    1
    15     1     2   ar
    16     4    13    1
    17    13    12    1
    18    12    14    1
    19     9    10    2
    20    16    14    1
    21    16    18    1
    22    14    15    1
    23    19    18    1
