@<TRIPOS>MOLECULE
3tic_MAN_A_1.pdb
 11 11 0 0 0
SMALL
GASTEIGER

@<TRIPOS>ATOM
      1  C1        -8.8110   -1.6220   61.5830 C.3   606  MAN606      0.1777
      2  C2        -8.3490   -0.2180   61.9750 C.3   606  MAN606      0.2141
      3  C3        -6.9360    0.0400   61.4570 C.3   606  MAN606      0.2173
      4  C4        -6.0190   -1.0670   61.9500 C.3   606  MAN606      0.2142
      5  C5        -6.5870   -2.4140   61.5250 C.3   606  MAN606      0.1810
      6  C6        -5.7060   -3.5600   62.0070 C.3   606  MAN606      0.2141
      7  O2        -8.3800   -0.0920   63.3790 O.3   606  MAN606     -0.2176
      8  O3        -6.4360    1.2850   61.8920 O.3   606  MAN606     -0.2175
      9  O4        -4.7180   -0.8920   61.4300 O.3   606  MAN606     -0.2176
     10  O5        -7.8850   -2.5720   62.0620 O.3   606  MAN606     -0.3481
     11  O6        -6.1890   -4.7620   61.4460 O.3   606  MAN606     -0.2176
@<TRIPOS>BOND
     1     9     4    1
     2    11     6    1
     3     3     8    1
     4     3     4    1
     5     3     2    1
     6     5     4    1
     7     5     6    1
     8     5    10    1
     9     1     2    1
    10     1    10    1
    11     2     7    1
