@<TRIPOS>MOLECULE
3tif_ADP_A_1.pdb
 27 29 0 0 0
SMALL
GASTEIGER

@<TRIPOS>ATOM
      1  PB        30.6760    4.8350  -12.9890 P.3   236  ADP236      0.8585
      2  O1B       29.9120    5.3370  -14.1710 O.2   236  ADP236     -0.1694
      3  O2B       29.7150    4.1720  -12.0200 O.3   236  ADP236      0.3985
      4  O3B       31.3610    5.9480  -12.2680 O.3   236  ADP236     -0.0578
      5  PA        31.8660    3.5110  -14.9890 P.3   236  ADP236      0.2288
      6  O1A       31.5610    2.1790  -15.6540 O.3   236  ADP236     -0.4369
      7  O2A       32.6160    4.5780  -15.8650 O.2   236  ADP236     -0.5168
      8  O3A       31.7520    3.7610  -13.4400 O.3   236  ADP236     -0.1754
      9  O5'       33.2390    2.8070  -14.6770 O.3   236  ADP236     -0.3110
     10  C5'       33.3520    1.5620  -14.0700 C.3   236  ADP236      0.1813
     11  C4'       34.7310    0.9910  -13.7970 C.3   236  ADP236      0.1821
     12  O4'       35.3480    0.4240  -14.9360 O.3   236  ADP236     -0.3135
     13  C3'       35.6940    1.9810  -13.2020 C.3   236  ADP236      0.2184
     14  O3'       36.3230    1.5480  -12.0290 O.3   236  ADP236     -0.2174
     15  C2'       36.6790    2.2090  -14.2200 C.3   236  ADP236      0.2570
     16  O2'       37.9490    2.4900  -13.7070 O.3   236  ADP236     -0.2130
     17  C1'       36.6710    0.9710  -15.0570 C.3   236  ADP236      0.3186
     18  N9        36.9860    1.1890  -16.4590 N.pl3 236  ADP236     -0.1439
     19  C8        36.2600    1.9240  -17.3250 C.3   236  ADP236      0.3377
     20  N7        36.8500    1.8880  -18.5310 N.2   236  ADP236     -0.2095
     21  C5        37.9670    1.1200  -18.4150 C.2   236  ADP236      0.2526
     22  C6        38.9550    0.7380  -19.3270 C.2   236  ADP236      0.4393
     23  N6        38.8890    1.1700  -20.6670 N.pl3 236  ADP236      0.2180
     24  N1        39.9660   -0.0440  -18.9220 N.2   236  ADP236      0.0021
     25  C2        40.0270   -0.4630  -17.6430 C.3   236  ADP236      0.5254
     26  N3        39.0920   -0.1180  -16.7380 N.2   236  ADP236     -0.0055
     27  C4        38.0590    0.6740  -17.1050 C.2   236  ADP236      0.3518
@<TRIPOS>UNITY_ATOM_ATTR
3 1
charge 1
6 1
charge 1
@<TRIPOS>BOND
     1    23    22    1
     2    22    24    2
     3    22    21    1
     4    24    25    1
     5    20    21    2
     6    20    19    1
     7    21    27    1
     8    25    26    1
     9    19    18    1
    10    27    26    2
    11    27    18    1
    12    18    17    1
    13     7     5    2
    14     6     5    1
    15    17    12    1
    16    17    15    1
    17     5     9    1
    18     5     8    1
    19    12    11    1
    20     9    10    1
    21    15    16    1
    22    15    13    1
    23     2     1    2
    24    10    11    1
    25    11    13    1
    26     8     1    1
    27    13    14    1
    28     1     4    1
    29     1     3    1
