@<TRIPOS>MOLECULE
3tii_ANP_A_1.pdb
 31 33 0 0 0
SMALL
GASTEIGER

@<TRIPOS>ATOM
      1  PG        18.9820   -7.7550   -5.2740 P.3   700  ANP700      0.4884
      2  O1G       19.9030   -7.2970   -6.3860 O.2   700  ANP700     -0.2331
      3  O2G       19.5990   -8.8280   -4.4040 O.3   700  ANP700     -0.1240
      4  O3G       18.5730   -6.5790   -4.3810 O.3   700  ANP700     -0.1240
      5  PB        16.2120   -7.9890   -6.1180 P.3   700  ANP700      0.4669
      6  O1B       15.3800   -9.0660   -6.7370 O.2   700  ANP700     -0.2351
      7  O2B       15.7480   -7.7160   -4.7210 O.3   700  ANP700     -0.1253
      8  N3B       17.6200   -8.4150   -5.9750 N.3   700  ANP700     -0.0163
      9  PA        15.8680   -5.1830   -7.0990 P.3   700  ANP700      0.2220
     10  O1A       14.4580   -4.8340   -7.4210 O.2   700  ANP700     -0.5170
     11  O2A       16.3670   -4.6810   -5.7980 O.3   700  ANP700     -0.4370
     12  O3A       16.0830   -6.7680   -7.0970 O.3   700  ANP700     -0.2360
     13  O5'       16.7470   -4.6590   -8.3530 O.3   700  ANP700     -0.3111
     14  C5'       18.1730   -4.8480   -8.3350 C.3   700  ANP700      0.1813
     15  C4'       18.7590   -3.4370   -8.6670 C.3   700  ANP700      0.1821
     16  O4'       18.0870   -2.8960   -9.8120 O.3   700  ANP700     -0.3135
     17  C3'       18.5500   -2.3650   -7.5600 C.3   700  ANP700      0.2184
     18  O3'       19.5990   -2.3720   -6.5410 O.3   700  ANP700     -0.2174
     19  C2'       18.4540   -1.0590   -8.3580 C.3   700  ANP700      0.2570
     20  O2'       19.8740   -0.6310   -8.3990 O.3   700  ANP700     -0.2130
     21  C1'       18.0590   -1.4290   -9.7920 C.3   700  ANP700      0.3186
     22  N9        16.6700   -0.9920  -10.0970 N.pl3 700  ANP700     -0.1439
     23  C8        15.5020   -1.6380   -9.7240 C.3   700  ANP700      0.3377
     24  N7        14.4020   -1.0530  -10.1180 N.2   700  ANP700     -0.2095
     25  C5        14.8520    0.0570  -10.7940 C.2   700  ANP700      0.2526
     26  C6        14.1880    1.1130  -11.4750 C.2   700  ANP700      0.4393
     27  N6        12.8750    1.1950  -11.5540 N.pl3 700  ANP700      0.2180
     28  N1        14.9550    2.0800  -12.0550 N.2   700  ANP700      0.0021
     29  C2        16.2990    2.0040  -11.9770 C.3   700  ANP700      0.5254
     30  N3        17.0420    1.0560  -11.3650 N.2   700  ANP700     -0.0055
     31  C4        16.2480    0.1070  -10.7980 C.2   700  ANP700      0.3518
@<TRIPOS>BOND
     1    28    29    1
     2    28    26    2
     3    29    30    1
     4    27    26    1
     5    26    25    1
     6    30    31    2
     7    31    25    1
     8    31    22    1
     9    25    24    2
    10    24    23    1
    11    22    21    1
    12    22    23    1
    13    16    21    1
    14    16    15    1
    15    21    19    1
    16    15    14    1
    17    15    17    1
    18    20    19    1
    19    19    17    1
    20    13    14    1
    21    13     9    1
    22    17    18    1
    23    10     9    2
    24     9    12    1
    25     9    11    1
    26    12     5    1
    27     6     5    2
    28     2     1    2
    29     5     8    1
    30     5     7    1
    31     8     1    1
    32     1     3    1
    33     1     4    1
