@<TRIPOS>MOLECULE
3tij_DMU_A_1.pdb
 33 34 0 0 0
SMALL
GASTEIGER

@<TRIPOS>ATOM
      1  C1        63.5310   -6.7640  -16.4430 C.3   420  DMU420      0.2404
      2  C2        62.8250   -6.6990  -17.7390 C.3   420  DMU420      0.2167
      3  C3        61.7350   -7.6260  -17.7960 C.3   420  DMU420      0.1804
      4  C4        60.8230   -7.4740  -16.6380 C.3   420  DMU420      0.1803
      5  O5        61.5470   -7.3770  -15.3220 O.3   420  DMU420     -0.3257
      6  C6        62.5770   -6.4430  -15.3400 C.3   420  DMU420      0.2695
      7  O7        60.9070   -7.3900  -18.9880 O.3   420  DMU420     -0.3257
      8  O16       63.1930   -6.3950  -14.0870 O.3   420  DMU420     -0.3286
      9  C18       62.4220   -6.7940  -12.9510 C.3   420  DMU420      0.1452
     10  C19       62.5890   -6.0180  -11.6780 C.3   420  DMU420      0.0368
     11  C22       63.4700   -6.6160  -10.5970 C.3   420  DMU420      0.0283
     12  C25       63.2870   -6.1140   -9.1580 C.2   420  DMU420     -0.0303
     13  C28       63.7680   -7.0370   -8.0500 C.2   420  DMU420     -0.0260
     14  C31       63.8610   -6.4980   -6.6060 C.3   420  DMU420      0.0513
     15  C34       63.2110   -7.3410   -5.5350 C.2   420  DMU420     -0.0260
     16  C37       64.1110   -8.1030   -4.5230 C.2   420  DMU420     -0.0304
     17  C40       63.4250   -8.7080   -3.3420 C.3   420  DMU420      0.0257
     18  C43       62.9120  -10.1210   -3.4520 C.3   420  DMU420      0.0050
     19  O49       64.6280   -5.8670  -16.4600 O.3   420  DMU420     -0.2149
     20  O55       63.8000   -6.9210  -18.7970 O.3   420  DMU420     -0.2175
     21  C57       59.7970   -8.5270  -16.5900 C.3   420  DMU420      0.2141
     22  O61       60.1770   -9.8230  -16.8580 O.3   420  DMU420     -0.2176
     23  C5        60.9710   -6.9080  -21.2720 C.3   420  DMU420      0.2406
     24  C7        59.4940   -6.9870  -21.3210 C.3   420  DMU420      0.2198
     25  C8        59.0160   -8.2820  -21.5870 C.3   420  DMU420      0.2144
     26  C9        59.6330   -9.3560  -20.7530 C.3   420  DMU420      0.1835
     27  O1        61.0670   -9.1480  -20.3670 O.3   420  DMU420     -0.3256
     28  C10       61.4780   -7.8240  -20.1940 C.3   420  DMU420      0.2695
     29  O2        57.5810   -8.2620  -21.3310 O.3   420  DMU420     -0.2176
     30  O3        61.4900   -7.2150  -22.5340 O.3   420  DMU420     -0.2149
     31  O4        58.9830   -6.1260  -22.3720 O.3   420  DMU420     -0.2174
     32  C11       58.7540   -9.5760  -19.5910 C.3   420  DMU420      0.2142
     33  O6        57.4100   -9.4370  -19.8350 O.3   420  DMU420     -0.2176
@<TRIPOS>BOND
     1    30    23    1
     2    31    24    1
     3    25    29    1
     4    25    24    1
     5    25    26    1
     6    24    23    1
     7    23    28    1
     8    26    27    1
     9    26    32    1
    10    27    28    1
    11    28     7    1
    12    33    32    1
    13     7     3    1
    14    20     2    1
    15     3     2    1
    16     3     4    1
    17     2     1    1
    18    22    21    1
    19     4    21    1
    20     4     5    1
    21    19     1    1
    22     1     6    1
    23     6     5    1
    24     6     8    1
    25     8     9    1
    26     9    10    1
    27    10    11    1
    28    11    12    1
    29    12    13    2
    30    13    14    1
    31    14    15    1
    32    15    16    2
    33    16    17    1
    34    18    17    1
