@<TRIPOS>MOLECULE
3tij_URI_A_1.pdb
 17 18 0 0 0
SMALL
GASTEIGER

@<TRIPOS>ATOM
      1  N1        51.1950  -20.2190   -8.9980 N.am  419  URI419     -0.1766
      2  C2        50.5430  -20.5290  -10.1830 C.1   419  URI419      0.2845
      3  N3        49.4780  -21.3970  -10.0730 N.2   419  URI419     -0.2452
      4  C4        49.0150  -21.9780   -8.9050 C.1   419  URI419      0.2182
      5  C5        49.7350  -21.6210   -7.7160 C.2   419  URI419      0.1242
      6  C6        50.7840  -20.7790   -7.8000 C.2   419  URI419      0.0929
      7  O2        50.8670  -20.0630  -11.2600 O.2   419  URI419     -0.1918
      8  O4        48.0500  -22.7390   -8.9680 O.2   419  URI419     -0.2085
      9  C1'       52.3570  -19.2950   -9.1080 C.3   419  URI419      0.2401
     10  C2'       51.9260  -17.8320   -9.2570 C.3   419  URI419      0.2319
     11  C3'       51.9760  -17.3530   -7.8090 C.3   419  URI419      0.2159
     12  C4'       53.1780  -18.1180   -7.2500 C.3   419  URI419      0.1829
     13  O2'       52.8990  -17.1520  -10.0410 O.3   419  URI419     -0.2157
     14  O3'       52.0980  -15.9480   -7.6790 O.3   419  URI419     -0.2175
     15  O4'       53.1390  -19.3960   -7.9300 O.3   419  URI419     -0.3318
     16  C5'       53.1870  -18.3270   -5.7520 C.3   419  URI419      0.2142
     17  O5'       51.9130  -18.7410   -5.2710 O.3   419  URI419     -0.2176
@<TRIPOS>BOND
     1     7     2    2
     2     2     3    2
     3     2     1   am
     4     3     4    2
     5    13    10    1
     6    10     9    1
     7    10    11    1
     8     9     1    1
     9     9    15    1
    10     1     6    1
    11     8     4    2
    12     4     5    1
    13    15    12    1
    14    11    14    1
    15    11    12    1
    16     6     5    2
    17    12    16    1
    18    16    17    1
