@<TRIPOS>MOLECULE
3tik_HEM_A_1.pdb
 43 50 0 0 0
SMALL
GASTEIGER

@<TRIPOS>ATOM
      1  CHA      -20.7660  -11.6620   17.7220 C.2   482  HEM482      0.0000
      2  CHB      -24.8470   -9.1670   18.5830 C.2   482  HEM482      0.0000
      3  CHC      -23.3740   -8.2630   23.0930 C.2   482  HEM482      0.0000
      4  CHD      -19.0860  -10.1470   22.0270 C.2   482  HEM482      0.0000
      5  C1A      -22.0030  -11.0780   17.5810 C.ar  482  HEM482      0.0000
      6  C2A      -22.8380  -11.1990   16.4120 C.ar  482  HEM482      0.0000
      7  C3A      -23.9800  -10.5240   16.6510 C.ar  482  HEM482      0.0000
      8  C4A      -23.8910   -9.9540   17.9830 C.ar  482  HEM482      0.0000
      9  CMA      -25.1870  -10.3570   15.6970 C.3   482  HEM482      0.0000
     10  CAA      -22.4520  -12.0150   15.1470 C.3   482  HEM482      0.0000
     11  CBA      -21.5010  -11.1950   14.2700 C.3   482  HEM482      0.0000
     12  CGA      -21.2740  -11.8430   12.9240 C.2   482  HEM482      0.0000
     13  O1A      -21.8780  -12.9130   12.6080 O.co2 482  HEM482      0.0000
     14  O2A      -20.4870  -11.2450   12.1460 O.co2 482  HEM482      0.0000
     15  C1B      -24.8270   -8.7540   19.8880 C.2   482  HEM482      0.0000
     16  C2B      -25.9370   -8.1500   20.6130 C.2   482  HEM482      0.0000
     17  C3B      -25.5060   -7.9260   21.8580 C.2   482  HEM482      0.0000
     18  C4B      -24.1290   -8.3590   21.9520 C.2   482  HEM482      0.0000
     19  CMB      -27.3460   -7.8340   20.0450 C.3   482  HEM482      0.0000
     20  CAB      -26.2680   -7.2880   23.0320 C.2   482  HEM482      0.0000
     21  CBB      -27.6080   -7.2030   23.0160 C.2   482  HEM482      0.0000
     22  C1C      -22.0710   -8.6630   23.2020 C.ar  482  HEM482      0.0000
     23  C2C      -21.2070   -8.4940   24.3630 C.ar  482  HEM482      0.0000
     24  C3C      -20.0330   -9.0260   24.0350 C.ar  482  HEM482      0.0000
     25  C4C      -20.1210   -9.5480   22.6890 C.ar  482  HEM482      0.0000
     26  CMC      -21.5800   -7.8430   25.7360 C.3   482  HEM482      0.0000
     27  CAC      -18.7550   -9.1240   24.9020 C.2   482  HEM482      0.0000
     28  CBC      -18.5530   -8.2930   25.9330 C.2   482  HEM482      0.0000
     29  C1D      -19.1290  -10.7020   20.7780 C.2   482  HEM482      0.0000
     30  C2D      -18.0030  -11.3380   20.1400 C.2   482  HEM482      0.0000
     31  C3D      -18.5250  -11.8260   18.8020 C.2   482  HEM482      0.0000
     32  C4D      -19.9170  -11.4400   18.7700 C.2   482  HEM482      0.0000
     33  CMD      -16.5570  -11.4890   20.6740 C.3   482  HEM482      0.0000
     34  CAD      -17.7160  -12.5650   17.7160 C.3   482  HEM482      0.0000
     35  CBD      -17.6240  -14.0380   18.1020 C.3   482  HEM482      0.0000
     36  CGD      -16.8040  -14.7710   17.0680 C.2   482  HEM482      0.0000
     37  O1D      -16.6180  -15.9990   17.2450 O.co2 482  HEM482      0.0000
     38  O2D      -16.3240  -14.1300   16.0870 O.co2 482  HEM482      0.0000
     39  NA       -22.6720  -10.3210   18.5270 N.ar  482  HEM482      0.0000
     40  NB       -23.7390   -8.8660   20.7310 N.2   482  HEM482      0.0000
     41  NC       -21.3820   -9.3150   22.1970 N.ar  482  HEM482      0.0000
     42  ND       -20.2490  -10.7950   19.9600 N.2   482  HEM482      0.0000
     43 FE        -22.0220   -9.8420   20.3500 Fe    482  HEM482      0.0000
@<TRIPOS>BOND
     1    14    12   ar
     2    13    12   ar
     3    12    11    1
     4    11    10    1
     5    10     6    1
     6     9     7    1
     7    38    36   ar
     8     6     7   ar
     9     6     5   ar
    10     7     8   ar
    11    36    37   ar
    12    36    35    1
    13     5     1    2
    14     5    39   ar
    15    34    35    1
    16    34    31    1
    17     1    32    1
    18     8    39   ar
    19     8     2    2
    20    39    43    1
    21     2    15    1
    22    32    31    1
    23    32    42    2
    24    31    30    2
    25    15    16    1
    26    15    40    2
    27    42    43    1
    28    42    29    1
    29    19    16    1
    30    30    33    1
    31    30    29    1
    32    43    40    1
    33    43    41    1
    34    16    17    2
    35    40    18    1
    36    29     4    2
    37    17    18    1
    38    17    20    1
    39    18     3    2
    40     4    25    1
    41    41    25   ar
    42    41    22   ar
    43    25    24   ar
    44    21    20    2
    45     3    22    1
    46    22    23   ar
    47    24    23   ar
    48    24    27    1
    49    23    26    1
    50    27    28    2
