@<TRIPOS>MOLECULE
3tik_JKF_A_1.pdb
 36 40 0 0 0
SMALL
GASTEIGER

@<TRIPOS>ATOM
      1  CAA      -17.1690   -4.4550   17.8590 C.3   490  JKF490      0.1753
      2  CAB      -21.5520   -4.8090   18.3480 C.3   490  JKF490      0.1318
      3  CAC      -21.4170   -5.8370   11.7170 C.3   490  JKF490      0.1335
      4  OAD      -21.3340   -3.2250   11.1510 O.2   490  JKF490     -0.2670
      5  FAE      -21.2160   -2.2370   16.5890 F     490  JKF490     -0.2041
      6  FAF      -17.5690   -1.3280   13.7970 F     490  JKF490     -0.2041
      7 CLAG      -14.2380   -9.9590   17.5510 Cl    490  JKF490     -0.0822
      8  CAH      -18.5050    0.2120   16.8430 C.ar  490  JKF490      0.0046
      9  CAI      -19.6490   -0.5140   17.1410 C.ar  490  JKF490      0.0298
     10  CAJ      -17.7930   -0.0750   15.6870 C.ar  490  JKF490      0.0298
     11  CAK      -16.0290   -8.3080   18.6940 C.ar  490  JKF490      0.0112
     12  CAL      -16.1960   -8.5290   16.2970 C.ar  490  JKF490      0.0112
     13  CAM      -17.1020   -7.4410   18.6720 C.ar  490  JKF490     -0.0005
     14  CAN      -17.2700   -7.6490   16.2730 C.ar  490  JKF490     -0.0005
     15  CAO      -19.8480   -6.8760   15.4690 C.ar  490  JKF490      0.0001
     16  CAP      -19.9990   -8.0890   18.7890 C.ar  490  JKF490      0.1163
     17  CAQ      -20.3540   -6.4900   14.2360 C.ar  490  JKF490      0.0170
     18  CAR      -21.8480   -7.0670   19.3370 C.ar  490  JKF490      0.1784
     19  CAS      -20.3680   -2.5040   13.0590 C.ar  490  JKF490      0.0609
     20  CAT      -19.3150   -4.5610   15.9070 C.ar  490  JKF490      0.0001
     21  NAU      -21.1700   -8.2170   19.4310 N.ar  490  JKF490     -0.2226
     22  OAV      -18.4310   -5.0190   18.2310 O.3   490  JKF490     -0.3422
     23  CAW      -15.5800   -8.8560   17.5060 C.ar  490  JKF490      0.0577
     24  CAX      -20.0750   -1.5200   16.2810 C.ar  490  JKF490      0.1422
     25  CAY      -18.2210   -1.0820   14.8310 C.ar  490  JKF490      0.1422
     26  CAZ      -17.7280   -7.1010   17.4750 C.ar  490  JKF490      0.0112
     27  CBA      -19.3000   -5.9010   16.2860 C.ar  490  JKF490      0.0113
     28  CBB      -19.8280   -2.8310   14.2890 C.ar  490  JKF490      0.0105
     29  CBC      -19.3580   -1.8200   15.1250 C.ar  490  JKF490      0.0551
     30  CBD      -19.9750   -6.8480   18.3160 C.ar  490  JKF490      0.0901
     31  CBE      -20.8690   -3.5150   12.2470 C.ar  490  JKF490      0.2610
     32  CBF      -19.8350   -4.1760   14.6820 C.ar  490  JKF490      0.0160
     33  CBG      -20.3530   -5.1530   13.8360 C.ar  490  JKF490      0.0625
     34  NBH      -21.1060   -6.2090   18.6460 N.ar  490  JKF490     -0.3080
     35  NBI      -20.8600   -4.8040   12.6360 N.ar  490  JKF490     -0.2935
     36  CBJ      -18.8120   -6.2250   17.5300 C.3   490  JKF490      0.1647
@<TRIPOS>BOND
     1     4    31    2
     2     3    35    1
     3    31    35   ar
     4    31    19   ar
     5    35    33   ar
     6    19    28   ar
     7     6    25    1
     8    33    17   ar
     9    33    32   ar
    10    17    15   ar
    11    28    32   ar
    12    28    29    1
    13    32    20   ar
    14    25    29   ar
    15    25    10   ar
    16    29    24   ar
    17    15    27   ar
    18    10     8   ar
    19    20    27   ar
    20    14    12   ar
    21    14    26   ar
    22    24     5    1
    23    24     9   ar
    24    27    36    1
    25    12    23   ar
    26     8     9   ar
    27    26    36    1
    28    26    13   ar
    29    23     7    1
    30    23    11   ar
    31    36    22    1
    32    36    30    1
    33     1    22    1
    34    30    34   ar
    35    30    16   ar
    36     2    34    1
    37    34    18   ar
    38    13    11   ar
    39    16    21   ar
    40    18    21   ar
