@<TRIPOS>MOLECULE
3tin_ADP_A_1.pdb
 27 29 0 0 0
SMALL
GASTEIGER

@<TRIPOS>ATOM
      1  PB        22.6410    8.0220   17.4920 P.3   702  ADP702      0.5373
      2  O1B       22.9230    7.5840   16.1030 O.2   702  ADP702     -0.2221
      3  O2B       21.9030    9.4550   17.4620 O.3   702  ADP702     -0.1143
      4  O3B       24.0140    8.1590   18.3220 O.3   702  ADP702     -0.1143
      5  PA        22.3920    5.4980   18.2570 P.3   702  ADP702      0.2231
      6  O1A       22.6540    5.0180   16.8680 O.2   702  ADP702     -0.5169
      7  O2A       23.7810    5.5980   19.0690 O.3   702  ADP702     -0.4370
      8  O3A       21.6680    6.9460   18.2150 O.3   702  ADP702     -0.2261
      9  O5'       21.3980    4.4610   19.0000 O.3   702  ADP702     -0.3111
     10  C5'       22.0480    3.1850   19.0590 C.3   702  ADP702      0.1813
     11  C4'       21.1350    2.1790   19.7670 C.3   702  ADP702      0.1821
     12  O4'       19.8900    2.0330   19.0250 O.3   702  ADP702     -0.3135
     13  C3'       21.8170    0.7990   19.8570 C.3   702  ADP702      0.2184
     14  O3'       22.1920    0.4970   21.2060 O.3   702  ADP702     -0.2174
     15  C2'       20.8080   -0.2140   19.2980 C.3   702  ADP702      0.2570
     16  O2'       20.4840   -1.2240   20.2660 O.3   702  ADP702     -0.2130
     17  C1'       19.5660    0.6170   18.8750 C.3   702  ADP702      0.3186
     18  N9        19.2240    0.3200   17.4650 N.pl3 702  ADP702     -0.1439
     19  C8        19.6760    0.9830   16.3540 C.3   702  ADP702      0.3377
     20  N7        19.1780    0.4540   15.2750 N.2   702  ADP702     -0.2095
     21  C5        18.3770   -0.5780   15.6140 C.2   702  ADP702      0.2526
     22  C6        17.5820   -1.5120   14.8990 C.2   702  ADP702      0.4393
     23  N6        17.5190   -1.4770   13.5160 N.pl3 702  ADP702      0.2180
     24  N1        16.8900   -2.4370   15.5920 N.2   702  ADP702      0.0021
     25  C2        16.9370   -2.4950   16.9250 C.3   702  ADP702      0.5254
     26  N3        17.6700   -1.6410   17.6340 N.2   702  ADP702     -0.0055
     27  C4        18.3950   -0.6800   17.0290 C.2   702  ADP702      0.3518
@<TRIPOS>BOND
     1    23    22    1
     2    22    24    2
     3    22    21    1
     4    20    21    2
     5    20    19    1
     6    24    25    1
     7    21    27    1
     8     2     1    2
     9    19    18    1
    10     6     5    2
    11    25    26    1
    12    27    18    1
    13    27    26    2
    14     3     1    1
    15    18    17    1
    16     1     8    1
    17     1     4    1
    18     8     5    1
    19     5     9    1
    20     5     7    1
    21    17    12    1
    22    17    15    1
    23     9    10    1
    24    12    11    1
    25    10    11    1
    26    15    13    1
    27    15    16    1
    28    11    13    1
    29    13    14    1
