@<TRIPOS>MOLECULE
3tit_G81_A_1.pdb
 34 35 0 0 0
SMALL
GASTEIGER

@<TRIPOS>ATOM
      1  O35       15.9920    1.9740   22.3410 O.2   307  G81307     -0.2246
      2  C31       17.2040    1.9480   22.5580 C.2   307  G81307      0.4213
      3  O1        17.9240    3.1520   23.0460 O.3   307  G81307     -0.4408
      4  C1        17.5740    4.0070   24.1610 C.3   307  G81307      0.1379
      5  C2        16.9620    5.2990   23.6040 C.3   307  G81307      0.0437
      6  C4        18.8720    4.3500   24.9040 C.3   307  G81307      0.0437
      7  C6        16.5770    3.3650   25.1340 C.3   307  G81307      0.0437
      8  N33       17.8990    0.8220   22.3270 N.am  307  G81307     -0.1607
      9  C37       17.2030   -0.3840   21.8720 C.3   307  G81307      0.1804
     10  C41       18.2760   -1.3110   21.3080 C.3   307  G81307      0.0575
     11  C51       18.8140   -0.5990   20.0870 C.ar  307  G81307     -0.0200
     12  C53       19.9530    0.2110   20.1900 C.ar  307  G81307     -0.0042
     13  C7        20.4450    0.8800   19.0710 C.ar  307  G81307     -0.0003
     14  C9        19.7790    0.7470   17.8520 C.ar  307  G81307     -0.0000
     15  C11       18.6360   -0.0550   17.7370 C.ar  307  G81307     -0.0003
     16  C55       18.1510   -0.7280   18.8610 C.ar  307  G81307     -0.0042
     17  C39       16.4980   -0.9500   23.0680 C.2   307  G81307      0.2616
     18  O47       17.0470   -0.8680   24.1640 O.2   307  G81307     -0.2715
     19  N49       15.2780   -1.4750   22.8910 N.am  307  G81307     -0.2057
     20  C57       14.5790   -2.0170   24.0690 C.3   307  G81307      0.0970
     21  C59       13.2560   -1.2560   24.2830 C.3   307  G81307      0.0383
     22  C61       13.4860    0.2240   24.5600 C.3   307  G81307      0.1100
     23  C73       14.0830    0.4950   25.9590 C.3   307  G81307      0.0438
     24  C71       13.3370    1.6870   26.5790 C.3   307  G81307      0.1387
     25  N69       12.1870    1.7170   25.6990 N.2   307  G81307     -0.2063
     26  C65       12.2240    1.0210   24.5710 C.1   307  G81307      0.1250
     27  O66       11.4170    1.0820   23.6410 O.2   307  G81307     -0.2271
     28  C63       14.4370   -3.5270   23.8630 C.3   307  G81307      0.0333
     29  C82       15.7100   -4.2230   24.3960 C.3   307  G81307      0.1113
     30  C84       16.2200   -3.7370   25.7740 C.2   307  G81307      0.3170
     31  O88       15.4500   -3.4280   26.6700 O.2   307  G81307     -0.2501
     32  O86       17.6600   -3.6380   26.0860 O.3   307  G81307     -0.4485
     33  C3        18.1570   -3.2170   27.3750 C.3   307  G81307      0.2086
     34  C5        19.2020   -4.1840   27.8980 C.3   307  G81307      0.0513
@<TRIPOS>BOND
     1    15    14   ar
     2    15    16   ar
     3    14    13   ar
     4    16    11   ar
     5    13    12   ar
     6    11    12   ar
     7    11    10    1
     8    10     9    1
     9     9     8    1
    10     9    17    1
    11     8     2   am
    12     1     2    2
    13     2     3    1
    14    19    17   am
    15    19    20    1
    16     3     4    1
    17    17    18    2
    18     5     4    1
    19    27    26    2
    20    28    20    1
    21    28    29    1
    22    20    21    1
    23     4     6    1
    24     4     7    1
    25    21    22    1
    26    29    30    1
    27    22    26    1
    28    22    23    1
    29    26    25    2
    30    25    24    1
    31    30    32    1
    32    30    31    2
    33    23    24    1
    34    32    33    1
    35    33    34    1
