@<TRIPOS>MOLECULE
3tiu_G82_A_1.pdb
 50 52 0 0 0
SMALL
GASTEIGER

@<TRIPOS>ATOM
      1  O88      -20.6130   17.8670    0.3800 O.2   501  G82501     -0.2501
      2  C84      -21.7550   17.9830    0.7850 C.2   501  G82501      0.3170
      3  O86      -22.7980   17.0770    0.2700 O.3   501  G82501     -0.4485
      4  C3       -24.1250   17.5750    0.0200 C.3   501  G82501      0.2086
      5  C5       -24.9140   17.7850    1.3100 C.3   501  G82501      0.0513
      6  C82      -22.0410   19.0520    1.8210 C.3   501  G82501      0.1113
      7  C63      -20.8550   20.0090    1.9210 C.3   501  G82501      0.0334
      8  C57      -21.2760   21.4770    1.7990 C.3   501  G82501      0.0973
      9  C59      -20.0250   22.3240    1.6010 C.3   501  G82501      0.0427
     10  C61      -20.2740   23.8120    1.5160 C.3   501  G82501      0.1317
     11  C73      -21.0730   24.2660    0.2820 C.2   501  G82501      0.0116
     12  C71      -20.1460   25.1080   -0.6110 C.2   501  G82501      0.1073
     13  N69      -18.8910   25.0100    0.1330 N.2   501  G82501     -0.1785
     14  C65      -18.9350   24.4260    1.3230 C.1   501  G82501      0.1336
     15  O66      -18.0740   24.3960    2.1800 O.2   501  G82501     -0.2264
     16  N49      -21.9680   21.7940    3.0640 N.am  501  G82501     -0.2057
     17  C39      -23.2640   22.1200    2.9850 C.2   501  G82501      0.2615
     18  O47      -23.8450   22.1930    1.8970 O.2   501  G82501     -0.2715
     19  C37      -24.0220   22.4050    4.2520 C.3   501  G82501      0.1771
     20  C41      -25.1650   21.3850    4.2300 C.3   501  G82501      0.0574
     21  C51      -25.9740   21.1910    5.4980 C.ar  501  G82501     -0.0200
     22  C55      -25.6120   21.7690    6.7160 C.ar  501  G82501     -0.0042
     23  C11      -26.4160   21.5330    7.8300 C.ar  501  G82501     -0.0003
     24  C9       -27.5700   20.7400    7.7420 C.ar  501  G82501     -0.0000
     25  C7       -27.9400   20.1540    6.5390 C.ar  501  G82501     -0.0003
     26  C53      -27.1310   20.3890    5.4220 C.ar  501  G82501     -0.0042
     27  N33      -24.6320   23.7240    4.1460 N.am  501  G82501     -0.1960
     28  C31      -23.9190   24.8550    4.0050 C.2   501  G82501      0.2617
     29  O35      -22.6990   24.8980    3.9510 O.2   501  G82501     -0.2715
     30  C23      -24.7270   26.1210    3.8620 C.3   501  G82501      0.1767
     31  C25      -24.4940   26.6730    2.4410 C.3   501  G82501      0.0429
     32  C15      -25.1230   28.0460    2.1960 C.3   501  G82501      0.1118
     33  C14      -24.1300   28.9700    1.5080 C.2   501  G82501      0.3168
     34  O2       -23.9160   28.8510    0.0550 O.3   501  G82501     -0.4557
     35  C29      -24.5800   29.6300   -0.9640 C.3   501  G82501      0.1363
     36  C45      -26.0740   29.7950   -0.6780 C.3   501  G82501      0.0437
     37  C43      -24.4150   28.8860   -2.2910 C.3   501  G82501      0.0437
     38  C12      -23.9250   31.0090   -1.0630 C.3   501  G82501      0.0437
     39  O1       -23.5000   29.8080    2.1600 O.2   501  G82501     -0.2501
     40  N21      -24.3950   27.2060    4.7860 N.am  501  G82501     -0.1611
     41  C17      -25.1830   27.5860    5.7970 C.2   501  G82501      0.4218
     42  O19      -26.2440   27.0270    6.0590 O.2   501  G82501     -0.2245
     43  O15      -24.7490   28.7120    6.6270 O.3   501  G82501     -0.4285
     44  C13      -25.6370   29.3890    7.5260 C.3   501  G82501      0.2368
     45  C4       -26.5200   30.3950    6.8070 C.ar  501  G82501      0.0213
     46  C2       -27.4960   29.9690    5.8890 C.ar  501  G82501     -0.0007
     47  C1       -28.3080   30.9090    5.2410 C.ar  501  G82501     -0.0002
     48  C10      -28.1490   32.2760    5.5120 C.ar  501  G82501     -0.0000
     49  C8       -27.1860   32.7030    6.4330 C.ar  501  G82501     -0.0002
     50  C6       -26.3750   31.7620    7.0830 C.ar  501  G82501     -0.0007
@<TRIPOS>BOND
     1    37    35    1
     2    38    35    1
     3    35    36    1
     4    35    34    1
     5    12    13    1
     6    12    11    2
     7     4     3    1
     8     4     5    1
     9    34    33    1
    10    13    14    2
    11     3     2    1
    12    11    10    1
    13     1     2    2
    14     2     6    1
    15    14    10    1
    16    14    15    2
    17    33    39    2
    18    33    32    1
    19    10     9    1
    20     9     8    1
    21     8     7    1
    22     8    16    1
    23     6     7    1
    24    18    17    2
    25    32    31    1
    26    31    30    1
    27    17    16   am
    28    17    19    1
    29    30    28    1
    30    30    40    1
    31    29    28    2
    32    28    27   am
    33    27    19    1
    34    20    19    1
    35    20    21    1
    36    40    41   am
    37    47    48   ar
    38    47    46   ar
    39    26    21   ar
    40    26    25   ar
    41    21    22   ar
    42    48    49   ar
    43    41    42    2
    44    41    43    1
    45    46    45   ar
    46    49    50   ar
    47    25    24   ar
    48    43    44    1
    49    22    23   ar
    50    45    50   ar
    51    45    44    1
    52    24    23   ar
