@<TRIPOS>MOLECULE
3tiv_AES_B_1.pdb
 13 13 0 0 0
SMALL
GASTEIGER

@<TRIPOS>ATOM
      1  C3       -43.4420  -23.4580   -8.8660 C.ar  1474  AES1474    -0.0028
      2  C2       -43.9260  -22.8070   -9.9980 C.ar  1474  AES1474     0.0208
      3  C1       -45.1120  -22.0710   -9.9320 C.ar  1474  AES1474     0.1382
      4  S        -45.6880  -21.3000  -11.2180 S.O2  1474  AES1474     0.1484
      5  F        -44.7220  -21.4130  -12.3960 F     1474  AES1474    -0.0562
      6  O1S      -46.9770  -21.8210  -11.5850 O.2   1474  AES1474    -0.1378
      7  O2S      -45.9230  -19.9150  -10.8870 O.2   1474  AES1474    -0.1378
      8  C6       -45.8180  -21.9980   -8.7330 C.ar  1474  AES1474     0.0208
      9  C5       -45.3400  -22.6520   -7.6000 C.ar  1474  AES1474    -0.0028
     10  C4       -44.1480  -23.3750   -7.6640 C.ar  1474  AES1474    -0.0206
     11  C7       -43.6150  -24.0880   -6.4410 C.3   1474  AES1474     0.0468
     12  C8       -44.6450  -24.1170   -5.3130 C.3   1474  AES1474     0.1140
     13  N8       -44.9900  -25.4920   -4.9980 N.3   1474  AES1474    -0.1310
@<TRIPOS>BOND
     1     5     4    1
     2     6     4    2
     3     4     7    2
     4     4     3    1
     5     2     3   ar
     6     2     1   ar
     7     3     8   ar
     8     1    10   ar
     9     8     9   ar
    10    10     9   ar
    11    10    11    1
    12    11    12    1
    13    12    13    1
