@<TRIPOS>MOLECULE
3tiy_TIY_A_1.pdb
 16 17 0 0 0
SMALL
GASTEIGER

@<TRIPOS>ATOM
      1  C13      -94.7320    9.7670  -48.7200 C.ar  311  TIY311      0.2375
      2  C15      -94.3220    9.7630  -50.0630 C.ar  311  TIY311      0.2728
      3  O01      -92.9950    9.0730  -51.7710 O.3   311  TIY311     -0.2829
      4  C02      -93.2570    8.9500  -50.4510 C.ar  311  TIY311      0.2406
      5  C03      -92.5410    8.0890  -49.5430 C.ar  311  TIY311      0.0846
      6  C04      -92.9790    8.0980  -48.1710 C.ar  311  TIY311      0.0097
      7  C05      -92.4450    7.3580  -47.0830 C.ar  311  TIY311      0.0004
      8  C06      -91.3970    6.4360  -47.0280 C.ar  311  TIY311      0.0034
      9  C07      -90.5760    6.0130  -48.0620 C.ar  311  TIY311      0.0454
     10  C08      -90.6010    6.3890  -49.4070 C.ar  311  TIY311      0.2344
     11  C09      -91.4650    7.3040  -50.0650 C.ar  311  TIY311      0.2374
     12  O10      -91.2030    7.4000  -51.3000 O.2   311  TIY311     -0.2830
     13  O11      -89.6330    5.7440  -50.1270 O.3   311  TIY311     -0.2831
     14  C12      -94.0680    8.9460  -47.8000 C.ar  311  TIY311      0.0457
     15  O14      -95.7600   10.5350  -48.2980 O.3   311  TIY311     -0.2830
     16  O16      -94.9230   10.5320  -51.0090 O.3   311  TIY311     -0.2797
@<TRIPOS>BOND
     1     3     4    1
     2    12    11    2
     3    16     2    1
     4     4     2   ar
     5     4     5   ar
     6    13    10    1
     7    11     5   ar
     8    11    10   ar
     9     2     1   ar
    10     5     6   ar
    11    10     9   ar
    12     1    15    1
    13     1    14   ar
    14     6    14   ar
    15     6     7   ar
    16     9     8   ar
    17     7     8   ar
