@<TRIPOS>MOLECULE
3tiz_3TI_A_1.pdb
 20 22 0 0 0
SMALL
GASTEIGER

@<TRIPOS>ATOM
      1  N01      -90.1190  -10.2350  -84.3970 N.2   299  3TI299     -0.2437
      2  C02      -89.1210  -10.5340  -83.3710 C.ar  299  3TI299      0.0816
      3  C03      -88.6360  -11.8450  -83.2180 C.ar  299  3TI299      0.0224
      4  C04      -87.6730  -12.1390  -82.2230 C.ar  299  3TI299      0.0436
      5  C05      -87.1990  -11.1400  -81.4000 C.ar  299  3TI299      0.1958
      6  C06      -87.6850   -9.8340  -81.5470 C.ar  299  3TI299      0.0436
      7  C07      -88.6550   -9.5360  -82.5440 C.ar  299  3TI299      0.0224
      8  C08      -91.1510   -9.2220  -84.2110 C.2   299  3TI299      0.1020
      9  C09      -92.1190   -8.9200  -85.3990 C.ar  299  3TI299      0.0580
     10  C10      -92.0300   -9.6690  -86.5900 C.ar  299  3TI299      0.1971
     11  C11      -92.8840   -9.4130  -87.6640 C.ar  299  3TI299      0.0421
     12  C12      -93.8680   -8.3930  -87.5520 C.ar  299  3TI299      0.0033
     13  C13      -93.9740   -7.6180  -86.3390 C.ar  299  3TI299      0.0002
     14  C14      -93.1240   -7.8700  -85.2750 C.ar  299  3TI299      0.0046
     15  C15      -93.2350   -7.0970  -84.0800 C.ar  299  3TI299      0.0001
     16  C16      -94.2140   -6.0710  -83.9710 C.ar  299  3TI299      0.0000
     17  C17      -95.0830   -5.8230  -85.0550 C.ar  299  3TI299      0.0000
     18  C18      -94.9750   -6.5710  -86.2230 C.ar  299  3TI299      0.0000
     19  O19      -86.2690  -11.4330  -80.4370 O.3   299  3TI299     -0.2866
     20  O20      -91.0750  -10.6610  -86.7050 O.3   299  3TI299     -0.2865
@<TRIPOS>BOND
     1    11    12   ar
     2    11    10   ar
     3    12    13   ar
     4    20    10    1
     5    10     9   ar
     6    13    18   ar
     7    13    14   ar
     8    18    17   ar
     9     9    14   ar
    10     9     8    1
    11    14    15   ar
    12    17    16   ar
    13     1     8    2
    14     1     2    1
    15    15    16   ar
    16     2     3   ar
    17     2     7   ar
    18     3     4   ar
    19     7     6   ar
    20     4     5   ar
    21     6     5   ar
    22     5    19    1
