@<TRIPOS>MOLECULE
3tj2_TJ2_A_1.pdb
 32 34 0 0 0
SMALL
GASTEIGER

@<TRIPOS>ATOM
      1  C         10.9000    7.9810   20.2490 C.2     1  TJ21        0.2601
      2  N         12.5560    6.8140   18.7000 N.am    1  TJ21       -0.2609
      3  O         11.9890    8.2410   21.0060 O.2     1  TJ21       -0.2715
      4  CA        11.0900    7.1310   18.8900 C.3     1  TJ21        0.1651
      5  CAA        7.5150    9.3040   21.2340 C.3     1  TJ21        0.0217
      6  CAB        9.1500    8.3580   22.9050 C.3     1  TJ21        0.0217
      7  CAC        9.6780   10.5330   21.6680 C.3     1  TJ21        0.0217
      8  OAD       12.9670    8.6310   17.3790 O.2     1  TJ21       -0.2649
      9  OAE        8.7240    5.7620   15.3330 O.co2   1  TJ21       -0.2380
     10  OAG       10.8510    6.1010   15.5970 O.co2   1  TJ21       -0.2380
     11 CLAH       13.3440    0.0820   17.2370 Cl      1  TJ21       -0.0822
     12 CLAI        7.9510    1.6540   22.2430 Cl      1  TJ21       -0.0865
     13  CAJ       13.3640    7.6180   17.9850 C.2     1  TJ21        0.3035
     14  CAK       13.3230    1.8860   19.1670 C.ar    1  TJ21        0.0111
     15  CAL       13.1420    2.7610   16.9160 C.ar    1  TJ21        0.0111
     16  CAM        9.4350    3.9230   21.9340 C.2     1  TJ21        0.0072
     17  CAN       13.2540    3.1680   19.6700 C.ar    1  TJ21       -0.0017
     18  CAO       13.0870    4.0570   17.4330 C.ar    1  TJ21       -0.0017
     19  CAP        9.9940    4.9440   21.1650 C.2     1  TJ21       -0.0010
     20  CAQ        8.4540    2.9350   19.9410 C.3     1  TJ21        0.0964
     21  CAR       13.0890    5.6600   19.4800 C.3     1  TJ21        0.1210
     22  NAS        9.5950    8.3640   20.4710 N.am    1  TJ21       -0.2074
     23  NAT        8.9350    4.1680   17.8390 N.2     1  TJ21       -0.4034
     24  CAU        9.7370    5.7830   16.0550 C.2     1  TJ21        0.4130
     25  CAW       13.2570    1.6930   17.7980 C.ar    1  TJ21        0.0577
     26  CAX        8.6750    2.9220   21.3160 C.2     1  TJ21        0.0425
     27  CAY       13.1390    4.2610   18.8170 C.ar    1  TJ21       -0.0023
     28  CAZ        9.6190    5.2740   17.5220 C.2     1  TJ21        0.1935
     29  CBA       10.1990    5.8260   18.7150 C.3     1  TJ21        0.1106
     30  CBB        9.0060    3.9530   19.1610 C.2     1  TJ21        0.1106
     31  CBC        9.7800    4.9670   19.7740 C.2     1  TJ21        0.0123
     32  CBF        9.0000    9.1490   21.5850 C.3     1  TJ21        0.0788
@<TRIPOS>BOND
     1     9    24   ar
     2    10    24   ar
     3    24    28    1
     4    15    18   ar
     5    15    25   ar
     6    11    25    1
     7     8    13    2
     8    18    27   ar
     9    28    23    2
    10    28    29    1
    11    25    14   ar
    12    23    30    2
    13    13     2   am
    14     2     4    1
    15     2    21    1
    16    29     4    1
    17    29    31    1
    18    27    21    1
    19    27    17   ar
    20     4     1    1
    21    30    31    1
    22    30    20    1
    23    14    17   ar
    24    31    19    2
    25    20    26    1
    26     1    22   am
    27     1     3    2
    28    22    32    1
    29    19    16    1
    30     5    32    1
    31    26    16    2
    32    26    12    1
    33    32     7    1
    34    32     6    1
