@<TRIPOS>MOLECULE
3tj7_AMP_A_1.pdb
 23 25 0 0 0
SMALL
GASTEIGER

@<TRIPOS>ATOM
      1  P         46.1490   53.0970   52.0470 P.3   501  AMP501      0.5327
      2  O1P       46.6720   52.1210   51.0010 O.2   501  AMP501     -0.2224
      3  O2P       46.5870   54.5500   52.0180 O.3   501  AMP501     -0.1145
      4  O3P       44.6890   52.8970   52.4070 O.3   501  AMP501     -0.1145
      5  O5'       47.0750   52.5400   53.2490 O.3   501  AMP501     -0.2675
      6  C5'       46.6910   52.7890   54.5990 C.3   501  AMP501      0.1860
      7  C4'       47.9340   53.0520   55.4350 C.3   501  AMP501      0.1823
      8  O4'       48.4530   51.7800   55.8200 O.3   501  AMP501     -0.3135
      9  C3'       49.0250   53.7890   54.6560 C.3   501  AMP501      0.2184
     10  O3'       49.7870   54.6350   55.5300 O.3   501  AMP501     -0.2174
     11  C2'       49.8990   52.6840   54.0920 C.3   501  AMP501      0.2570
     12  O2'       51.2810   53.1580   54.0260 O.3   501  AMP501     -0.2130
     13  C1'       49.6020   51.4660   55.0150 C.3   501  AMP501      0.3186
     14  N9        49.3670   50.1560   54.3040 N.pl3 501  AMP501     -0.1439
     15  C8        48.6070   49.8450   53.2080 C.3   501  AMP501      0.3377
     16  N7        48.7240   48.5180   52.9010 N.2   501  AMP501     -0.2095
     17  C5        49.5440   47.9570   53.8220 C.2   501  AMP501      0.2526
     18  C6        50.1160   46.6170   54.1350 C.2   501  AMP501      0.4393
     19  N6        49.8830   45.4920   53.4250 N.pl3 501  AMP501      0.2180
     20  N1        50.9340   46.5220   55.2020 N.2   501  AMP501      0.0021
     21  C2        51.2620   47.5730   55.9870 C.3   501  AMP501      0.5254
     22  N3        50.7960   48.8060   55.7670 N.2   501  AMP501     -0.0055
     23  C4        49.9440   49.0450   54.7290 C.2   501  AMP501      0.3518
@<TRIPOS>BOND
     1     2     1    2
     2     3     1    1
     3     1     4    1
     4     1     5    1
     5    16    15    1
     6    16    17    2
     7    15    14    1
     8     5     6    1
     9    19    18    1
    10    17    18    1
    11    17    23    1
    12    12    11    1
    13    11     9    1
    14    11    13    1
    15    18    20    2
    16    14    23    1
    17    14    13    1
    18     6     7    1
    19     9     7    1
    20     9    10    1
    21    23    22    2
    22    13     8    1
    23    20    21    1
    24     7     8    1
    25    22    21    1
