@<TRIPOS>MOLECULE
3tjc_0TP_A_1.pdb
 26 29 0 0 0
SMALL
GASTEIGER

@<TRIPOS>ATOM
      1  C1       109.1460   63.6500    5.2620 C.3     1  0TP1        0.1636
      2  N1       118.4380   68.6310   10.9070 N.ar    1  0TP1       -0.2257
      3  O1       109.4940   62.9280    4.0980 O.3     1  0TP1       -0.3501
      4  S1       114.6260   66.5190   10.8280 S.2     1  0TP1       -0.0866
      5  C2       112.8430   64.5170    9.1160 C.ar    1  0TP1        0.0018
      6  N2       118.8000   67.9060    8.7460 N.pl3   1  0TP1       -0.1072
      7  O2       114.5320   67.6480   13.5010 O.2     1  0TP1       -0.2683
      8  C3       110.9210   62.9900    3.7670 C.3     1  0TP1        0.1636
      9  N3       116.1090   68.9820   14.2930 N.am    1  0TP1       -0.1997
     10  C4       111.6500   62.2340    4.8630 C.3     1  0TP1        0.1231
     11  N4       111.3110   62.9430    6.0930 N.pl3   1  0TP1       -0.3028
     12  C5       113.4580   64.0570    6.2970 C.ar    1  0TP1        0.0145
     13  C6       109.8480   63.0030    6.4180 C.3     1  0TP1        0.1231
     14  C7       116.1990   66.4170    8.7990 C.ar    1  0TP1        0.0099
     15  C8       116.6900   67.1590    9.7790 C.ar    1  0TP1        0.0415
     16  C9       115.9430   67.3130   10.9880 C.ar    1  0TP1        0.0382
     17  C10      117.9900   67.8970    9.8260 C.ar    1  0TP1        0.1701
     18  C11      116.4020   68.0800   12.1220 C.ar    1  0TP1        0.0802
     19  C12      115.5960   68.1970   13.3340 C.2     1  0TP1        0.2668
     20  C13      117.6970   68.7430   12.0450 C.ar    1  0TP1        0.1055
     21  C14      114.9510   65.9510    9.2760 C.ar    1  0TP1        0.0296
     22  C15      115.2220   69.4780   15.3450 C.3     1  0TP1        0.1388
     23  C16      114.0590   65.0510    8.4900 C.ar    1  0TP1        0.0061
     24  C17      111.9270   63.7680    8.3390 C.ar    1  0TP1        0.0145
     25  C18      112.2250   63.5440    6.9090 C.ar    1  0TP1        0.0480
     26  C19      114.3700   64.8020    7.0700 C.ar    1  0TP1        0.0018
@<TRIPOS>BOND
     1     8     3    1
     2     8    10    1
     3     3     1    1
     4    10    11    1
     5     1    13    1
     6    11    13    1
     7    11    25    1
     8    12    25   ar
     9    12    26   ar
    10    25    24   ar
    11    26    23   ar
    12    24     5   ar
    13    23     5   ar
    14    23    21    1
    15     6    17    1
    16    14    21   ar
    17    14    15   ar
    18    21     4   ar
    19    15    17   ar
    20    15    16   ar
    21    17     2   ar
    22     4    16   ar
    23     2    20   ar
    24    16    18   ar
    25    20    18   ar
    26    18    19    1
    27    19     7    2
    28    19     9   am
    29     9    22    1
