@<TRIPOS>MOLECULE
3tjd_6TP_A_1.pdb
 28 30 0 0 0
SMALL
GASTEIGER

@<TRIPOS>ATOM
      1  C1       111.6190   60.4580    5.6300 C.3     1  6TP1        0.0827
      2  N1       117.9580   67.9850   11.0670 N.ar    1  6TP1       -0.2257
      3  O1       109.4440   62.8930    5.3700 O.2     1  6TP1       -0.1516
      4  S1       113.9580   66.5050   10.3760 S.2     1  6TP1       -0.0866
      5  C2       112.0330   64.8190    8.2820 C.ar    1  6TP1        0.0019
      6  N2       118.4060   67.4210    8.8200 N.pl3   1  6TP1       -0.1072
      7  O2       113.8550   67.0920   13.3520 O.2     1  6TP1       -0.2683
      8  S2       110.7490   63.1730    4.8880 S.O2    1  6TP1        0.0767
      9  C3       111.4300   59.0750    4.9820 C.3     1  6TP1        0.0194
     10  N3       115.2660   68.5830   14.1290 N.am    1  6TP1       -0.1997
     11  O3       110.7910   63.9390    3.7030 O.2     1  6TP1       -0.1516
     12  C4       110.6120   60.5210    6.7440 C.3     1  6TP1        0.0194
     13  N4       111.5760   61.6350    4.6800 N.3     1  6TP1       -0.0807
     14  C5       112.9340   64.4410    5.5320 C.ar    1  6TP1        0.0200
     15  C6       112.9790   60.4450    6.2490 C.3     1  6TP1        0.0194
     16  C7       115.6680   66.3170    8.4550 C.ar    1  6TP1        0.0099
     17  C8       116.1750   66.9200    9.6350 C.ar    1  6TP1        0.0415
     18  C9       115.3970   67.1030   10.7940 C.ar    1  6TP1        0.0382
     19  C10      117.5310   67.4320    9.8730 C.ar    1  6TP1        0.1701
     20  C11      115.7790   67.6510   12.0100 C.ar    1  6TP1        0.0802
     21  C12      114.8760   67.7330   13.1870 C.2     1  6TP1        0.2668
     22  C13      117.1250   68.1070   12.1320 C.ar    1  6TP1        0.1055
     23  C14      114.3270   66.0170    8.7840 C.ar    1  6TP1        0.0296
     24  C15      114.4140   68.7250   15.2730 C.3     1  6TP1        0.1388
     25  C16      113.3650   65.3070    7.8330 C.ar    1  6TP1        0.0061
     26  C17      111.1630   64.1490    7.3690 C.ar    1  6TP1        0.0200
     27  C18      111.6760   64.0000    6.0460 C.ar    1  6TP1        0.1235
     28  C19      113.7850   65.1010    6.4440 C.ar    1  6TP1        0.0019
@<TRIPOS>BOND
     1    11     8    2
     2    13     8    1
     3    13     1    1
     4     8     3    2
     5     8    27    1
     6     9     1    1
     7    14    27   ar
     8    14    28   ar
     9     1    15    1
    10     1    12    1
    11    27    26   ar
    12    28    25   ar
    13    26     5   ar
    14    25     5   ar
    15    25    23    1
    16    16    23   ar
    17    16    17   ar
    18    23     4   ar
    19     6    19    1
    20    17    19   ar
    21    17    18   ar
    22    19     2   ar
    23     4    18   ar
    24    18    20   ar
    25     2    22   ar
    26    20    22   ar
    27    20    21    1
    28    21     7    2
    29    21    10   am
    30    10    24    1
