@<TRIPOS>MOLECULE
3tjl_FMN_A_1.pdb
 31 33 0 0 0
SMALL
GASTEIGER

@<TRIPOS>ATOM
      1  N1        33.3180  -24.6660    8.2750 N.2   408  FMN408     -0.2887
      2  C2        34.6750  -24.5480    8.0610 C.1   408  FMN408      0.3669
      3  O2        35.4170  -24.1350    8.9600 O.2   408  FMN408     -0.1744
      4  N3        35.2090  -24.8480    6.8220 N.2   408  FMN408     -0.2300
      5  C4        34.4100  -25.3140    5.7940 C.1   408  FMN408      0.2513
      6  O4        34.9060  -25.5350    4.6640 O.2   408  FMN408     -0.2057
      7  C4A       33.0380  -25.4370    6.0090 C.2   408  FMN408      0.2706
      8  N5        32.2090  -25.9140    4.9980 N.2   408  FMN408     -0.3841
      9  C5A       30.8480  -25.9470    5.2210 C.2   408  FMN408      0.1452
     10  C6        30.0180  -26.3770    4.1970 C.2   408  FMN408      0.0252
     11  C7        28.6460  -26.4120    4.3910 C.2   408  FMN408     -0.0375
     12  C7M       27.7540  -26.8510    3.2630 C.3   408  FMN408      0.0268
     13  C8        28.1010  -26.0710    5.6310 C.3   408  FMN408      0.0417
     14  C8M       26.6040  -26.1200    5.8610 C.3   408  FMN408      0.0091
     15  C9        28.9320  -25.6390    6.6670 C.2   408  FMN408     -0.0049
     16  C9A       30.3100  -25.5730    6.4630 C.2   408  FMN408      0.0795
     17  N10       31.1510  -25.1580    7.4830 N.pl3 408  FMN408     -0.2545
     18  C10       32.5090  -25.0750    7.2540 C.2   408  FMN408      0.2449
     19  C1'       30.5730  -24.6650    8.7760 C.3   408  FMN408      0.1336
     20  C2'       30.1500  -23.1920    8.4470 C.3   408  FMN408      0.2048
     21  O2'       31.2340  -22.2810    8.1480 O.3   408  FMN408     -0.2185
     22  C3'       29.3570  -22.5330    9.5820 C.3   408  FMN408      0.2165
     23  O3'       30.1620  -22.3960   10.7540 O.3   408  FMN408     -0.2175
     24  C4'       28.0790  -23.2860    9.9760 C.3   408  FMN408      0.2147
     25  O4'       27.3520  -23.6580    8.8050 O.3   408  FMN408     -0.2176
     26  C5'       27.1570  -22.4930   10.9070 C.3   408  FMN408      0.1892
     27  O5'       26.8140  -21.2230   10.3340 O.3   408  FMN408     -0.2674
     28  P         25.3800  -20.9640    9.6390 P.3   408  FMN408      0.5327
     29  O1P       24.3270  -21.3100   10.6790 O.3   408  FMN408     -0.1145
     30  O2P       25.2990  -21.8920    8.4420 O.2   408  FMN408     -0.2224
     31  O3P       25.3080  -19.4860    9.2550 O.3   408  FMN408     -0.1145
@<TRIPOS>BOND
     1    12    11    1
     2    10    11    2
     3    10     9    1
     4    11    13    1
     5     6     5    2
     6     8     9    2
     7     8     7    2
     8     9    16    1
     9    13    14    1
    10    13    15    1
    11     5     7    1
    12     5     4    2
    13     7    18    1
    14    16    15    2
    15    16    17    1
    16     4     2    2
    17    18    17    1
    18    18     1    2
    19    17    19    1
    20     2     1    2
    21     2     3    2
    22    21    20    1
    23    30    28    2
    24    20    19    1
    25    20    22    1
    26    25    24    1
    27    31    28    1
    28    22    24    1
    29    22    23    1
    30    28    27    1
    31    28    29    1
    32    24    26    1
    33    27    26    1
