@<TRIPOS>MOLECULE
3tjm_7FA_A_1.pdb
 22 21 0 0 0
SMALL
GASTEIGER

@<TRIPOS>ATOM
      1  C1         3.6210   66.1570   47.7730 C.3   500  7FA500      0.0809
      2  P1         3.2590   66.3180   46.0270 P.3   500  7FA500      0.2201
      3  C2         4.1580   64.8250   48.1740 C.3   500  7FA500      0.0095
      4  O2         2.6040   67.7190   45.6960 O.3   500  7FA500     -0.3146
      5  C3         4.2120   64.7270   49.6840 C.3   500  7FA500      0.0009
      6  C4         2.8210   64.6400   50.2600 C.3   500  7FA500      0.0047
      7  C5         2.8430   64.3710   51.7360 C.3   500  7FA500      0.0257
      8  C6         2.7280   65.6720   52.4880 C.2   500  7FA500     -0.0304
      9  C7         2.2810   65.7810   53.7550 C.2   500  7FA500     -0.0260
     10  C8         1.8280   64.6260   54.6020 C.3   500  7FA500      0.0513
     11  C9         0.7860   65.1320   55.5630 C.2   500  7FA500     -0.0260
     12  CM         1.1900   67.9270   45.7020 C.3   500  7FA500      0.1810
     13  C10        0.2620   64.4010   56.5620 C.2   500  7FA500     -0.0304
     14  C11        0.6600   62.9850   56.8380 C.3   500  7FA500      0.0257
     15  C12        0.5630   62.7360   58.3130 C.3   500  7FA500      0.0047
     16  C13        0.6190   61.4890   58.8030 C.3   500  7FA500      0.0003
     17  C14        1.9420   60.8010   58.9810 C.3   500  7FA500      0.0000
     18  C15        1.7860   59.3200   58.8310 C.3   500  7FA500      0.0000
     19  C16        1.6580   59.0020   57.3730 C.3   500  7FA500      0.0000
     20  C17        0.3340   58.3400   57.1690 C.3   500  7FA500      0.0000
     21  C18        0.5540   57.1800   56.2570 C.3   500  7FA500      0.0000
     22  O1         2.4100   65.0640   45.5450 O.3   500  7FA500     -0.1774
@<TRIPOS>BOND
     1    22     2    1
     2     4    12    1
     3     4     2    1
     4     2     1    1
     5     1     3    1
     6     3     5    1
     7     5     6    1
     8     6     7    1
     9     7     8    1
    10     8     9    2
    11     9    10    1
    12    10    11    1
    13    11    13    2
    14    21    20    1
    15    13    14    1
    16    14    15    1
    17    20    19    1
    18    19    18    1
    19    15    16    1
    20    16    17    1
    21    18    17    1
