@<TRIPOS>MOLECULE
3tjp_13K_A_1.pdb
 30 33 0 0 0
SMALL
GASTEIGER

@<TRIPOS>ATOM
      1  N01       27.5550   11.5490   20.2980 N.pl3   1  13K1       -0.0461
      2  C02       26.2650   12.0250   20.4680 C.1     1  13K1        0.1286
      3  N03       25.8840   13.1070   19.7570 N.2     1  13K1       -0.1780
      4  C04       24.6200   13.5520   19.9430 C.2     1  13K1        0.1107
      5  N05       25.4520   11.3850   21.3360 N.2     1  13K1       -0.2003
      6  C06       24.1980   11.8750   21.4770 C.3     1  13K1        0.1678
      7  C07       23.6960   12.9790   20.8030 C.2     1  13K1        0.0497
      8  C08       22.3240   13.4740   20.9910 C.2     1  13K1        0.1306
      9  C09       21.8880   14.7010   20.5130 C.3     1  13K1        0.1372
     10  N10       21.4880   12.6510   21.6680 N.2     1  13K1       -0.3323
     11  C11       20.2080   13.0330   21.8810 C.1     1  13K1        0.2035
     12  N12       19.3440   12.1860   22.5680 N.pl3   1  13K1       -0.2290
     13  C13       17.9190   12.4940   22.6820 C.3     1  13K1        0.1352
     14  C14       17.4090   12.1990   24.0880 C.3     1  13K1        0.1644
     15  O15       17.7780   10.8770   24.4830 O.3     1  13K1       -0.3501
     16  C16       19.2000   10.7740   24.5620 C.3     1  13K1        0.1644
     17  C17       19.8150   10.9430   23.1780 C.3     1  13K1        0.1352
     18  N18       19.7470   14.2240   21.4280 N.2     1  13K1       -0.3151
     19  C19       20.5720   15.0590   20.7490 C.2     1  13K1        0.2009
     20  N20       20.0370   16.2820   20.3090 N.pl3   1  13K1       -0.1860
     21  C21       18.8800   17.0230   20.6110 C.ar    1  13K1        0.0760
     22  C22       17.8910   16.5990   21.5020 C.ar    1  13K1        0.0199
     23  C23       16.7650   17.3860   21.7590 C.ar    1  13K1        0.0414
     24  C24       18.7110   18.2690   19.9800 C.ar    1  13K1        0.0566
     25  C25       17.5880   19.0690   20.2300 C.ar    1  13K1        0.1737
     26  O26       17.3550   20.2940   19.6510 O.3     1  13K1       -0.4683
     27  C27       18.2770   20.7420   18.6650 C.3     1  13K1        0.2526
     28  C28       16.6050   18.6220   21.1290 C.ar    1  13K1        0.1725
     29  O29       15.5370   19.4640   21.3160 O.3     1  13K1       -0.4684
     30  C30       14.4610   18.9870   22.1150 C.3     1  13K1        0.2526
@<TRIPOS>BOND
     1    27    26    1
     2    26    25    1
     3     3     4    1
     4     3     2    2
     5     4     7    2
     6    24    25   ar
     7    24    21   ar
     8    25    28   ar
     9     1     2    1
    10    20    21    1
    11    20    19    1
    12     2     5    2
    13     9    19    1
    14     9     8    1
    15    21    22   ar
    16    19    18    2
    17     7     8    1
    18     7     6    1
    19     8    10    2
    20    28    29    1
    21    28    23   ar
    22    29    30    1
    23     5     6    1
    24    18    11    2
    25    22    23   ar
    26    10    11    2
    27    11    12    1
    28    12    13    1
    29    12    17    1
    30    13    14    1
    31    17    16    1
    32    14    15    1
    33    15    16    1
