@<TRIPOS>MOLECULE
3tjr_UNL_A_1.pdb
 45 49 0 0 0
SMALL
GASTEIGER

@<TRIPOS>ATOM
      1  O2A       -5.1440   32.5580    9.1590 O.3   281  UNL281      0.0000
      2 PA         -4.7980   33.6100   10.1670 Pa    281  UNL281      0.0000
      3  O1A       -5.8880   34.4570   10.8050 O.3   281  UNL281      0.0000
      4  O5B       -3.9650   34.7140    9.6020 O.2   281  UNL281      0.0000
      5  C5B       -2.6760   34.5880    8.9820 C.2   281  UNL281      0.0000
      6  C4B       -2.6810   34.5930    7.4710 C.2   281  UNL281      0.0000
      7  O4B       -1.4290   34.4130    6.7960 O.2   281  UNL281      0.0000
      8  C1B       -1.7520   34.4410    5.4230 C.3   281  UNL281      0.0000
      9  N9A       -1.0430   33.4010    4.6570 N.pl3 281  UNL281      0.5000
     10  C8A       -1.1270   32.0540    4.7790 C.3   281  UNL281      0.0000
     11  N7A       -0.3320   31.4630    3.8510 N.2   281  UNL281      0.0000
     12  C5M        0.2770   32.4470    3.1460 C.2   281  UNL281      0.0000
     13  C6A        1.2270   32.4890    2.0180 C.2   281  UNL281      0.0000
     14  N6A        1.6780   31.3420    1.4610 N.pl3 281  UNL281      0.5000
     15  N1A        1.6350   33.7060    1.6110 N.2   281  UNL281      0.5000
     16  C2A        1.1280   34.8570    2.1510 C.3   281  UNL281      0.0000
     17  N3A        0.2350   34.9340    3.1800 N.2   281  UNL281      0.5000
     18  C4A       -0.1990   33.7290    3.6790 C.2   281  UNL281      0.0000
     19  C2B       -3.2490   34.1620    5.3310 C.3   281  UNL281      0.0000
     20  O2B       -3.9900   34.1000    4.1050 O.3   281  UNL281      0.0000
     21  C3B       -3.9270   34.5790    6.5920 C.3   281  UNL281      0.0000
     22  O3B       -4.3860   35.9270    6.2650 O.3   281  UNL281      0.0000
     23  O3        -3.9740   32.8810   11.3360 O.3   281  UNL281      0.0000
     24  PN        -3.0540   33.3450   12.4920 P.3   281  UNL281      0.0000
     25  O1N       -3.3610   32.8100   13.8000 O.3   281  UNL281     -0.5000
     26  O2N       -2.8990   34.7750   12.4390 O.2   281  UNL281     -0.5000
     27  O5D       -1.5940   33.1140   11.9740 O.3   281  UNL281      0.0000
     28  C5D       -0.5340   34.0970   12.0070 C.3   281  UNL281      0.0000
     29  C4D        0.6740   33.3320   12.5630 C.3   281  UNL281      0.0000
     30  O4D        0.5760   32.7320   13.8410 O.3   281  UNL281      0.0000
     31  C3D        0.9820   32.1010   11.6970 C.3   281  UNL281      0.0000
     32  O3D        2.3380   31.7880   11.4210 O.3   281  UNL281      0.0000
     33  C2D        0.6590   30.9040   12.5380 C.3   281  UNL281      0.0000
     34  O2D        1.3040   29.6310   12.2240 O.3   281  UNL281      0.0000
     35  C1D        0.8610   31.3350   13.9010 C.3   281  UNL281      0.0000
     36  N1N        0.2930   30.8550   15.1330 N.pl3 281  UNL281      0.0000
     37  C2N       -0.9510   30.7690   15.3220 C.3   281  UNL281      0.0000
     38  C6N        1.3130   30.5650   16.1440 C.2   281  UNL281      0.0000
     39  C5N        0.7500   29.7860   17.3420 C.2   281  UNL281      0.0000
     40  O5N        1.0010   28.4380   16.9740 O.2   281  UNL281      0.0000
     41  C4N       -0.7460   29.7390   17.5070 C.2   281  UNL281      0.0000
     42  C3N       -1.5410   30.2700   16.5670 C.2   281  UNL281      0.0000
     43  C7N       -2.9930   30.2930   16.7600 C.2   281  UNL281      0.0000
     44  O7N       -3.5120   29.6300   17.6520 O.2   281  UNL281      0.0000
     45  N7N       -3.7120   31.0540   15.9260 N.am  281  UNL281      0.0000
@<TRIPOS>BOND
     1    14    13    1
     2    15    13    2
     3    15    16    1
     4    13    12    1
     5    16    17    1
     6    12    18    1
     7    12    11    2
     8    17    18    2
     9    18     9    1
    10    11    10    1
    11    20    19    1
    12     9    10    1
    13     9     8    1
    14    19     8    1
    15    19    21    1
    16     8     7    1
    17    22    21    1
    18    21     6    1
    19     7     6    1
    20     6     5    2
    21     5     4    1
    22     1     2    1
    23     4     2    1
    24     2     3    1
    25     2    23    1
    26    23    24    1
    27    32    31    1
    28    31    33    1
    29    31    29    1
    30    27    28    1
    31    27    24    1
    32    28    29    1
    33    34    33    1
    34    26    24    2
    35    24    25    1
    36    33    35    1
    37    29    30    1
    38    30    35    1
    39    35    36    1
    40    36    37    1
    41    36    38    1
    42    37    42    1
    43    45    43   am
    44    38    39    2
    45    42    43    1
    46    42    41    2
    47    43    44    2
    48    40    39    1
    49    39    41    1
