@<TRIPOS>MOLECULE
3tjs_HEM_A_1.pdb
 43 50 0 0 0
SMALL
GASTEIGER

@<TRIPOS>ATOM
      1  CHA       23.3790  -19.6950   -8.7550 C.2   508  HEM508      0.0000
      2  CHB       22.7010  -22.4670  -12.6740 C.2   508  HEM508      0.0000
      3  CHC       22.5480  -26.2840   -9.7280 C.2   508  HEM508      0.0000
      4  CHD       23.1310  -23.5740   -5.8570 C.2   508  HEM508      0.0000
      5  C1A       23.2210  -20.1320  -10.0740 C.ar  508  HEM508      0.0000
      6  C2A       23.1630  -19.2590  -11.2480 C.ar  508  HEM508      0.0000
      7  C3A       23.0050  -20.0510  -12.2820 C.ar  508  HEM508      0.0000
      8  C4A       22.8550  -21.3860  -11.8330 C.ar  508  HEM508      0.0000
      9  CMA       22.9060  -19.6380  -13.7680 C.3   508  HEM508      0.0000
     10  CAA       23.3930  -17.6910  -11.2730 C.3   508  HEM508      0.0000
     11  CBA       24.9670  -17.5320  -11.2940 C.3   508  HEM508      0.0000
     12  CGA       25.3400  -16.1150  -11.6900 C.2   508  HEM508      0.0000
     13  O1A       24.4770  -15.2400  -11.4400 O.co2 508  HEM508      0.0000
     14  O2A       26.4390  -15.8310  -12.2760 O.co2 508  HEM508      0.0000
     15  C1B       22.6040  -23.7470  -12.2180 C.2   508  HEM508      0.0000
     16  C2B       22.4330  -24.9120  -13.0530 C.2   508  HEM508      0.0000
     17  C3B       22.3640  -25.9810  -12.2160 C.2   508  HEM508      0.0000
     18  C4B       22.5080  -25.5010  -10.8490 C.2   508  HEM508      0.0000
     19  CMB       22.3320  -24.8590  -14.6220 C.3   508  HEM508      0.0000
     20  CAB       22.1340  -27.4870  -12.5710 C.2   508  HEM508      0.0000
     21  CBB       22.4170  -27.9590  -13.8010 C.2   508  HEM508      0.0000
     22  C1C       22.7310  -25.9060   -8.4280 C.ar  508  HEM508      0.0000
     23  C2C       22.7750  -26.8050   -7.2560 C.ar  508  HEM508      0.0000
     24  C3C       22.9070  -26.0100   -6.2070 C.ar  508  HEM508      0.0000
     25  C4C       22.9800  -24.6500   -6.6890 C.ar  508  HEM508      0.0000
     26  CMC       22.6400  -28.3650   -7.2400 C.3   508  HEM508      0.0000
     27  CAC       23.0420  -26.3640   -4.6990 C.2   508  HEM508      0.0000
     28  CBC       23.5510  -27.5180   -4.2730 C.2   508  HEM508      0.0000
     29  C1D       23.2280  -22.2670   -6.2090 C.2   508  HEM508      0.0000
     30  C2D       23.3650  -21.1730   -5.2970 C.2   508  HEM508      0.0000
     31  C3D       23.4430  -19.9520   -6.2140 C.2   508  HEM508      0.0000
     32  C4D       23.3230  -20.4530   -7.5860 C.2   508  HEM508      0.0000
     33  CMD       23.4490  -21.2150   -3.7160 C.3   508  HEM508      0.0000
     34  CAD       23.6420  -18.5020   -5.7350 C.3   508  HEM508      0.0000
     35  CBD       25.1410  -18.4090   -5.4300 C.3   508  HEM508      0.0000
     36  CGD       25.4270  -17.0130   -4.8070 C.2   508  HEM508      0.0000
     37  O1D       26.5330  -16.7560   -4.2260 O.co2 508  HEM508      0.0000
     38  O2D       24.4960  -16.1530   -4.9120 O.co2 508  HEM508      0.0000
     39  NA        23.0720  -21.4250  -10.5000 N.ar  508  HEM508      0.0000
     40  NB        22.7030  -24.1360  -10.8740 N.2   508  HEM508      0.0000
     41  NC        22.8820  -24.6060   -8.0460 N.ar  508  HEM508      0.0000
     42  ND        23.2240  -21.8410   -7.5200 N.2   508  HEM508      0.0000
     43 FE         23.0070  -23.0730   -9.2440 Fe    508  HEM508      0.0000
@<TRIPOS>BOND
     1    19    16    1
     2    21    20    2
     3     9     7    1
     4    16    15    1
     5    16    17    2
     6     2    15    1
     7     2     8    2
     8    20    17    1
     9     7     8   ar
    10     7     6   ar
    11    14    12   ar
    12    15    40    2
    13    17    18    1
    14     8    39   ar
    15    12    13   ar
    16    12    11    1
    17    11    10    1
    18    10     6    1
    19     6     5   ar
    20    40    18    1
    21    40    43    1
    22    18     3    2
    23    39     5   ar
    24    39    43    1
    25     5     1    2
    26     3    22    1
    27    43    41    1
    28    43    42    1
    29     1    32    1
    30    22    41   ar
    31    22    23   ar
    32    41    25   ar
    33    32    42    2
    34    32    31    1
    35    42    29    1
    36    23    26    1
    37    23    24   ar
    38    25    24   ar
    39    25     4    1
    40    31    34    1
    41    31    30    2
    42    29     4    2
    43    29    30    1
    44    24    27    1
    45    34    35    1
    46    35    36    1
    47    30    33    1
    48    38    36   ar
    49    36    37   ar
    50    27    28    2
