@<TRIPOS>MOLECULE
3tjs_D0R_A_1.pdb
 41 43 0 0 0
SMALL
GASTEIGER

@<TRIPOS>ATOM
      1  C21       14.4400  -18.5850   -8.1310 C.2   600  D0R600      0.3240
      2  N74       13.2280  -18.3880   -8.6730 N.am  600  D0R600     -0.2546
      3  C75       12.6330  -17.0770   -8.9590 C.3   600  D0R600      0.1504
      4  O76       14.8160  -19.7260   -7.9680 O.2   600  D0R600     -0.2507
      5  C77       13.4010  -16.3690  -10.0840 C.2   600  D0R600      0.1182
      6  C80       13.7090  -14.9970  -10.0030 C.3   600  D0R600      0.1202
      7  S81       14.5790  -14.5660  -11.4440 S.3   600  D0R600     -0.0795
      8  C82       14.5330  -16.1570  -12.1350 C.2   600  D0R600      0.1335
      9  N83       13.8630  -16.9740  -11.2490 N.2   600  D0R600     -0.4061
     10  C85       15.1910  -16.3490  -13.4770 C.3   600  D0R600      0.0585
     11  C86       15.2220  -15.0990  -14.3590 C.3   600  D0R600      0.0080
     12  C90       14.5130  -17.4890  -14.2350 C.3   600  D0R600      0.0080
     13  C95       12.5400  -19.4140   -8.9800 C.3   600  D0R600      0.1169
     14  N20       15.1860  -17.5370   -7.7550 N.am  600  D0R600     -0.1808
     15  C19       16.5640  -17.5000   -7.1950 C.3   600  D0R600      0.1742
     16  C18       17.1110  -18.5530   -6.2380 C.2   600  D0R600      0.2612
     17  O61       17.5580  -18.3760   -5.1010 O.2   600  D0R600     -0.2715
     18  C62       16.8870  -16.0860   -6.8190 C.3   600  D0R600      0.0290
     19  C64       17.6580  -15.5110   -8.0000 C.3   600  D0R600      0.0023
     20  C68       15.6100  -15.3230   -6.5030 C.3   600  D0R600      0.0023
     21  N11       20.9210  -23.0980   -8.9490 N.3   600  D0R600     -0.1299
     22  C12       20.1140  -21.9740   -9.2430 C.3   600  D0R600      0.1264
     23  C13       19.2180  -22.2200   -8.0010 C.3   600  D0R600      0.1715
     24  C14       17.8400  -21.5870   -7.9620 C.3   600  D0R600      0.0564
     25  C15       17.5110  -21.0160   -6.5670 C.3   600  D0R600      0.1023
     26  C26       18.9800  -21.9120  -10.2540 C.3   600  D0R600      0.0479
     27  C28       18.6480  -20.5940  -10.8890 C.ar  600  D0R600     -0.0206
     28  C31       19.4920  -19.4920  -10.6710 C.ar  600  D0R600     -0.0042
     29  C32       19.2260  -18.2540  -11.2180 C.ar  600  D0R600     -0.0003
     30  C33       18.0620  -18.1090  -12.0060 C.ar  600  D0R600     -0.0000
     31  C34       17.2170  -19.2010  -12.2490 C.ar  600  D0R600     -0.0003
     32  C35       17.5060  -20.4520  -11.6640 C.ar  600  D0R600     -0.0042
     33  O41       19.8710  -21.9060   -6.7470 O.3   600  D0R600     -0.2215
     34  C44       16.5790  -21.8030   -5.6390 C.3   600  D0R600      0.0481
     35  C45       15.3720  -21.3420   -4.8740 C.ar  600  D0R600     -0.0205
     36  C48       14.7700  -22.2400   -4.0100 C.ar  600  D0R600     -0.0042
     37  C49       13.6300  -21.9030   -3.2950 C.ar  600  D0R600     -0.0003
     38  C50       13.0820  -20.6310   -3.4000 C.ar  600  D0R600     -0.0000
     39  C51       13.6720  -19.6870   -4.2380 C.ar  600  D0R600     -0.0003
     40  C52       14.8010  -20.0610   -4.9650 C.ar  600  D0R600     -0.0042
     41  N58       17.0810  -19.6880   -6.9050 N.am  600  D0R600     -0.2053
@<TRIPOS>BOND
     1    11    10    1
     2    12    10    1
     3    10     8    1
     4    31    30   ar
     5    31    32   ar
     6     8     7    1
     7     8     9    2
     8    30    29   ar
     9    32    27   ar
    10     7     6    1
    11     9     5    2
    12    29    28   ar
    13    27    28   ar
    14    27    26    1
    15    26    22    1
    16     5     6    1
    17     5     3    1
    18    22    21    1
    19    22    23    1
    20    13     2    1
    21     3     2    1
    22     2     1   am
    23     1     4    2
    24     1    14   am
    25    23    24    1
    26    23    33    1
    27    19    18    1
    28    24    25    1
    29    14    15    1
    30    15    18    1
    31    15    16    1
    32    41    25    1
    33    41    16   am
    34    18    20    1
    35    25    34    1
    36    16    17    2
    37    34    35    1
    38    40    35   ar
    39    40    39   ar
    40    35    36   ar
    41    39    38   ar
    42    36    37   ar
    43    38    37   ar
