@<TRIPOS>MOLECULE
3tjx_FMN_A_1.pdb
 31 33 0 0 0
SMALL
GASTEIGER

@<TRIPOS>ATOM
      1  N1       -42.4310   38.1660    0.6340 N.2   321  FMN321     -0.2887
      2  C2       -43.0020   39.0900    1.4250 C.1   321  FMN321      0.3669
      3  O2       -43.1210   40.2580    0.9830 O.2   321  FMN321     -0.1744
      4  N3       -43.4280   38.8120    2.6780 N.2   321  FMN321     -0.2300
      5  C4       -43.3290   37.5880    3.2110 C.1   321  FMN321      0.2513
      6  O4       -43.6970   37.3270    4.3760 O.2   321  FMN321     -0.2057
      7  C4A      -42.7030   36.5330    2.4100 C.2   321  FMN321      0.2706
      8  N5       -42.5610   35.2780    2.8810 N.2   321  FMN321     -0.3841
      9  C5A      -41.9430   34.3370    2.1410 C.2   321  FMN321      0.1452
     10  C6       -41.7740   33.0610    2.6570 C.2   321  FMN321      0.0252
     11  C7       -41.1560   32.0870    1.8870 C.2   321  FMN321     -0.0375
     12  C7M      -40.9680   30.6950    2.4270 C.3   321  FMN321      0.0268
     13  C8       -40.6800   32.4070    0.5200 C.3   321  FMN321      0.0417
     14  C8M      -40.0080   31.3600   -0.3270 C.3   321  FMN321      0.0091
     15  C9       -40.8450   33.6840    0.0050 C.2   321  FMN321     -0.0049
     16  C9A      -41.4670   34.6520    0.7700 C.2   321  FMN321      0.0795
     17  N10      -41.6640   35.9410    0.2570 N.pl3 321  FMN321     -0.2545
     18  C10      -42.2520   36.9050    1.0620 C.2   321  FMN321      0.2449
     19  C1'      -41.1810   36.3160   -1.0700 C.3   321  FMN321      0.1336
     20  C2'      -39.7060   36.6520   -0.9430 C.3   321  FMN321      0.2048
     21  O2'      -39.5570   37.8070   -0.1060 O.3   321  FMN321     -0.2185
     22  C3'      -39.1580   36.9640   -2.3220 C.3   321  FMN321      0.2165
     23  O3'      -39.8940   38.0650   -2.8610 O.3   321  FMN321     -0.2175
     24  C4'      -39.2730   35.8080   -3.3100 C.3   321  FMN321      0.2147
     25  O4'      -39.0310   34.5600   -2.6430 O.3   321  FMN321     -0.2176
     26  C5'      -38.2900   35.9820   -4.4800 C.3   321  FMN321      0.1892
     27  O5'      -36.9220   35.9790   -4.0260 O.3   321  FMN321     -0.2674
     28  P        -36.0010   34.6630   -4.2340 P.3   321  FMN321      0.5327
     29  O1P      -36.0380   34.3500   -5.6940 O.2   321  FMN321     -0.2224
     30  O2P      -36.6620   33.5490   -3.4320 O.3   321  FMN321     -0.1145
     31  O3P      -34.7000   35.1050   -3.6410 O.3   321  FMN321     -0.1145
@<TRIPOS>BOND
     1    29    28    2
     2    26    27    1
     3    26    24    1
     4    28    27    1
     5    28    31    1
     6    28    30    1
     7    24    25    1
     8    24    22    1
     9    23    22    1
    10    22    20    1
    11    19    20    1
    12    19    17    1
    13    20    21    1
    14    14    13    1
    15    15    13    1
    16    15    16    2
    17    17    16    1
    18    17    18    1
    19    13    11    1
    20     1    18    2
    21     1     2    2
    22    16     9    1
    23     3     2    2
    24    18     7    1
    25     2     4    2
    26    11    12    1
    27    11    10    2
    28     9    10    1
    29     9     8    2
    30     7     8    2
    31     7     5    1
    32     4     5    2
    33     5     6    2
