@<TRIPOS>MOLECULE
3tjz_GNP_A_1.pdb
 32 34 0 0 0
SMALL
GASTEIGER

@<TRIPOS>ATOM
      1  PG         8.6800  -60.4210   -1.7380 P.3   201  GNP201      0.4884
      2  O1G       10.1130  -60.8700   -1.8180 O.2   201  GNP201     -0.2331
      3  O2G        8.3590  -59.3060   -0.7540 O.3   201  GNP201     -0.1240
      4  O3G        7.9280  -61.7110   -1.5700 O.3   201  GNP201     -0.1240
      5  N3B        8.3240  -59.8590   -3.1860 N.3   201  GNP201     -0.0163
      6  PB         7.0460  -59.0120   -3.6290 P.3   201  GNP201      0.4669
      7  O1B        6.0680  -59.8980   -4.2970 O.2   201  GNP201     -0.2351
      8  O2B        6.5190  -58.2360   -2.4670 O.3   201  GNP201     -0.1253
      9  O3A        7.5620  -57.9660   -4.6330 O.3   201  GNP201     -0.2360
     10  PA         7.4530  -56.4460   -4.3530 P.3   201  GNP201      0.2220
     11  O1A        6.0470  -55.9860   -4.5550 O.2   201  GNP201     -0.5170
     12  O2A        8.1090  -56.0960   -3.0580 O.3   201  GNP201     -0.4370
     13  O5'        8.3450  -55.7390   -5.4120 O.3   201  GNP201     -0.3111
     14  C5'        8.5280  -56.3090   -6.6940 C.3   201  GNP201      0.1813
     15  C4'        9.4680  -55.4350   -7.4920 C.3   201  GNP201      0.1799
     16  O4'        8.8800  -55.1970   -8.7940 O.3   201  GNP201     -0.3326
     17  C3'        9.6610  -54.0400   -6.9300 C.3   201  GNP201      0.2158
     18  O3'       10.7810  -53.4580   -7.5670 O.3   201  GNP201     -0.2175
     19  C2'        8.3490  -53.3900   -7.3720 C.3   201  GNP201      0.2310
     20  O2'        8.3630  -51.9820   -7.4060 O.3   201  GNP201     -0.2158
     21  C1'        8.2510  -53.9320   -8.7860 C.3   201  GNP201      0.2293
     22  N9         6.8680  -54.0670   -9.2080 N.pl3 201  GNP201     -0.2354
     23  C8         5.7800  -54.4510   -8.4660 C.3   201  GNP201      0.2246
     24  N7         4.6880  -54.4460   -9.1790 N.2   201  GNP201     -0.2322
     25  C5         5.0740  -54.0360  -10.4580 C.2   201  GNP201      0.2182
     26  C6         4.3390  -53.8280  -11.6540 C.1   201  GNP201      0.2372
     27  O6         3.1260  -53.9690  -11.8760 O.2   201  GNP201     -0.2069
     28  N1         5.1590  -53.4020  -12.6870 N.2   201  GNP201     -0.2485
     29  C2         6.5160  -53.1990  -12.5970 C.1   201  GNP201      0.2531
     30  N2         7.1740  -52.7870  -13.6980 N.pl3 201  GNP201     -0.0226
     31  N3         7.2050  -53.3900  -11.4910 N.2   201  GNP201     -0.3074
     32  C4         6.4180  -53.8040  -10.4770 C.2   201  GNP201      0.2300
@<TRIPOS>BOND
     1    30    29    1
     2    28    29    2
     3    28    26    2
     4    29    31    2
     5    27    26    2
     6    26    25    1
     7    31    32    2
     8    32    25    1
     9    32    22    1
    10    25    24    2
    11    22    21    1
    12    22    23    1
    13    24    23    1
    14    16    21    1
    15    16    15    1
    16    21    19    1
    17    18    17    1
    18    15    17    1
    19    15    14    1
    20    20    19    1
    21    19    17    1
    22    14    13    1
    23    13    10    1
    24     9    10    1
    25     9     6    1
    26    11    10    2
    27    10    12    1
    28     7     6    2
    29     6     5    1
    30     6     8    1
    31     5     1    1
    32     2     1    2
    33     1     4    1
    34     1     3    1
