@<TRIPOS>MOLECULE
3tk1_GDP_A_1.pdb
 28 30 0 0 0
SMALL
GASTEIGER

@<TRIPOS>ATOM
      1  PB        -2.2180    0.1300  -18.1960 P.3   327  GDP327      0.5373
      2  O1B       -2.0380    1.0650  -19.3810 O.2   327  GDP327     -0.2221
      3  O2B       -3.6130   -0.4780  -18.0880 O.3   327  GDP327     -0.1143
      4  O3B       -1.8050    0.7850  -16.9100 O.3   327  GDP327     -0.1143
      5  O3A       -1.2560   -1.1420  -18.4890 O.3   327  GDP327     -0.2261
      6  PA         0.0890   -1.0260  -19.4140 P.3   327  GDP327      0.2231
      7  O1A        0.1840   -1.9100  -20.6410 O.2   327  GDP327     -0.5169
      8  O2A        0.4010    0.4450  -19.5370 O.3   327  GDP327     -0.4370
      9  O5'        1.2020   -1.6850  -18.4550 O.3   327  GDP327     -0.3111
     10  C5'        1.1640   -3.0770  -18.1460 C.3   327  GDP327      0.1813
     11  C4'        2.5620   -3.6630  -18.0790 C.3   327  GDP327      0.1799
     12  O4'        2.4710   -5.0300  -18.4960 O.3   327  GDP327     -0.3326
     13  C3'        3.5710   -2.9410  -18.9760 C.3   327  GDP327      0.2158
     14  O3'        4.7660   -2.5790  -18.2270 O.3   327  GDP327     -0.2175
     15  C2'        3.7790   -3.8980  -20.1590 C.3   327  GDP327      0.2310
     16  O2'        5.1690   -4.0550  -20.5140 O.3   327  GDP327     -0.2158
     17  C1'        3.1230   -5.2380  -19.7570 C.3   327  GDP327      0.2293
     18  N9         2.1170   -5.7420  -20.7430 N.pl3 327  GDP327     -0.2354
     19  C8         1.1670   -4.9840  -21.3350 C.3   327  GDP327      0.2246
     20  N7         0.3850   -5.7240  -22.1690 N.2   327  GDP327     -0.2322
     21  C5         0.8240   -6.9850  -22.1170 C.2   327  GDP327      0.2182
     22  C6         0.4310   -8.2410  -22.7650 C.1   327  GDP327      0.2372
     23  O6        -0.5140   -8.2790  -23.5780 O.2   327  GDP327     -0.2069
     24  N1         1.1300   -9.3390  -22.4580 N.2   327  GDP327     -0.2485
     25  C2         2.1640   -9.3200  -21.5860 C.1   327  GDP327      0.2531
     26  N2         2.8130  -10.4830  -21.3330 N.pl3 327  GDP327     -0.0226
     27  N3         2.5770   -8.1870  -20.9490 N.2   327  GDP327     -0.3074
     28  C4         1.9620   -7.0030  -21.1750 C.2   327  GDP327      0.2300
@<TRIPOS>BOND
     1    23    22    2
     2    22    24    2
     3    22    21    1
     4    24    25    2
     5    20    21    2
     6    20    19    1
     7    21    28    1
     8    25    26    1
     9    25    27    2
    10    19    18    1
    11    28    27    2
    12    28    18    1
    13    18    17    1
    14     7     6    2
    15    16    15    1
    16    15    17    1
    17    15    13    1
    18    17    12    1
    19     8     6    1
    20     6     5    1
    21     6     9    1
    22     2     1    2
    23    13    14    1
    24    13    11    1
    25    12    11    1
    26     5     1    1
    27     9    10    1
    28     1     3    1
    29     1     4    1
    30    10    11    1
