@<TRIPOS>MOLECULE
3tk2_PHE_A_1.pdb
 12 12 0 0 0
SMALL
GASTEIGER

@<TRIPOS>ATOM
      1  N          5.0910   -8.0660  -17.0100 N.3   298  PHE298     -0.1205
      2  CA         6.1950   -7.7130  -16.0650 C.3   298  PHE298      0.1986
      3  C          7.4980   -8.3110  -16.5690 C.2   298  PHE298      0.3822
      4  O          8.4770   -8.4640  -15.8120 O.co2 298  PHE298     -0.2440
      5  CB         5.9930   -8.2650  -14.6590 C.3   298  PHE298      0.0569
      6  CG         5.0510   -7.4180  -13.8680 C.ar  298  PHE298     -0.0202
      7  CD1        3.6960   -7.8150  -13.7200 C.ar  298  PHE298     -0.0042
      8  CD2        5.5270   -6.2140  -13.3290 C.ar  298  PHE298     -0.0042
      9  CE1        2.8040   -6.9950  -13.0240 C.ar  298  PHE298     -0.0003
     10  CE2        4.6010   -5.3860  -12.6400 C.ar  298  PHE298     -0.0003
     11  CZ         3.2500   -5.7760  -12.4830 C.ar  298  PHE298     -0.0000
     12  OXT        7.6000   -8.6650  -17.7130 O.co2 298  PHE298     -0.2440
@<TRIPOS>BOND
     1    12     3   ar
     2     1     2    1
     3     3     2    1
     4     3     4   ar
     5     2     5    1
     6     5     6    1
     7     6     7   ar
     8     6     8   ar
     9     7     9   ar
    10     8    10   ar
    11     9    11   ar
    12    10    11   ar
