@<TRIPOS>MOLECULE
3tk3_CPZ_A_1.pdb
 12 13 0 0 0
SMALL
GASTEIGER

@<TRIPOS>ATOM
      1  C11       86.3550  -29.0840    5.0910 C.ar  501  CPZ501      0.0021
      2  C10       85.2730  -29.7090    4.5240 C.ar  501  CPZ501      0.0114
      3  C9        85.2470  -29.9640    3.1710 C.ar  501  CPZ501      0.0577
      4  C8        86.3170  -29.5920    2.3700 C.ar  501  CPZ501      0.0114
      5  C7        87.4060  -28.9650    2.9520 C.ar  501  CPZ501      0.0021
      6  C6        87.4230  -28.7190    4.3120 C.ar  501  CPZ501      0.0156
      7  C4        88.5460  -28.0330    4.9730 C.2   501  CPZ501      0.0853
      8  C2        88.5040  -27.5250    6.2210 C.3   501  CPZ501      0.1726
      9  N1        89.7900  -26.9160    6.4650 N.2   501  CPZ501     -0.2436
     10  C5        90.5400  -27.0700    5.3840 C.2   501  CPZ501      0.1943
     11  N3        89.7810  -27.7750    4.4100 N.2   501  CPZ501     -0.2267
     12 CL         83.8610  -30.7540    2.5200 Cl    501  CPZ501     -0.0822
@<TRIPOS>BOND
     1     4     5   ar
     2     4     3   ar
     3    12     3    1
     4     5     6   ar
     5     3     2   ar
     6     6     7    1
     7     6     1   ar
     8    11     7    2
     9    11    10    1
    10     2     1   ar
    11     7     8    1
    12    10     9    2
    13     8     9    1
