@<TRIPOS>MOLECULE
3tk3_HEM_A_1.pdb
 43 50 0 0 0
SMALL
GASTEIGER

@<TRIPOS>ATOM
      1  CHA       87.0300  -26.0230    9.0260 C.2   500  HEM500      0.0000
      2  CHB       89.3990  -23.1240    5.9580 C.2   500  HEM500      0.0000
      3  CHC       93.5960  -25.4690    6.6550 C.2   500  HEM500      0.0000
      4  CHD       91.2780  -28.1500   10.0500 C.2   500  HEM500      0.0000
      5  C1A       87.3140  -25.0700    8.0800 C.ar  500  HEM500      0.0000
      6  C2A       86.3410  -24.2450    7.3930 C.ar  500  HEM500      0.0000
      7  C3A       87.0000  -23.4510    6.5590 C.ar  500  HEM500      0.0000
      8  C4A       88.4070  -23.7450    6.6730 C.ar  500  HEM500      0.0000
      9  CMA       86.3760  -22.4040    5.6190 C.3   500  HEM500      0.0000
     10  CAA       84.8140  -24.2610    7.5930 C.3   500  HEM500      0.0000
     11  CBA       84.5140  -23.5570    8.9000 C.3   500  HEM500      0.0000
     12  CGA       83.0300  -23.3850    9.0280 C.2   500  HEM500      0.0000
     13  O1A       82.4920  -23.9020   10.0390 O.co2 500  HEM500      0.0000
     14  O2A       82.3990  -22.7490    8.1330 O.co2 500  HEM500      0.0000
     15  C1B       90.7310  -23.4800    5.8900 C.2   500  HEM500      0.0000
     16  C2B       91.7220  -22.7750    5.1240 C.2   500  HEM500      0.0000
     17  C3B       92.8910  -23.3790    5.2830 C.2   500  HEM500      0.0000
     18  C4B       92.6960  -24.5290    6.1690 C.2   500  HEM500      0.0000
     19  CMB       91.4820  -21.5260    4.2540 C.3   500  HEM500      0.0000
     20  CAB       94.1380  -22.8080    4.5540 C.2   500  HEM500      0.0000
     21  CBB       95.3560  -23.3120    4.7260 C.2   500  HEM500      0.0000
     22  C1C       93.3350  -26.3860    7.6870 C.ar  500  HEM500      0.0000
     23  C2C       94.2780  -27.2680    8.3740 C.ar  500  HEM500      0.0000
     24  C3C       93.6140  -27.9970    9.2810 C.ar  500  HEM500      0.0000
     25  C4C       92.2370  -27.5970    9.2370 C.ar  500  HEM500      0.0000
     26  CMC       95.7810  -27.3670    8.0910 C.3   500  HEM500      0.0000
     27  CAC       94.1110  -29.0660   10.2840 C.2   500  HEM500      0.0000
     28  CBC       95.3950  -29.2510   10.5730 C.2   500  HEM500      0.0000
     29  C1D       89.9390  -27.8710   10.0750 C.2   500  HEM500      0.0000
     30  C2D       88.9730  -28.5630   10.8880 C.2   500  HEM500      0.0000
     31  C3D       87.6280  -27.9100   10.5790 C.2   500  HEM500      0.0000
     32  C4D       87.9340  -26.8820    9.6000 C.2   500  HEM500      0.0000
     33  CMD       89.2480  -29.7160   11.8570 C.3   500  HEM500      0.0000
     34  CAD       86.2570  -28.2670   11.1920 C.3   500  HEM500      0.0000
     35  CBD       86.1210  -27.4240   12.4500 C.3   500  HEM500      0.0000
     36  CGD       84.7600  -27.6240   13.0530 C.2   500  HEM500      0.0000
     37  O1D       84.6470  -27.5670   14.3010 O.co2 500  HEM500      0.0000
     38  O2D       83.7890  -27.8460   12.2890 O.co2 500  HEM500      0.0000
     39  NA        88.5720  -24.7380    7.6150 N.ar  500  HEM500      0.0000
     40  NB        91.3570  -24.5430    6.5120 N.2   500  HEM500      0.0000
     41  NC        92.0910  -26.6250    8.2600 N.ar  500  HEM500      0.0000
     42  ND        89.2970  -26.8880    9.3280 N.2   500  HEM500      0.0000
     43 FE         90.3320  -25.7190    7.8620 Fe    500  HEM500      0.0000
@<TRIPOS>BOND
     1    19    16    1
     2    20    21    2
     3    20    17    1
     4    16    17    2
     5    16    15    1
     6    17    18    1
     7     9     7    1
     8    15     2    1
     9    15    40    2
    10     2     8    2
    11    18    40    1
    12    18     3    2
    13    40    43    1
    14     7     8   ar
    15     7     6   ar
    16     3    22    1
    17     8    39   ar
    18     6    10    1
    19     6     5   ar
    20    10    11    1
    21    39    43    1
    22    39     5   ar
    23    22    41   ar
    24    22    23   ar
    25    43    41    1
    26    43    42    1
    27     5     1    2
    28    26    23    1
    29    14    12   ar
    30    41    25   ar
    31    23    24   ar
    32    11    12    1
    33     1    32    1
    34    12    13   ar
    35    25    24   ar
    36    25     4    1
    37    24    27    1
    38    42    32    2
    39    42    29    1
    40    32    31    1
    41     4    29    2
    42    29    30    1
    43    27    28    2
    44    31    30    2
    45    31    34    1
    46    30    33    1
    47    34    35    1
    48    38    36   ar
    49    35    36    1
    50    36    37   ar
