@<TRIPOS>MOLECULE
3tk5_D1Q_A_1.pdb
 36 39 0 0 0
SMALL
GASTEIGER

@<TRIPOS>ATOM
      1  C1        10.6210    8.0630   24.7550 C.ar  700  D1Q700      0.0175
      2  C2        11.9860    7.9190   24.9800 C.ar  700  D1Q700      0.0127
      3  C3        12.4120    7.4190   26.1990 C.ar  700  D1Q700      0.0578
      4  C4        11.5040    7.0560   27.2020 C.ar  700  D1Q700      0.0127
      5  C5        10.1330    7.1930   26.9770 C.ar  700  D1Q700      0.0175
      6  C6         9.6890    7.6950   25.7480 C.ar  700  D1Q700      0.0734
      7 CL7        14.1360    7.2440   26.4500 Cl    700  D1Q700     -0.0822
      8  N8         8.2840    7.6230   25.4520 N.am  700  D1Q700     -0.1792
      9  C9         7.5420    8.3360   24.6070 C.2   700  D1Q700      0.2459
     10  C10        6.0490    8.1770   24.7930 C.3   700  D1Q700      0.0919
     11  C11        5.2680    8.4310   23.4920 C.3   700  D1Q700      0.0373
     12  C12        3.8720    7.8060   23.6570 C.ar  700  D1Q700     -0.0063
     13  C13        3.4790    6.5870   23.0670 C.ar  700  D1Q700      0.0700
     14  C14        2.1810    6.1220   23.3090 C.ar  700  D1Q700      0.0229
     15  C15        1.2960    6.8480   24.1170 C.ar  700  D1Q700      0.0810
     16  C16        1.7020    8.0460   24.6960 C.ar  700  D1Q700      0.0063
     17  C17        2.9830    8.5280   24.4710 C.ar  700  D1Q700     -0.0028
     18  O18        7.9680    9.0880   23.7250 O.2   700  D1Q700     -0.2730
     19  N19        4.4050    5.8340   22.2320 N.am  700  D1Q700     -0.1731
     20  C20        4.7240    4.5440   22.1970 C.2   700  D1Q700      0.3047
     21  C21        5.6890    4.0930   21.1410 C.2   700  D1Q700      0.2117
     22  O22        4.2980    3.6990   22.9710 O.2   700  D1Q700     -0.2646
     23  C23       -0.0900    6.3340   24.3500 C.2   700  D1Q700      0.3878
     24  O24       -0.6710    6.5170   25.4650 O.co2 700  D1Q700     -0.2406
     25  O25       -0.6210    5.7190   23.3900 O.co2 700  D1Q700     -0.2406
     26  N26        6.3890    4.8600   20.2870 N.2   700  D1Q700     -0.3986
     27  C27        7.1540    4.0460   19.5090 C.2   700  D1Q700      0.1003
     28  C28        7.0230    2.7090   19.7760 C.3   700  D1Q700      0.1182
     29  S29        5.9240    2.4130   21.0390 S.3   700  D1Q700     -0.0704
     30  C30        7.7490    1.5790   19.0510 C.3   700  D1Q700      0.0902
     31  N31        8.4650    2.0830   17.8230 N.3   700  D1Q700     -0.2725
     32  C32        9.1010    3.4620   17.9570 C.3   700  D1Q700      0.0792
     33  C33        8.0890    4.5480   18.4090 C.3   700  D1Q700      0.0727
     34  C34        9.1990    1.0380   17.0470 C.3   700  D1Q700      0.0576
     35  C35        9.3150    1.4800   15.5850 C.3   700  D1Q700      0.0173
     36  C36       10.5720    0.6700   17.6420 C.3   700  D1Q700      0.0173
@<TRIPOS>BOND
     1    35    34    1
     2    34    36    1
     3    34    31    1
     4    31    32    1
     5    31    30    1
     6    32    33    1
     7    33    27    1
     8    30    28    1
     9    27    28    1
    10    27    26    2
    11    28    29    1
    12    26    21    2
    13    29    21    1
    14    21    20    1
    15    20    19   am
    16    20    22    2
    17    19    13    1
    18    13    14   ar
    19    13    12   ar
    20    14    15   ar
    21    25    23   ar
    22    11    12    1
    23    11    10    1
    24    12    17   ar
    25    18     9    2
    26    15    23    1
    27    15    16   ar
    28    23    24   ar
    29    17    16   ar
    30     9    10    1
    31     9     8   am
    32     1     2   ar
    33     1     6   ar
    34     2     3   ar
    35     8     6    1
    36     6     5   ar
    37     3     7    1
    38     3     4   ar
    39     5     4   ar
