@<TRIPOS>MOLECULE
3tk6_D46_A_1.pdb
 29 32 0 0 0
SMALL
GASTEIGER

@<TRIPOS>ATOM
      1  C1         3.3670    8.4230   25.9140 C.ar  700  D46700     -0.0002
      2 CL1        13.8620    7.6460   27.0720 Cl    700  D46700     -0.0752
      3  C2         4.6990    8.5750   25.5300 C.ar  700  D46700     -0.0013
      4  C3         5.2140    7.8230   24.4750 C.ar  700  D46700      0.0148
      5  C4         4.3960    6.9030   23.8050 C.ar  700  D46700      0.0714
      6  C5         3.0550    6.7280   24.2160 C.ar  700  D46700      0.0163
      7  C6         2.5660    7.4890   25.2700 C.ar  700  D46700      0.0013
      8  C7         6.6860    8.0470   24.0690 C.3   700  D46700      0.1431
      9  N8         7.5760    8.0490   25.2290 N.am  700  D46700     -0.1963
     10  C9         8.8190    8.5470   25.0410 C.2   700  D46700      0.2711
     11  C10        9.9130    8.1020   25.9860 C.ar  700  D46700      0.0853
     12  O11        9.1290    9.2180   24.0510 O.2   700  D46700     -0.2678
     13  N12        4.9640    6.1220   22.7230 N.am  700  D46700     -0.1731
     14  C13        5.0180    4.7950   22.6790 C.2   700  D46700      0.3047
     15  C14        5.9010    4.2450   21.6130 C.2   700  D46700      0.2117
     16  O15        4.4500    4.0580   23.4800 O.2   700  D46700     -0.2646
     17  S16       11.4690    8.5570   25.4480 S.2   700  D46700     -0.0709
     18  C17       12.1270    7.7790   26.7960 C.ar  700  D46700      0.0871
     19  C18       11.1980    7.2120   27.6290 C.ar  700  D46700      0.0186
     20  C19        9.8930    7.3940   27.1460 C.ar  700  D46700      0.0125
     21  N20        6.5240    5.0240   20.7240 N.2   700  D46700     -0.3986
     22  C21        7.2990    4.2280   19.9350 C.2   700  D46700      0.1003
     23  C22        7.2170    2.8870   20.2200 C.3   700  D46700      0.1182
     24  S23        6.2020    2.5620   21.5700 S.3   700  D46700     -0.0704
     25  C24        8.0050    1.8190   19.4360 C.3   700  D46700      0.0903
     26  N25        8.5390    2.3280   18.1060 N.3   700  D46700     -0.2700
     27  C26        9.1010    3.7290   18.1100 C.3   700  D46700      0.0793
     28  C27        8.1500    4.7690   18.7650 C.3   700  D46700      0.0727
     29  C28        9.4650    1.3970   17.4320 C.3   700  D46700      0.0897
@<TRIPOS>BOND
     1    29    26    1
     2    26    27    1
     3    26    25    1
     4    27    28    1
     5    28    22    1
     6    25    23    1
     7    22    23    1
     8    22    21    2
     9    23    24    1
    10    21    15    2
    11    24    15    1
    12    15    14    1
    13    14    13   am
    14    14    16    2
    15    13     5    1
    16     5     6   ar
    17     5     4   ar
    18    12    10    2
    19     8     4    1
    20     8     9    1
    21     6     7   ar
    22     4     3   ar
    23    10     9   am
    24    10    11    1
    25     7     1   ar
    26    17    11   ar
    27    17    18   ar
    28     3     1   ar
    29    11    20   ar
    30    18     2    1
    31    18    19   ar
    32    20    19   ar
