@<TRIPOS>MOLECULE
3tk7_F6R_A_1.pdb
 15 14 0 0 0
SMALL
GASTEIGER

@<TRIPOS>ATOM
      1  C1       -27.3700   -5.0510   33.7620 C.3   501  F6R501      0.1848
      2  C2       -26.1680   -4.6090   34.5910 C.3   501  F6R501      0.0711
      3  C3       -26.2920   -3.1730   35.0500 C.3   501  F6R501      0.1874
      4  C4       -26.0710   -2.1620   33.9170 C.3   501  F6R501      0.2148
      5  C5       -26.4200   -0.7670   34.4240 C.3   501  F6R501      0.2146
      6  C6       -26.2710    0.3180   33.3630 C.3   501  F6R501      0.1892
      7  O1       -28.1080   -6.0440   34.4830 O.3   501  F6R501     -0.2203
      8  O3       -25.3610   -2.9600   36.1050 O.3   501  F6R501     -0.2202
      9  O4       -24.7240   -2.1980   33.4390 O.3   501  F6R501     -0.2176
     10  O5       -27.7710   -0.8020   34.8900 O.3   501  F6R501     -0.2176
     11  O6       -26.6590    1.5710   33.9420 O.3   501  F6R501     -0.2674
     12  P        -26.0930    2.9350   33.3320 P.3   501  F6R501      0.5327
     13  O1P      -24.5940    2.7440   33.3460 O.3   501  F6R501     -0.1145
     14  O2P      -26.6070    3.9970   34.2590 O.3   501  F6R501     -0.1145
     15  O3P      -26.6710    3.0730   31.9490 O.2   501  F6R501     -0.2224
@<TRIPOS>BOND
     1    15    12    2
     2    12    13    1
     3    12    11    1
     4    12    14    1
     5     6    11    1
     6     6     5    1
     7     9     4    1
     8     1     7    1
     9     1     2    1
    10     4     5    1
    11     4     3    1
    12     5    10    1
    13     2     3    1
    14     3     8    1
