@<TRIPOS>MOLECULE
3tka_SAM_A_1.pdb
 27 29 0 0 0
SMALL
GASTEIGER

@<TRIPOS>ATOM
      1  N         32.9240   13.6260    5.7150 N.3   400  SAM400     -0.1208
      2  CA        32.4920   14.8810    5.0860 C.3   400  SAM400      0.1952
      3  C         33.1300   15.0920    3.7160 C.2   400  SAM400      0.3819
      4  O         33.8290   14.2020    3.2230 O.co2 400  SAM400     -0.2441
      5  OXT       32.9610   16.1340    3.0690 O.co2 400  SAM400     -0.2441
      6  CB        32.7850   16.0870    5.9690 C.3   400  SAM400      0.0414
      7  CG        32.3060   15.9550    7.4100 C.3   400  SAM400      0.0503
      8  SD        32.5230   17.4850    8.3660 S.3   400  SAM400     -0.1761
      9  CE        33.9110   16.9800    9.4320 C.3   400  SAM400      0.0590
     10  C5'       31.2440   17.2900    9.6280 C.3   400  SAM400      0.0806
     11  C4'       29.8790   17.6340    9.0600 C.3   400  SAM400      0.1622
     12  O4'       28.9190   17.0260    9.8840 O.3   400  SAM400     -0.3153
     13  C3'       29.6100   19.1350    9.0310 C.3   400  SAM400      0.2168
     14  O3'       29.0500   19.4460    7.7700 O.3   400  SAM400     -0.2175
     15  C2'       28.6090   19.3530   10.1660 C.3   400  SAM400      0.2569
     16  O2'       27.6240   20.3270    9.8810 O.3   400  SAM400     -0.2130
     17  C1'       27.9710   17.9690   10.2970 C.3   400  SAM400      0.3185
     18  N9        27.6030   17.6370   11.6640 N.pl3 400  SAM400     -0.1439
     19  C8        28.4200   17.6690   12.7710 C.3   400  SAM400      0.3377
     20  N7        27.7000   17.2860   13.8400 N.2   400  SAM400     -0.2095
     21  C5        26.4400   17.0090   13.4240 C.2   400  SAM400      0.2526
     22  C6        25.3110   16.5770   14.1000 C.2   400  SAM400      0.4393
     23  N6        25.3490   16.3640   15.4100 N.pl3 400  SAM400      0.2180
     24  N1        24.1490   16.3800   13.3840 N.2   400  SAM400      0.0021
     25  C2        24.1000   16.6020   12.0150 C.3   400  SAM400      0.5254
     26  N3        25.2150   17.0310   11.3480 N.2   400  SAM400     -0.0055
     27  C4        26.3620   17.2240   12.0490 C.2   400  SAM400      0.3518
@<TRIPOS>BOND
     1     5     3   ar
     2     4     3   ar
     3     3     2    1
     4     2     1    1
     5     2     6    1
     6     6     7    1
     7     7     8    1
     8    14    13    1
     9     8     9    1
    10     8    10    1
    11    13    11    1
    12    13    15    1
    13    11    10    1
    14    11    12    1
    15    16    15    1
    16    12    17    1
    17    15    17    1
    18    17    18    1
    19    26    25    1
    20    26    27    2
    21    18    27    1
    22    18    19    1
    23    25    24    1
    24    27    21    1
    25    19    20    1
    26    24    22    2
    27    21    20    2
    28    21    22    1
    29    22    23    1
