@<TRIPOS>MOLECULE
3tka_CTN_A_1.pdb
 17 18 0 0 0
SMALL
GASTEIGER

@<TRIPOS>ATOM
      1  O5'       24.6290   25.3280   32.1370 O.3   500  CTN500     -0.2176
      2  C5'       23.2960   25.4380   31.6300 C.3   500  CTN500      0.2142
      3  C4'       23.2150   26.4980   30.5600 C.3   500  CTN500      0.1829
      4  O4'       22.1610   26.1900   29.6090 O.3   500  CTN500     -0.3318
      5  C1'       21.6110   27.4090   29.1750 C.3   500  CTN500      0.2400
      6  N1        20.2890   27.1660   28.5320 N.am  500  CTN500     -0.1778
      7  C6        20.3270   26.9680   27.1660 C.2   500  CTN500      0.0836
      8  C5        19.2440   26.7410   26.4190 C.2   500  CTN500      0.0687
      9  C4        18.0090   26.7140   27.1240 C.2   500  CTN500      0.2346
     10  N3        17.9380   26.9050   28.4550 N.2   500  CTN500     -0.3024
     11  C2        19.0580   27.1360   29.1860 C.1   500  CTN500      0.2756
     12  O2        19.0090   27.3160   30.4050 O.2   500  CTN500     -0.1925
     13  N4        16.8790   26.4930   26.4430 N.pl3 500  CTN500     -0.0921
     14  C2'       21.6030   28.2960   30.4100 C.3   500  CTN500      0.2319
     15  O2'       21.4600   29.6670   30.0680 O.3   500  CTN500     -0.2157
     16  C3'       22.9610   27.9340   31.0430 C.3   500  CTN500      0.2159
     17  O3'       23.9700   28.7870   30.5120 O.3   500  CTN500     -0.2175
@<TRIPOS>BOND
     1     8     9    1
     2     8     7    2
     3    13     9    1
     4     9    10    2
     5     7     6    1
     6    10    11    2
     7     6     5    1
     8     6    11   am
     9     5     4    1
    10     5    14    1
    11    11    12    2
    12     4     3    1
    13    15    14    1
    14    14    16    1
    15    17    16    1
    16     3    16    1
    17     3     2    1
    18     2     1    1
