@<TRIPOS>MOLECULE
3tkc_FMV_A_1.pdb
 32 35 0 0 0
SMALL
GASTEIGER

@<TRIPOS>ATOM
      1  C1        14.1170   17.5990   35.7150 C.3     1  FMV1        0.1765
      2  O1        13.0860   16.9490   36.4780 O.3     1  FMV1       -0.2182
      3  C2        14.7840   16.6170   34.7500 C.3     1  FMV1        0.0707
      4  C3        15.8450   17.3110   33.8870 C.3     1  FMV1        0.1592
      5  O3        16.8620   17.8480   34.7430 O.3     1  FMV1       -0.2227
      6  C4        15.2240   18.4280   33.0470 C.3     1  FMV1        0.0591
      7  C5        14.3950   19.3720   33.8950 C.2     1  FMV1       -0.0213
      8  C6        14.4190   20.7070   33.6410 C.2     1  FMV1       -0.0051
      9  C7        13.6960   21.7430   34.3940 C.2     1  FMV1       -0.0088
     10  C8        13.4780   22.9690   33.8770 C.2     1  FMV1       -0.0446
     11  C9        13.9420   23.3750   32.4930 C.3     1  FMV1        0.0220
     12  C10       13.5730   18.7670   34.9410 C.2     1  FMV1        0.0039
     13  C11       12.8130   24.0540   31.6960 C.3     1  FMV1        0.0044
     14  C12       12.0290   25.1430   32.4490 C.3     1  FMV1        0.0006
     15  C13       11.6120   24.5880   33.8050 C.3     1  FMV1        0.0039
     16  C14       12.7970   24.0920   34.5900 C.3     1  FMV1        0.0183
     17  C15       12.2820   23.8260   36.0010 C.3     1  FMV1        0.0040
     18  C16       11.2970   24.9790   36.2080 C.3     1  FMV1        0.0008
     19  C17       11.1350   25.6230   34.8220 C.3     1  FMV1        0.0074
     20  C18       10.6300   23.4280   33.6310 C.3     1  FMV1        0.0003
     21  C19       12.3430   19.2080   35.1560 C.2     1  FMV1       -0.0024
     22  C20        9.7950   26.2760   34.5150 C.3     1  FMV1        0.0574
     23  C21        9.7470   27.6610   35.1630 C.3     1  FMV1        0.0080
     24  C22        8.5620   25.5760   34.9300 C.ar    1  FMV1        0.1221
     25  O22        7.4680   25.8500   34.1890 O.2     1  FMV1       -0.4596
     26  C23        8.3610   24.7210   36.0110 C.ar    1  FMV1        0.0358
     27  C24        7.0040   24.3960   35.9400 C.ar    1  FMV1        0.0382
     28  C25        6.5510   25.1080   34.8350 C.ar    1  FMV1        0.1497
     29  C26        5.1610   25.1510   34.3000 C.3     1  FMV1        0.1769
     30  O26        4.5120   26.3100   34.8560 O.3     1  FMV1       -0.2180
     31  C27        5.3160   25.3190   32.7940 C.3     1  FMV1        0.0408
     32  C28        4.3790   23.9030   34.6850 C.3     1  FMV1        0.0408
@<TRIPOS>BOND
     1    13    14    1
     2    13    11    1
     3    14    15    1
     4    11    10    1
     5    31    29    1
     6     6     4    1
     7     6     7    1
     8    20    15    1
     9     8     7    2
    10     8     9    1
    11    15    16    1
    12    15    19    1
    13    10     9    2
    14    10    16    1
    15     4     5    1
    16     4     3    1
    17     7    12    1
    18    25    28   ar
    19    25    24   ar
    20    29    32    1
    21    29    28    1
    22    29    30    1
    23    22    19    1
    24    22    24    1
    25    22    23    1
    26    16    17    1
    27     3     1    1
    28    19    18    1
    29    28    27   ar
    30    24    26   ar
    31    12    21    2
    32    12     1    1
    33     1     2    1
    34    27    26   ar
    35    17    18    1
