@<TRIPOS>MOLECULE
3tkd_GLU_A_1.pdb
 17 16 0 0 0
SMALL
GASTEIGER

@<TRIPOS>ATOM
      1  N         19.5920    6.7760    4.5530 N.3   264  GLU264     -0.3183
      2  CA        18.1450    6.9050    4.7940 C.3   264  GLU264      0.1082
      3  C         17.8720    7.0430    6.2870 C.2   264  GLU264      0.3724
      4  O         16.6750    7.1760    6.6330 O.co2 264  GLU264     -0.2446
      5  CB        17.3440    5.7220    4.1880 C.3   264  GLU264     -0.0170
      6  CG        17.1580    5.8240    2.6740 C.3   264  GLU264      0.0511
      7  CD        16.1190    6.8420    2.2260 C.2   264  GLU264      0.3561
      8  OE1       16.0880    7.1450    1.0080 O.co2 264  GLU264     -0.2464
      9  OE2       15.3480    7.3500    3.0460 O.co2 264  GLU264     -0.2464
     10  OXT       18.8660    7.0820    7.0450 O.co2 264  GLU264     -0.2446
     11  H2        19.7480    6.8610    3.5520 H     264  GLU264      0.1190
     12  H         19.9270    5.8930    4.8970 H     264  GLU264      0.1190
     13  HA        17.8270    7.8380    4.3280 H     264  GLU264      0.0575
     14  HB2       17.8450    4.7820    4.4190 H     264  GLU264      0.0291
     15  HB3       16.3600    5.6660    4.6560 H     264  GLU264      0.0291
     16  HG2       18.1110    6.0590    2.1950 H     264  GLU264      0.0380
     17  HG3       16.8740    4.8450    2.2860 H     264  GLU264      0.0380
@<TRIPOS>BOND
     1     8     7   ar
     2    16     6    1
     3     7     6    1
     4     7     9   ar
     5    17     6    1
     6     6     5    1
     7    11     1    1
     8     5    14    1
     9     5    15    1
    10     5     2    1
    11    13     2    1
    12     1     2    1
    13     1    12    1
    14     2     3    1
    15     3     4   ar
    16     3    10   ar
