@<TRIPOS>MOLECULE
3tkd_CYZ_A_1.pdb
 40 43 0 0 0
SMALL
GASTEIGER

@<TRIPOS>ATOM
      1  C1        34.7300   13.6010    6.5050 C.3   266  CYZ266     -0.0011
      2  C2        33.8900   14.5510    7.3920 C.3   266  CYZ266     -0.0166
      3  C3        33.9390   16.0010    6.8720 C.2   266  CYZ266     -0.0842
      4  C4        35.2330   16.4730    6.9540 C.2   266  CYZ266     -0.0845
      5  C5        35.9850   15.3420    7.6090 C.3   266  CYZ266     -0.0220
      6  C6        36.1340   14.2270    6.5390 C.3   266  CYZ266     -0.0404
      7  C7        34.8820   14.7880    8.5420 C.3   266  CYZ266     -0.0401
      8  C8        34.2780   13.4700    5.0550 C.3   266  CYZ266      0.0947
      9  N1        32.8680   13.2750    5.0980 N.3   266  CYZ266     -0.1696
     10  S1        32.1690   13.3100    3.5800 S.O2  266  CYZ266      0.0618
     11  C9        33.1390   12.0790    2.7800 C.ar  266  CYZ266      0.1280
     12  C10       34.4100   11.7510    3.3070 C.ar  266  CYZ266      0.0565
     13  N2        34.8850   12.3030    4.4410 N.pl3 266  CYZ266     -0.3256
     14  C11       32.5930   11.4970    1.6450 C.ar  266  CYZ266     -0.0057
     15  C12       33.3550   10.5100    1.0210 C.ar  266  CYZ266      0.1252
     16  C13       34.6140   10.1460    1.5290 C.ar  266  CYZ266      0.0691
     17  C14       35.1570   10.7520    2.6690 C.ar  266  CYZ266     -0.0186
     18 CL         35.5240    8.9520    0.7120 Cl    266  CYZ266     -0.0815
     19  S2        32.6540    9.6630   -0.3760 S.O2  266  CYZ266      0.0574
     20  O1        32.4700   14.5920    2.9720 O.2   266  CYZ266     -0.1529
     21  O2        30.7740   12.8240    3.7330 O.2   266  CYZ266     -0.1529
     22  O3        31.2190   10.0730   -0.3340 O.2   266  CYZ266     -0.1532
     23  O4        33.1270    8.2940   -0.2200 O.2   266  CYZ266     -0.1532
     24  N3        33.3860   10.3210   -1.7570 N.3   266  CYZ266     -0.2035
     25 H11A       34.7520   12.6150    6.9730 H     266  CYZ266      0.0338
     26  H21       32.9010   14.1980    7.6870 H     266  CYZ266      0.0347
     27 H31A       33.0870   16.5120    6.4480 H     266  CYZ266      0.0572
     28  H41       35.6280   17.4440    6.6890 H     266  CYZ266      0.0572
     29  H51       36.9040   15.6500    8.1100 H     266  CYZ266      0.0343
     30  H61       36.4480   14.6350    5.5770 H     266  CYZ266      0.0275
     31  H62       36.8750   13.4880    6.8470 H     266  CYZ266      0.0275
     32  H71       34.5270   15.5200    9.2700 H     266  CYZ266      0.0277
     33  H72       35.1680   13.8770    9.0730 H     266  CYZ266      0.0277
     34  H81       34.5070   14.3700    4.4780 H     266  CYZ266      0.0685
     35  HN1       32.5810   12.4400    5.6060 H     266  CYZ266      0.1501
     36  HN2       35.8620   12.1620    4.6680 H     266  CYZ266      0.1477
     37  H11       31.6150   11.7840    1.2880 H     266  CYZ266      0.0658
     38  H14       36.1310   10.4550    3.0260 H     266  CYZ266      0.0652
     39  H31       33.4280   11.3310   -1.6410 H     266  CYZ266      0.1442
     40  H32       32.8190   10.0800   -2.5680 H     266  CYZ266      0.1442
@<TRIPOS>BOND
     1    40    24    1
     2    24    39    1
     3    24    19    1
     4    19    22    2
     5    19    23    2
     6    19    15    1
     7    18    16    1
     8    15    16   ar
     9    15    14   ar
    10    37    14    1
    11    16    17   ar
    12    14    11   ar
    13    17    38    1
    14    17    12   ar
    15    11    12   ar
    16    11    10    1
    17    20    10    2
    18    12    13    1
    19    10    21    2
    20    10     9    1
    21    13    36    1
    22    13     8    1
    23    34     8    1
    24     8     9    1
    25     8     1    1
    26     9    35    1
    27    30     6    1
    28    27     3    1
    29     1     6    1
    30     1    25    1
    31     1     2    1
    32     6    31    1
    33     6     5    1
    34    28     4    1
    35     3     4    2
    36     3     2    1
    37     4     5    1
    38     2    26    1
    39     2     7    1
    40     5    29    1
    41     5     7    1
    42     7    33    1
    43     7    32    1
