@<TRIPOS>MOLECULE
3tkf_I22_A_1.pdb
 18 17 0 0 0
SMALL
GASTEIGER

@<TRIPOS>ATOM
      1  O8        16.3770    7.5070   22.1870 O.3   322  I22322     -0.1145
      2  P1        14.9000    7.3650   21.9640 P.3   322  I22322      0.5327
      3  O9        14.5580    6.1350   21.1480 O.2   322  I22322     -0.2224
      4  O10       14.1050    7.5150   23.2560 O.3   322  I22322     -0.1145
      5  O7        14.4440    8.5930   21.0420 O.3   322  I22322     -0.2674
      6  C7        14.7990    9.9280   21.3970 C.3   322  I22322      0.1892
      7  C6        14.6540   10.8340   20.1910 C.3   322  I22322      0.2147
      8  O6        13.2870   10.7570   19.7310 O.3   322  I22322     -0.2176
      9  C5        15.0220   12.2530   20.5310 C.3   322  I22322      0.2178
     10  O5        16.3820   12.2350   20.9820 O.3   322  I22322     -0.2175
     11  C4        14.9180   13.2060   19.3400 C.3   322  I22322      0.2221
     12  O4        13.5330   13.2940   18.9370 O.3   322  I22322     -0.2171
     13  C3        15.4300   14.6070   19.7120 C.3   322  I22322      0.2440
     14  O3        14.4530   15.3610   20.4790 O.3   322  I22322     -0.2122
     15  C2        15.8560   15.3840   18.5090 C.2   322  I22322      0.2165
     16  O2        16.2320   14.8670   17.4650 O.2   322  I22322     -0.2905
     17  C1        15.8920   16.8510   18.6810 C.3   322  I22322      0.2486
     18  O1        16.6160   17.4570   17.6100 O.3   322  I22322     -0.2118
@<TRIPOS>BOND
     1    16    15    2
     2    18    17    1
     3    15    17    1
     4    15    13    1
     5    12    11    1
     6    11    13    1
     7    11     9    1
     8    13    14    1
     9     8     7    1
    10     7     9    1
    11     7     6    1
    12     9    10    1
    13     5     6    1
    14     5     2    1
    15     3     2    2
    16     2     1    1
    17     2     4    1
