@<TRIPOS>MOLECULE
3tkg_ROC_B_1.pdb
 50 53 0 0 0
SMALL
GASTEIGER

@<TRIPOS>ATOM
      1  C         16.5290    5.9390   -7.4180 C.2   801  ROC801      0.2949
      2  C         13.7670   -1.6380    1.7680 C.3   801  ROC801      0.0000
      3  O         16.7090    7.0350   -6.9360 O.2   801  ROC801     -0.2655
      4  N1        16.8930    4.3890   -9.3370 N.2   801  ROC801     -0.3973
      5  C2        17.3700    5.4260   -8.6100 C.2   801  ROC801      0.1861
      6  C3        18.5770    6.0100   -8.9190 C.2   801  ROC801      0.0369
      7  C4        19.2840    5.5450  -10.0430 C.2   801  ROC801      0.0050
      8  C5        19.5100    3.9200  -11.8000 C.2   801  ROC801     -0.0189
      9  C6        18.9650    2.8820  -12.5480 C.3   801  ROC801      0.0522
     10  C7        17.7360    2.3310  -12.2020 C.2   801  ROC801     -0.0188
     11  C8        17.0140    2.8480  -11.1420 C.2   801  ROC801      0.0278
     12  C4A       18.8100    4.4240  -10.7110 C.2   801  ROC801      0.0257
     13  C8A       17.5510    3.9060  -10.3860 C.2   801  ROC801      0.1309
     14  N         15.5860    5.0680   -7.0410 N.am  801  ROC801     -0.1913
     15  CA        14.7400    5.2580   -5.8620 C.3   801  ROC801      0.1823
     16  C1        14.7890    4.0100   -4.9670 C.2   801  ROC801      0.2618
     17  O1        14.0160    3.0780   -5.1760 O.2   801  ROC801     -0.2715
     18  CB        13.2880    5.5310   -6.3110 C.3   801  ROC801      0.1195
     19  CG        13.2860    6.8070   -7.1660 C.2   801  ROC801      0.2630
     20  OD1       13.1130    6.7880   -8.3830 O.2   801  ROC801     -0.2716
     21  ND2       13.5180    7.9390   -6.5100 N.am  801  ROC801     -0.0877
     22  C9        15.6050    3.4990   -1.6310 C.3   801  ROC801      0.1879
     23  O2        16.6120    4.3770   -1.1460 O.3   801  ROC801     -0.2198
     24  CA1       15.9550    2.9880   -3.0410 C.3   801  ROC801      0.1313
     25  N2        15.7100    4.0540   -4.0200 N.am  801  ROC801     -0.2027
     26  CB1       17.3880    2.4540   -3.1430 C.3   801  ROC801      0.0506
     27  CG1       17.8380    2.4050   -4.6100 C.ar  801  ROC801     -0.0204
     28  CD1       17.3670    1.3740   -5.4280 C.ar  801  ROC801     -0.0042
     29  CD2       18.7070    3.3510   -5.1090 C.ar  801  ROC801     -0.0042
     30  CE1       17.7710    1.3650   -6.7520 C.ar  801  ROC801     -0.0003
     31  CE2       19.1010    3.3380   -6.4360 C.ar  801  ROC801     -0.0003
     32  CZ        18.6490    2.3090   -7.2580 C.ar  801  ROC801     -0.0000
     33  N11       14.1020    1.7790   -0.7040 N.3   801  ROC801     -0.2643
     34  CM        15.4440    2.3740   -0.6070 C.3   801  ROC801      0.1075
     35  C21       14.0740    0.3910   -0.2690 C.3   801  ROC801      0.1365
     36  CC        15.1170   -0.4560   -0.9960 C.2   801  ROC801      0.2558
     37  O3        15.3430   -0.3830   -2.2050 O.2   801  ROC801     -0.2719
     38  C31       12.6910   -0.2360   -0.4050 C.3   801  ROC801      0.0254
     39  C3A       11.6840    0.6080    0.3970 C.3   801  ROC801      0.0032
     40  C41       10.2710    0.0760    0.1810 C.3   801  ROC801      0.0001
     41  C51        9.7930    0.2010   -1.2710 C.3   801  ROC801      0.0000
     42  C61        9.9360    1.6220   -1.8060 C.3   801  ROC801      0.0000
     43  C71       11.4320    2.0000   -1.6420 C.3   801  ROC801      0.0014
     44  C7A       11.7520    2.0560   -0.1380 C.3   801  ROC801      0.0161
     45  C81       13.1670    2.5960    0.0880 C.3   801  ROC801      0.0725
     46  N3        15.7610   -1.2860   -0.1610 N.am  801  ROC801     -0.2077
     47  CD        16.7590   -2.2520   -0.6340 C.3   801  ROC801      0.0788
     48  C11       17.3940   -2.9010    0.6070 C.3   801  ROC801      0.0217
     49  C22       17.8390   -1.4920   -1.4090 C.3   801  ROC801      0.0217
     50  C32       16.0450   -3.2970   -1.4950 C.3   801  ROC801      0.0217
@<TRIPOS>BOND
     1     9    10    1
     2     9     8    1
     3    10    11    2
     4     8    12    2
     5    11    13    1
     6    12    13    1
     7    12     7    1
     8    13     4    2
     9     7     6    2
    10     4     5    2
    11     6     5    1
    12     5     1    1
    13    20    19    2
    14     1    14   am
    15     1     3    2
    16    32    30   ar
    17    32    31   ar
    18    19    21   am
    19    19    18    1
    20    14    15    1
    21    30    28   ar
    22    31    29   ar
    23    18    15    1
    24    15    16    1
    25    28    27   ar
    26    17    16    2
    27    29    27   ar
    28    16    25   am
    29    27    26    1
    30    25    24    1
    31    26    24    1
    32    24    22    1
    33    37    36    2
    34    42    43    1
    35    42    41    1
    36    43    44    1
    37    22    23    1
    38    22    34    1
    39    50    47    1
    40    49    47    1
    41    41    40    1
    42    36    35    1
    43    36    46   am
    44    33    34    1
    45    33    35    1
    46    33    45    1
    47    47    46    1
    48    47    48    1
    49    38    35    1
    50    38    39    1
    51    44    45    1
    52    44    39    1
    53    40    39    1
