@<TRIPOS>MOLECULE
3tkh_07S_A_1.pdb
 33 37 0 0 0
SMALL
GASTEIGER

@<TRIPOS>ATOM
      1  C1        11.5160   -2.1470   12.3520 C.ar  325  07S325      0.0989
      2  C2        12.5040   -3.0730   12.0860 C.ar  325  07S325      0.0207
      3  C3        13.5850   -2.6620   11.3270 C.ar  325  07S325      0.0037
      4  C4        13.6230   -1.3650   10.8410 C.ar  325  07S325      0.0268
      5  C5        12.5750   -0.5240   11.1600 C.ar  325  07S325      0.0994
      6  N6        11.5200   -0.8800   11.9080 N.ar  325  07S325     -0.2423
      7  C11       14.7590   -0.8600   10.0890 C.ar  325  07S325      0.0528
      8  S12       16.2510   -1.7110   10.0300 S.2   325  07S325     -0.0496
      9  C13       16.9780   -0.3950    9.1740 C.ar  325  07S325      0.1848
     10  N14       16.1520    0.6010    8.9180 N.ar  325  07S325     -0.2210
     11  C15       14.9130    0.3450    9.4360 C.ar  325  07S325      0.1074
     12  N16       18.2770   -0.3330    8.7720 N.pl3 325  07S325     -0.1697
     13  C17       19.2550   -1.3180    8.9760 C.ar  325  07S325      0.1549
     14  N18       18.9900   -2.4550    9.6280 N.ar  325  07S325     -0.2272
     15  C19       19.9860   -3.3340    9.7640 C.ar  325  07S325      0.1016
     16  C20       21.2570   -3.1430    9.2750 C.ar  325  07S325      0.0353
     17  C21       21.5390   -1.9760    8.5920 C.ar  325  07S325      0.0523
     18  C22       20.5100   -1.0550    8.4530 C.ar  325  07S325      0.0507
     19  N26       22.8530   -1.7470    8.1070 N.pl3 325  07S325     -0.3045
     20  C27       23.7690   -2.8800    8.0740 C.3   325  07S325      0.1081
     21  C28       25.1400   -2.3550    8.4590 C.3   325  07S325      0.0942
     22  N29       25.4710   -1.1440    7.6410 N.3   325  07S325     -0.2620
     23  C30       24.4290   -0.0800    7.4960 C.3   325  07S325      0.0942
     24  C31       23.0740   -0.6710    7.1520 C.3   325  07S325      0.1081
     25  C40       26.7460   -0.5380    8.0960 C.3   325  07S325      0.1587
     26  C41       27.7720   -0.7340    7.0220 C.2   325  07S325      0.2422
     27  N44       28.9300   -1.3190    7.4980 N.am  325  07S325     -0.2733
     28  C45       30.1500   -0.5380    7.5880 C.3   325  07S325      0.1255
     29  C46       30.9350   -0.9000    8.8380 C.3   325  07S325      0.1636
     30  O47       31.0850   -2.3220    8.9280 O.3   325  07S325     -0.3501
     31  C48       29.8190   -2.9870    9.0350 C.3   325  07S325      0.1636
     32  C49       29.0020   -2.7420    7.7760 C.3   325  07S325      0.1255
     33  O58       27.5650   -0.3850    5.8670 O.2   325  07S325     -0.2734
@<TRIPOS>BOND
     1    33    26    2
     2    26    27   am
     3    26    25    1
     4    24    23    1
     5    24    19    1
     6    23    22    1
     7    27    28    1
     8    27    32    1
     9    28    29    1
    10    22    25    1
    11    22    21    1
    12    32    31    1
    13    20    19    1
    14    20    21    1
    15    19    17    1
    16    18    17   ar
    17    18    13   ar
    18    17    16   ar
    19    12    13    1
    20    12     9    1
    21    29    30    1
    22    10     9   ar
    23    10    11   ar
    24    30    31    1
    25    13    14   ar
    26     9     8   ar
    27    16    15   ar
    28    11     7   ar
    29    14    15   ar
    30     8     7   ar
    31     7     4    1
    32     4     5   ar
    33     4     3   ar
    34     5     6   ar
    35     3     2   ar
    36     6     1   ar
    37     2     1   ar
