@<TRIPOS>MOLECULE
3tki_S25_A_1.pdb
 30 33 0 0 0
SMALL
GASTEIGER

@<TRIPOS>ATOM
      1  C         23.5040   -2.7800    8.0990 C.3   325  S25325      0.1231
      2  N         22.5550   -1.6670    8.0230 N.pl3 325  S25325     -0.3027
      3  O         23.7560   -2.5540    5.7210 O.3   325  S25325     -0.3501
      4  S         15.9950   -1.5420   10.1210 S.2   325  S25325     -0.0496
      5  C1        23.5330   -3.5060    6.7670 C.3   325  S25325      0.1636
      6  C2        22.6500   -1.6520    5.6010 C.3   325  S25325      0.1636
      7  C3        22.5820   -0.7910    6.8510 C.3   325  S25325      0.1231
      8  C4        13.3620   -1.1200   10.9120 C.ar  325  S25325      0.0269
      9  C5        13.3150   -2.3430   11.5720 C.ar  325  S25325      0.0082
     10  C6        12.2170   -2.5940   12.3860 C.ar  325  S25325      0.0742
     11  C7        11.2350   -1.6320   12.4890 C.ar  325  S25325      0.1034
     12  N8        11.2400   -0.4490   11.8520 N.ar  325  S25325     -0.2422
     13  C9        12.3260   -0.2260   11.1010 C.ar  325  S25325      0.0994
     14  C10       16.7370   -0.2540    9.2330 C.ar  325  S25325      0.1848
     15  C11       14.5080   -0.6780   10.1340 C.ar  325  S25325      0.0528
     16  C12       14.6770    0.5110    9.4520 C.ar  325  S25325      0.1074
     17  N13       15.9260    0.7410    8.9430 N.ar  325  S25325     -0.2210
     18  C14       21.0320   -3.0120    9.3910 C.ar  325  S25325      0.0353
     19  C15       19.7940   -3.1500    9.9780 C.ar  325  S25325      0.1016
     20  N16       18.7930   -2.2740    9.8470 N.ar  325  S25325     -0.2272
     21  C17       19.0090   -1.2020    9.0760 C.ar  325  S25325      0.1549
     22  C18       20.2350   -0.9920    8.4730 C.ar  325  S25325      0.0507
     23  C19       21.2750   -1.8990    8.6070 C.ar  325  S25325      0.0524
     24  N20       18.0420   -0.2130    8.8430 N.pl3 325  S25325     -0.1697
     25  C21       12.0230   -3.8400   13.1550 C.2   325  S25325      0.2663
     26  O22       10.9660   -3.9920   13.7680 O.2   325  S25325     -0.2683
     27  N23       13.0790   -4.7220   13.1570 N.am  325  S25325     -0.2000
     28  C24       13.0040   -5.9670   13.8920 C.3   325  S25325      0.1359
     29  C25       14.1020   -6.0830   14.9330 C.3   325  S25325      0.1327
     30  N26       14.1750   -4.8330   15.7470 N.3   325  S25325     -0.1294
@<TRIPOS>BOND
     1     6     3    1
     2     6     7    1
     3     3     5    1
     4     5     1    1
     5     7     2    1
     6     2     1    1
     7     2    23    1
     8    22    23   ar
     9    22    21   ar
    10    23    18   ar
    11    24    21    1
    12    24    14    1
    13    17    14   ar
    14    17    16   ar
    15    21    20   ar
    16    14     4   ar
    17    18    19   ar
    18    16    15   ar
    19    20    19   ar
    20     4    15   ar
    21    15     8    1
    22     8    13   ar
    23     8     9   ar
    24    13    12   ar
    25     9    10   ar
    26    12    11   ar
    27    10    11   ar
    28    10    25    1
    29    25    27   am
    30    25    26    2
    31    27    28    1
    32    28    29    1
    33    29    30    1
