@<TRIPOS>MOLECULE
3tkl_GTP_A_1.pdb
 32 34 0 0 0
SMALL
GASTEIGER

@<TRIPOS>ATOM
      1  PG        10.9270  -11.4170  -19.1540 P.3   301  GTP301      0.5373
      2  O1G       11.3080  -12.3600  -18.0130 O.3   301  GTP301     -0.1143
      3  O2G       11.9310  -10.2590  -19.0740 O.2   301  GTP301     -0.2221
      4  O3G        9.5120  -10.9550  -18.9740 O.3   301  GTP301     -0.1143
      5  O3B       11.0600  -12.1550  -20.6010 O.3   301  GTP301     -0.2258
      6  PB        12.2130  -12.9770  -21.1850 P.3   301  GTP301      0.2277
      7  O1B       13.1210  -12.0970  -21.9910 O.2   301  GTP301     -0.5168
      8  O2B       12.9620  -13.7480  -20.1640 O.3   301  GTP301     -0.4368
      9  O3A       11.5220  -13.9970  -22.2460 O.3   301  GTP301     -0.2700
     10  PA        11.5500  -15.5570  -22.0500 P.3   301  GTP301      0.2189
     11  O1A       13.0400  -16.0010  -22.0890 O.2   301  GTP301     -0.5170
     12  O2A       10.7820  -15.9820  -20.8000 O.3   301  GTP301     -0.4371
     13  O5'       10.8630  -16.0910  -23.3460 O.3   301  GTP301     -0.3112
     14  C5'        9.7550  -15.5010  -23.8270 C.3   301  GTP301      0.1813
     15  C4'        8.9700  -16.3120  -24.7480 C.3   301  GTP301      0.1799
     16  O4'        9.5350  -16.1700  -26.0730 O.3   301  GTP301     -0.3326
     17  C3'        9.1110  -17.7530  -24.4100 C.3   301  GTP301      0.2158
     18  O3'        8.0240  -18.2070  -23.6820 O.3   301  GTP301     -0.2175
     19  C2'        9.1340  -18.4290  -25.7010 C.3   301  GTP301      0.2310
     20  O2'        7.8600  -18.7490  -26.0860 O.3   301  GTP301     -0.2158
     21  C1'        9.6280  -17.4330  -26.6740 C.3   301  GTP301      0.2293
     22  N9        10.9580  -17.7220  -27.1400 N.pl3 301  GTP301     -0.2354
     23  C8        12.0940  -17.5880  -26.5140 C.3   301  GTP301      0.2246
     24  N7        13.0710  -17.9350  -27.1760 N.2   301  GTP301     -0.2322
     25  C5        12.7300  -18.3790  -28.3780 C.2   301  GTP301      0.2182
     26  C6        13.2920  -18.8780  -29.5290 C.1   301  GTP301      0.2372
     27  O6        14.6910  -19.0380  -29.6420 O.2   301  GTP301     -0.2069
     28  N1        12.5190  -19.2330  -30.5800 N.2   301  GTP301     -0.2485
     29  C2        11.1650  -19.1020  -30.5580 C.1   301  GTP301      0.2531
     30  N2        10.4080  -19.4740  -31.6530 N.pl3 301  GTP301     -0.0226
     31  N3        10.5700  -18.6260  -29.4710 N.2   301  GTP301     -0.3074
     32  C4        11.2710  -18.2730  -28.4020 C.2   301  GTP301      0.2300
@<TRIPOS>BOND
     1    30    29    1
     2    28    29    2
     3    28    26    2
     4    29    31    2
     5    27    26    2
     6    26    25    1
     7    31    32    2
     8    32    25    1
     9    32    22    1
    10    25    24    2
    11    24    23    1
    12    22    21    1
    13    22    23    1
    14    21    16    1
    15    21    19    1
    16    20    19    1
    17    16    15    1
    18    19    17    1
    19    15    17    1
    20    15    14    1
    21    17    18    1
    22    14    13    1
    23    13    10    1
    24     9    10    1
    25     9     6    1
    26    11    10    2
    27    10    12    1
    28     7     6    2
    29     6     5    1
    30     6     8    1
    31     5     1    1
    32     1     3    2
    33     1     4    1
    34     1     2    1
