@<TRIPOS>MOLECULE
3tkm_GW0_A_1.pdb
 31 33 0 0 0
SMALL
GASTEIGER

@<TRIPOS>ATOM
      1  CAA        4.8670    6.9830   29.2390 C.3     1  GW01        0.0342
      2  CAB       10.9620    4.7300   26.7940 C.3     1  GW01        0.0624
      3  OAC        7.0120   10.9350   24.9670 O.co2   1  GW01       -0.2415
      4  OAD        5.3840    9.6060   24.9310 O.co2   1  GW01       -0.2415
      5  FAE       12.8320    3.7960   33.9580 F       1  GW01       -0.2042
      6  FAF       11.4840    3.4920   36.1250 F       1  GW01       -0.1658
      7  FAG       10.4250    1.8530   36.1910 F       1  GW01       -0.1658
      8  FAH       12.3150    1.7620   35.7210 F       1  GW01       -0.1658
      9  CAI        7.2190    5.8440   25.9160 C.ar    1  GW01        0.0092
     10  CAJ        9.7860    2.1920   32.1300 C.ar    1  GW01        0.0031
     11  CAK        6.9770    7.1720   26.1770 C.ar    1  GW01        0.0371
     12  CAL        9.9320    2.0030   33.4830 C.ar    1  GW01        0.0062
     13  CAM        5.9410    5.2770   27.7940 C.ar    1  GW01        0.0049
     14  CAN       11.7070    3.5050   31.9840 C.ar    1  GW01        0.0326
     15  CAO        6.6530    9.7730   26.9060 C.3     1  GW01        0.3186
     16  CAP        8.7230    2.9860   26.4070 C.3     1  GW01        0.0801
     17  NAQ       11.0100    3.9220   29.1750 N.2     1  GW01       -0.4034
     18  OAR        5.9490    8.7930   27.5210 O.3     1  GW01       -0.4640
     19  SAS        6.9190    3.1820   26.4680 S.3     1  GW01       -0.1123
     20  SAT        9.1840    2.3510   29.1170 S.3     1  GW01       -0.0756
     21  CAU        6.3030   10.1300   25.4930 C.2     1  GW01        0.4084
     22  CAV        5.7100    6.5970   28.0570 C.ar    1  GW01        0.0126
     23  CAW       10.4940    3.9240   27.9640 C.2     1  GW01        0.0986
     24  CAX        6.6960    4.8760   26.7250 C.ar    1  GW01        0.0251
     25  CAY       11.8430    3.3000   33.3200 C.ar    1  GW01        0.1441
     26  CAZ       10.6590    2.9160   31.3470 C.ar    1  GW01        0.0378
     27  CBA        6.2170    7.5460   27.2430 C.ar    1  GW01        0.1354
     28  CBB        9.4470    3.1190   27.7460 C.3     1  GW01        0.1132
     29  CBC       10.9900    2.5910   34.0770 C.ar    1  GW01        0.0988
     30  CBD       10.4050    3.1160   29.9940 C.2     1  GW01        0.1565
     31  CBE       11.3030    2.4440   35.5620 C.3     1  GW01        0.4207
@<TRIPOS>BOND
     1     4    21   ar
     2     3    21   ar
     3    21    15    1
     4     9    11   ar
     5     9    24   ar
     6    11    27   ar
     7    16    19    1
     8    16    28    1
     9    19    24    1
    10    24    13   ar
    11     2    23    1
    12    15    18    1
    13    27    18    1
    14    27    22   ar
    15    28    23    1
    16    28    20    1
    17    13    22   ar
    18    23    17    2
    19    22     1    1
    20    20    30    1
    21    17    30    2
    22    30    26    1
    23    26    14   ar
    24    26    10   ar
    25    14    25   ar
    26    10    12   ar
    27    25     5    1
    28    25    29   ar
    29    12    29   ar
    30    29    31    1
    31    31     8    1
    32    31     6    1
    33    31     7    1
