@<TRIPOS>MOLECULE
3tkt_HEM_A_1.pdb
 43 50 0 0 0
SMALL
GASTEIGER

@<TRIPOS>ATOM
      1  CHA       14.1940   26.6960  123.7800 C.2   431  HEM431      0.0000
      2  CHB       10.7220   29.9620  123.1120 C.2   431  HEM431      0.0000
      3  CHC        8.7660   27.0640  119.7590 C.2   431  HEM431      0.0000
      4  CHD       12.0920   23.6710  120.5780 C.2   431  HEM431      0.0000
      5  C1A       13.4620   27.8560  123.8870 C.2   431  HEM431      0.0000
      6  C2A       13.7930   29.0140  124.7260 C.2   431  HEM431      0.0000
      7  C3A       12.8150   29.9180  124.5600 C.2   431  HEM431      0.0000
      8  C4A       11.8690   29.3630  123.5830 C.2   431  HEM431      0.0000
      9  CMA       12.6800   31.3200  125.2330 C.3   431  HEM431      0.0000
     10  CAA       15.0300   29.1320  125.6630 C.3   431  HEM431      0.0000
     11  CBA       16.0340   30.0800  125.0100 C.3   431  HEM431      0.0000
     12  CGA       17.1100   30.5310  125.9780 C.2   431  HEM431      0.0000
     13  O1A       17.8730   31.4760  125.6380 O.co2 431  HEM431      0.0000
     14  O2A       17.1980   29.9850  127.1160 O.co2 431  HEM431      0.0000
     15  C1B        9.8960   29.4750  122.1150 C.ar  431  HEM431      0.0000
     16  C2B        8.7510   30.1570  121.5330 C.ar  431  HEM431      0.0000
     17  C3B        8.1980   29.3530  120.6150 C.ar  431  HEM431      0.0000
     18  C4B        8.9800   28.1300  120.6020 C.ar  431  HEM431      0.0000
     19  CMB        8.3350   31.5580  121.9800 C.3   431  HEM431      0.0000
     20  CAB        6.9640   29.5780  119.6850 C.2   431  HEM431      0.0000
     21  CBB        6.5020   30.8100  119.4610 C.2   431  HEM431      0.0000
     22  C1C        9.4960   25.9160  119.6540 C.2   431  HEM431      0.0000
     23  C2C        9.2300   24.8120  118.7380 C.2   431  HEM431      0.0000
     24  C3C       10.1630   23.8750  118.9910 C.2   431  HEM431      0.0000
     25  C4C       11.0130   24.3580  120.0540 C.2   431  HEM431      0.0000
     26  CMC        8.0640   24.7640  117.6940 C.3   431  HEM431      0.0000
     27  CAC       10.3760   22.4920  118.3450 C.2   431  HEM431      0.0000
     28  CBC        9.3560   21.7600  117.8940 C.2   431  HEM431      0.0000
     29  C1D       12.9410   24.1360  121.5550 C.ar  431  HEM431      0.0000
     30  C2D       13.9990   23.3940  122.1270 C.ar  431  HEM431      0.0000
     31  C3D       14.6400   24.3330  123.1130 C.ar  431  HEM431      0.0000
     32  C4D       13.9080   25.5730  123.0430 C.ar  431  HEM431      0.0000
     33  CMD       14.4200   21.9410  121.8570 C.3   431  HEM431      0.0000
     34  CAD       15.8450   24.0180  124.0020 C.3   431  HEM431      0.0000
     35  CBD       17.0520   24.6720  123.3090 C.3   431  HEM431      0.0000
     36  CGD       18.3010   24.5160  124.1500 C.2   431  HEM431      0.0000
     37  O1D       19.4080   24.5490  123.5610 O.co2 431  HEM431      0.0000
     38  O2D       18.1920   24.3340  125.3970 O.co2 431  HEM431      0.0000
     39  NA        12.2910   28.1090  123.2060 N.2   431  HEM431      0.0000
     40  NB         9.9900   28.2310  121.5280 N.ar  431  HEM431      0.0000
     41  NC        10.5900   25.6140  120.4240 N.2   431  HEM431      0.0000
     42  ND        12.9190   25.4050  122.1080 N.ar  431  HEM431      0.0000
     43 FE         11.5940   26.9750  121.5880 Fe    431  HEM431      0.0000
@<TRIPOS>BOND
     1    26    23    1
     2    28    27    2
     3    27    24    1
     4    23    24    2
     5    23    22    1
     6    24    25    1
     7    21    20    2
     8    22     3    2
     9    22    41    1
    10    20    17    1
    11     3    18    1
    12    25    41    2
    13    25     4    1
    14    41    43    1
    15     4    29    2
    16    18    17   ar
    17    18    40   ar
    18    17    16   ar
    19    40    43    1
    20    40    15   ar
    21    16    19    1
    22    16    15   ar
    23    29    42   ar
    24    29    30   ar
    25    43    42    1
    26    43    39    1
    27    33    30    1
    28    42    32   ar
    29    15     2    1
    30    30    31   ar
    31    32    31   ar
    32    32     1    2
    33     2     8    2
    34    31    34    1
    35    39     8    1
    36    39     5    2
    37    35    34    1
    38    35    36    1
    39    37    36   ar
    40     8     7    1
    41     1     5    1
    42     5     6    1
    43    36    38   ar
    44     7     6    2
    45     7     9    1
    46     6    10    1
    47    11    10    1
    48    11    12    1
    49    13    12   ar
    50    12    14   ar
