@<TRIPOS>MOLECULE
3tkw_017_B_1.pdb
 39 41 0 0 0
SMALL
GASTEIGER

@<TRIPOS>ATOM
      1  N1       -16.8750   26.1950  -21.1310 N.pl3 401  017401     -0.1281
      2  N1        -7.1070   14.5270  -14.0480 N.3   401  017401      0.0000
      3  C2       -15.9990   25.5120  -20.4360 C.ar  401  017401      0.0892
      4  C3       -15.5820   24.3470  -21.0680 C.ar  401  017401      0.0194
      5  C4       -14.6470   23.5180  -20.4380 C.ar  401  017401      0.0213
      6  C5       -14.1450   23.8660  -19.1950 C.ar  401  017401      0.1223
      7  C6       -14.5510   25.0220  -18.5550 C.ar  401  017401      0.0213
      8  C7       -15.4810   25.8450  -19.1810 C.ar  401  017401      0.0194
      9  S8       -12.9690   22.8620  -18.3610 S.O2  401  017401      0.0634
     10  O9       -11.9750   22.3610  -19.3540 O.2   401  017401     -0.1528
     11  O10      -12.3610   23.6910  -17.2770 O.2   401  017401     -0.1528
     12  N11      -13.7060   21.5720  -17.7020 N.3   401  017401     -0.1529
     13  C12      -14.8000   21.8230  -16.7950 C.3   401  017401      0.0958
     14  C13      -14.7620   20.8190  -15.6420 C.3   401  017401      0.0178
     15  C14      -13.4030   20.8610  -14.9230 C.3   401  017401      0.0015
     16  C15      -15.9180   21.0490  -14.6610 C.3   401  017401      0.0015
     17  C16      -13.9340   20.5210  -18.6830 C.3   401  017401      0.1304
     18  C17      -13.1620   19.2550  -18.3170 C.3   401  017401      0.1898
     19  O18      -13.6170   18.1480  -19.1090 O.3   401  017401     -0.2197
     20  C19      -11.6500   19.3880  -18.5590 C.3   401  017401      0.1347
     21  N20      -11.0230   18.2120  -17.9500 N.am  401  017401     -0.1675
     22  C21      -10.1500   18.2790  -16.9390 C.2   401  017401      0.4211
     23  O22       -9.8550   19.3480  -16.4010 O.2   401  017401     -0.2246
     24  O23       -9.6010   17.1200  -16.5390 O.3   401  017401     -0.4345
     25  C24       -8.5260   17.0920  -15.6360 C.3   401  017401      0.2048
     26  C25       -8.7100   15.8470  -14.7530 C.3   401  017401      0.1884
     27  O26       -8.2900   14.7780  -15.6160 O.3   401  017401     -0.3265
     28  C27       -7.1900   15.2470  -16.3940 C.3   401  017401      0.2388
     29  O28       -7.3580   14.8840  -17.7770 O.3   401  017401     -0.3304
     30  C29       -7.6450   16.0470  -18.5340 C.3   401  017401      0.1451
     31  C30       -7.0730   17.2360  -17.7570 C.3   401  017401      0.0409
     32  C31       -7.1770   16.7660  -16.2940 C.3   401  017401      0.1016
     33  C32      -11.3390   19.4330  -20.0590 C.3   401  017401      0.0508
     34  C33       -9.1180   18.4550  -20.7980 C.ar  401  017401     -0.0042
     35  C34       -7.7400   18.5460  -20.9540 C.ar  401  017401     -0.0003
     36  C35       -7.0640   19.6970  -20.5670 C.ar  401  017401     -0.0000
     37  C36       -7.7860   20.7660  -20.0520 C.ar  401  017401     -0.0003
     38  C37       -9.1640   20.6950  -19.8970 C.ar  401  017401     -0.0042
     39  C38       -9.8250   19.5350  -20.2800 C.ar  401  017401     -0.0204
@<TRIPOS>BOND
     1     1     3    1
     2     4     5   ar
     3     4     3   ar
     4    35    34   ar
     5    35    36   ar
     6    34    39   ar
     7    36    37   ar
     8     5     6   ar
     9     3     8   ar
    10    39    33    1
    11    39    38   ar
    12    33    20    1
    13    37    38   ar
    14    10     9    2
    15     6     7   ar
    16     6     9    1
    17     8     7   ar
    18    19    18    1
    19    17    18    1
    20    17    12    1
    21    20    18    1
    22    20    21    1
    23    30    29    1
    24    30    31    1
    25     9    12    1
    26     9    11    2
    27    21    22   am
    28    29    28    1
    29    31    32    1
    30    12    13    1
    31    22    24    1
    32    22    23    2
    33    13    14    1
    34    24    25    1
    35    28    32    1
    36    28    27    1
    37    32    25    1
    38    14    15    1
    39    14    16    1
    40    25    26    1
    41    27    26    1
