@<TRIPOS>MOLECULE
3tky_N7I_A_1.pdb
 13 13 0 0 0
SMALL
GASTEIGER

@<TRIPOS>ATOM
      1  C1       -11.2120    2.2080   35.9910 C.ar  369  N7I369      0.0035
      2  O1       -15.9430    0.0610   34.7410 O.3   369  N7I369     -0.2152
      3  C2        -7.6720    1.9480   32.4040 C.3   369  N7I369      0.2526
      4  O2        -7.6690    2.6190   34.9690 O.3   369  N7I369     -0.2833
      5  C3        -9.8270    2.3140   36.0870 C.ar  369  N7I369      0.0452
      6  O3        -8.7980    2.7960   32.6010 O.3   369  N7I369     -0.4682
      7  C4        -9.0390    2.5180   34.9290 C.ar  369  N7I369      0.2293
      8  C5        -9.6370    2.6130   33.6820 C.ar  369  N7I369      0.1774
      9  C6       -11.0430    2.5170   33.5940 C.ar  369  N7I369      0.0402
     10  C7       -11.8280    2.3100   34.7430 C.ar  369  N7I369      0.0030
     11  C8       -13.3110    2.2190   34.6540 C.2   369  N7I369     -0.0019
     12  C9       -14.0180    1.3450   35.3670 C.2   369  N7I369      0.0091
     13  C10      -15.5140    1.3410   35.2110 C.3   369  N7I369      0.2084
@<TRIPOS>BOND
     1     3     6    1
     2     6     8    1
     3     9     8   ar
     4     9    10   ar
     5     8     7   ar
     6    11    10    1
     7    11    12    2
     8     2    13    1
     9    10     1   ar
    10     7     4    1
    11     7     5   ar
    12    13    12    1
    13     1     5   ar
