@<TRIPOS>MOLECULE
3tky_SAH_A_1.pdb
 26 28 0 0 0
SMALL
GASTEIGER

@<TRIPOS>ATOM
      1  N        -11.8560   -2.9060   44.1980 N.3   370  SAH370     -0.1208
      2  CA       -10.5750   -2.3740   43.6110 C.3   370  SAH370      0.1952
      3  CB       -10.6630   -0.9290   43.1280 C.3   370  SAH370      0.0422
      4  CG        -9.6720   -0.8330   41.9850 C.3   370  SAH370      0.0597
      5  SD       -10.0420    0.3560   40.7260 S.3   370  SAH370     -0.1375
      6  C         -9.5410   -2.2930   44.6810 C.2   370  SAH370      0.3819
      7  O         -9.8320   -1.7960   45.7720 O.co2 370  SAH370     -0.2441
      8  OXT       -8.3850   -2.6900   44.5390 O.co2 370  SAH370     -0.2441
      9  C5'       -8.3920    1.0650   40.6100 C.3   370  SAH370      0.0899
     10  C4'       -7.9470    1.7540   41.9170 C.3   370  SAH370      0.1630
     11  O4'       -6.5580    2.1200   41.8910 O.3   370  SAH370     -0.3153
     12  C3'       -8.6830    3.0560   42.2060 C.3   370  SAH370      0.2168
     13  O3'       -9.1550    2.9110   43.5410 O.3   370  SAH370     -0.2175
     14  C2'       -7.6000    4.1370   42.0910 C.3   370  SAH370      0.2569
     15  O2'       -7.7980    5.2640   42.9510 O.3   370  SAH370     -0.2130
     16  C1'       -6.3600    3.3900   42.5140 C.3   370  SAH370      0.3185
     17  N9        -5.1530    3.9920   41.9420 N.pl3 370  SAH370     -0.1439
     18  C8        -4.9690    4.3880   40.6550 C.3   370  SAH370      0.3377
     19  N7        -3.7230    4.8720   40.4690 N.2   370  SAH370     -0.2095
     20  C5        -3.0960    4.7740   41.6730 C.2   370  SAH370      0.2526
     21  C6        -1.7640    5.1080   42.2070 C.2   370  SAH370      0.4393
     22  N6        -0.8050    5.6620   41.4170 N.pl3 370  SAH370      0.2180
     23  N1        -1.5290    4.8730   43.5160 N.2   370  SAH370      0.0021
     24  C2        -2.4330    4.3370   44.3580 C.3   370  SAH370      0.5254
     25  N3        -3.6580    4.0060   43.9360 N.2   370  SAH370     -0.0055
     26  C4        -4.0320    4.1880   42.6280 C.2   370  SAH370      0.3518
@<TRIPOS>BOND
     1    19    18    1
     2    19    20    2
     3     9     5    1
     4     9    10    1
     5    18    17    1
     6     5     4    1
     7    22    21    1
     8    20    21    1
     9    20    26    1
    10    11    10    1
    11    11    16    1
    12    10    12    1
    13    17    16    1
    14    17    26    1
    15     4     3    1
    16    14    12    1
    17    14    16    1
    18    14    15    1
    19    12    13    1
    20    21    23    2
    21    26    25    2
    22     3     2    1
    23    23    24    1
    24     2     1    1
    25     2     6    1
    26    25    24    1
    27     8     6   ar
    28     6     7   ar
