@<TRIPOS>MOLECULE
3tl1_JRO_A_1.pdb
 19 21 0 0 0
SMALL
GASTEIGER

@<TRIPOS>ATOM
      1  CAA      -17.2920    2.3890  -27.9810 C.3   160  JRO160      0.0726
      2  OAB      -18.3640    1.8630  -23.5080 O.2   160  JRO160     -0.2445
      3  OAC      -20.9130   -6.1000  -24.5280 O.3   160  JRO160     -0.2830
      4  OAD      -20.2470   -2.3670  -21.6240 O.3   160  JRO160     -0.2865
      5  OAE      -20.0030   -4.6380  -26.5880 O.3   160  JRO160     -0.2831
      6  CAF      -20.5980   -4.2660  -23.0240 C.ar  160  JRO160      0.0874
      7  CAG      -18.2190    0.1410  -27.1220 C.ar  160  JRO160      0.0333
      8  CAH      -19.1180   -1.9610  -26.2780 C.ar  160  JRO160      0.0037
      9  CAI      -19.2650   -0.8480  -23.7090 C.ar  160  JRO160      0.0097
     10  OAJ      -17.8890    1.9900  -25.6420 O.2   160  JRO160     -0.4255
     11  CAK      -17.8070    1.4530  -26.8940 C.ar  160  JRO160      0.1267
     12  CAL      -20.5230   -4.8200  -24.3060 C.ar  160  JRO160      0.2374
     13  CAM      -20.1810   -2.9330  -22.8490 C.ar  160  JRO160      0.1991
     14  CAN      -20.0320   -4.0590  -25.3680 C.ar  160  JRO160      0.2344
     15  CAO      -18.3530    1.2630  -24.5920 C.ar  160  JRO160      0.3454
     16  CAP      -18.7070   -0.6340  -26.0730 C.ar  160  JRO160      0.0090
     17  CAQ      -19.6920   -2.1640  -23.9220 C.ar  160  JRO160      0.0425
     18  CAR      -19.6170   -2.7260  -25.2060 C.ar  160  JRO160      0.0453
     19  CAS      -18.7870   -0.0690  -24.7840 C.ar  160  JRO160      0.0762
@<TRIPOS>BOND
     1     1    11    1
     2     7    11   ar
     3     7    16   ar
     4    11    10   ar
     5     5    14    1
     6     8    16   ar
     7     8    18   ar
     8    16    19   ar
     9    10    15   ar
    10    14    18   ar
    11    14    12   ar
    12    18    17   ar
    13    19    15   ar
    14    19     9   ar
    15    15     2    2
    16     3    12    1
    17    12     6   ar
    18    17     9   ar
    19    17    13   ar
    20     6    13   ar
    21    13     4    1
