@<TRIPOS>MOLECULE
3tl5_980_A_1.pdb
 35 39 0 0 0
SMALL
GASTEIGER

@<TRIPOS>ATOM
      1  C1        21.0200   65.7900   19.2150 C.3     1  9801        0.0337
      2  C2        20.0860   64.9020   19.9670 C.2     1  9801        0.0088
      3  C3        18.7620   65.2660   20.3570 C.2     1  9801        0.0182
      4  S4        18.1200   63.9210   21.2060 S.3     1  9801       -0.1020
      5  C5        19.4820   62.8590   21.1040 C.3     1  9801        0.1716
      6  C6        20.4790   63.5450   20.3960 C.2     1  9801        0.1357
      7  N7        21.6950   62.9300   20.1670 N.2     1  9801       -0.3434
      8  C8        21.9460   61.6680   20.5820 C.1     1  9801        0.1379
      9  N9        20.9920   60.9990   21.2730 N.2     1  9801       -0.3281
     10  C10       19.7780   61.5380   21.5420 C.2     1  9801        0.1895
     11  N11       18.8250   60.7480   22.2850 N.pl3   1  9801       -0.2801
     12  C12       17.5770   60.5850   21.6980 C.3     1  9801        0.1250
     13  C13       16.5880   60.2940   22.7760 C.3     1  9801        0.1636
     14  O14       16.9340   59.2050   23.6030 O.3     1  9801       -0.3501
     15  C15       18.2130   59.3380   24.1220 C.3     1  9801        0.1636
     16  C16       19.2090   59.6380   23.0530 C.3     1  9801        0.1250
     17  C17       23.2990   60.9960   20.3290 C.2     1  9801        0.1085
     18  C18       23.8280   60.1210   21.2890 C.2     1  9801        0.1205
     19  N19       25.0220   59.5340   21.0820 N.2     1  9801       -0.1773
     20  C20       25.7110   59.7790   19.9600 C.1     1  9801        0.1286
     21  N21       25.2240   60.6010   19.0210 N.2     1  9801       -0.1996
     22  C22       24.0370   61.2310   19.1670 C.3     1  9801        0.1775
     23  N23       26.9810   59.1480   19.7550 N.pl3   1  9801       -0.0461
     24  C24       18.0260   66.5790   20.1130 C.3     1  9801        0.1052
     25  N25       17.5140   66.6880   18.9470 N.3     1  9801       -0.2656
     26  C26       16.7030   67.7820   18.9210 C.3     1  9801        0.0942
     27  C27       16.1440   68.0160   17.5430 C.3     1  9801        0.1108
     28  N28       15.6730   66.9270   16.9190 N.am    1  9801       -0.2746
     29  C29       16.2890   65.7740   17.1690 C.3     1  9801        0.1108
     30  C30       16.7630   65.6090   18.5910 C.3     1  9801        0.0942
     31  C31       14.5730   66.9900   15.9820 C.2     1  9801        0.2562
     32  O32       14.2080   65.9550   15.4450 O.2     1  9801       -0.2721
     33  C33       13.8750   68.3070   15.7170 C.3     1  9801        0.2276
     34  C35       12.5130   68.1450   15.1030 C.3     1  9801        0.0456
     35  O36       14.6480   69.1230   14.9160 O.3     1  9801       -0.2133
@<TRIPOS>BOND
     1    35    33    1
     2    34    33    1
     3    32    31    2
     4    33    31    1
     5    31    28   am
     6    28    29    1
     7    28    27    1
     8    29    30    1
     9    27    26    1
    10    30    25    1
    11    26    25    1
    12    25    24    1
    13    21    22    1
    14    21    20    2
    15    22    17    1
    16     1     2    1
    17    23    20    1
    18    20    19    2
    19     2     3    2
    20     2     6    1
    21    24     3    1
    22     7     6    2
    23     7     8    2
    24    17     8    1
    25    17    18    2
    26     3     4    1
    27     6     5    1
    28     8     9    2
    29    19    18    1
    30     5     4    1
    31     5    10    1
    32     9    10    2
    33    10    11    1
    34    12    11    1
    35    12    13    1
    36    11    16    1
    37    13    14    1
    38    16    15    1
    39    14    15    1
