@<TRIPOS>MOLECULE
3tl9_ROC_A_1.pdb
 49 53 0 0 0
SMALL
GASTEIGER

@<TRIPOS>ATOM
      1  C         -7.6180   16.5770  -18.3840 C.2   401  ROC401      0.2949
      2  O         -8.0860   15.4500  -18.4080 O.2   401  ROC401     -0.2655
      3  N1        -5.8510   18.2100  -18.9710 N.2   401  ROC401     -0.3973
      4  C2        -6.4680   17.0550  -19.2850 C.2   401  ROC401      0.1861
      5  C3        -6.0470   16.3170  -20.3680 C.2   401  ROC401      0.0369
      6  C4        -5.0260   16.8340  -21.1810 C.2   401  ROC401      0.0050
      7  C5        -3.3810   18.5700  -21.5990 C.2   401  ROC401     -0.0189
      8  C6        -2.7550   19.7390  -21.1960 C.3   401  ROC401      0.0522
      9  C7        -3.2070   20.4150  -20.0720 C.2   401  ROC401     -0.0188
     10  C8        -4.2790   19.9280  -19.3430 C.2   401  ROC401      0.0278
     11  C4A       -4.3940   18.0180  -20.8220 C.2   401  ROC401      0.0257
     12  C8A       -4.8590   18.7090  -19.7030 C.2   401  ROC401      0.1309
     13  N         -8.0680   17.6100  -17.6330 N.am  401  ROC401     -0.1913
     14  CA        -9.2590   17.3860  -16.8020 C.3   401  ROC401      0.1823
     15  C1       -10.2550   18.5160  -16.9920 C.2   401  ROC401      0.2618
     16  O1       -10.2490   19.5510  -16.3010 O.2   401  ROC401     -0.2715
     17  CB        -8.8450   17.3210  -15.3210 C.3   401  ROC401      0.1195
     18  CG        -8.0700   16.0160  -15.1000 C.2   401  ROC401      0.2630
     19  OD1       -8.6470   14.9420  -15.2150 O.2   401  ROC401     -0.2716
     20  ND2       -6.8140   16.1320  -14.7980 N.am  401  ROC401     -0.0877
     21  C9       -13.5250   18.8200  -17.9670 C.3   401  ROC401      0.1879
     22  O2       -13.8960   17.7180  -18.8100 O.3   401  ROC401     -0.2198
     23  CA1      -12.1370   19.3430  -18.3260 C.3   401  ROC401      0.1313
     24  N2       -11.1520   18.3210  -17.9290 N.am  401  ROC401     -0.2027
     25  CB1      -12.0410   19.6070  -19.8400 C.3   401  ROC401      0.0506
     26  CG1      -10.5930   19.8490  -20.2810 C.ar  401  ROC401     -0.0204
     27  CD1       -9.9770   21.0680  -20.0240 C.ar  401  ROC401     -0.0042
     28  CD2       -9.9340   18.8370  -20.9400 C.ar  401  ROC401     -0.0042
     29  CE1       -8.6560   21.2540  -20.4300 C.ar  401  ROC401     -0.0003
     30  CE2       -8.6280   19.0450  -21.3550 C.ar  401  ROC401     -0.0003
     31  CZ        -7.9590   20.2310  -21.0640 C.ar  401  ROC401     -0.0000
     32  N11      -14.6290   20.6570  -16.7810 N.3   401  ROC401     -0.2643
     33  CM       -14.6140   19.9020  -18.0330 C.3   401  ROC401      0.1075
     34  C21      -15.1700   22.0010  -16.9520 C.3   401  ROC401      0.1365
     35  CC       -14.4540   22.8170  -18.0430 C.2   401  ROC401      0.2558
     36  O3       -13.2260   22.8390  -18.0900 O.2   401  ROC401     -0.2719
     37  C31      -15.0250   22.7890  -15.6620 C.3   401  ROC401      0.0254
     38  C3A      -15.7370   22.0520  -14.5050 C.3   401  ROC401      0.0032
     39  C41      -15.5170   22.8360  -13.2120 C.3   401  ROC401      0.0001
     40  C51      -14.0810   22.6410  -12.6820 C.3   401  ROC401      0.0000
     41  C61      -13.8460   21.1490  -12.4260 C.3   401  ROC401      0.0000
     42  C71      -14.0250   20.3580  -13.7190 C.3   401  ROC401      0.0014
     43  C7A      -15.3670   20.5880  -14.3930 C.3   401  ROC401      0.0161
     44  C81      -15.3860   19.9180  -15.7770 C.3   401  ROC401      0.0725
     45  N3       -15.2500   23.4710  -18.8690 N.am  401  ROC401     -0.2077
     46  CD       -14.8080   24.3630  -19.9560 C.3   401  ROC401      0.0788
     47  C11      -16.0340   24.9380  -20.6790 C.3   401  ROC401      0.0217
     48  C22      -13.9920   23.5440  -20.9540 C.3   401  ROC401      0.0217
     49  C32      -14.0340   25.4960  -19.2740 C.3   401  ROC401      0.0217
@<TRIPOS>BOND
     1     7     8    1
     2     7    11    2
     3    30    31   ar
     4    30    28   ar
     5     8     9    1
     6     6    11    1
     7     6     5    2
     8    31    29   ar
     9    48    46    1
    10    28    26   ar
    11    11    12    1
    12    47    46    1
    13    29    27   ar
    14     5     4    1
    15    26    27   ar
    16    26    25    1
    17     9    10    2
    18    46    49    1
    19    46    45    1
    20    25    23    1
    21    12    10    1
    22    12     3    2
    23     4     3    2
    24     4     1    1
    25    45    35   am
    26    22    21    1
    27     2     1    2
    28     1    13   am
    29    23    21    1
    30    23    24    1
    31    36    35    2
    32    35    34    1
    33    33    21    1
    34    33    32    1
    35    24    15   am
    36    13    14    1
    37    15    14    1
    38    15    16    2
    39    34    32    1
    40    34    37    1
    41    14    17    1
    42    32    44    1
    43    44    43    1
    44    37    38    1
    45    17    18    1
    46    19    18    2
    47    18    20   am
    48    38    43    1
    49    38    39    1
    50    43    42    1
    51    42    41    1
    52    39    40    1
    53    40    41    1
