@<TRIPOS>MOLECULE
3tlb_DSZ_A_1.pdb
 31 33 0 0 0
SMALL
GASTEIGER

@<TRIPOS>ATOM
      1  C         27.4410   45.4330   23.7290 C.2   400  DSZ400      0.2804
      2  N         29.6610   46.3630   24.1520 N.3   400  DSZ400     -0.1224
      3  O         26.5380   44.6620   24.0320 O.2   400  DSZ400     -0.2701
      4  N1        25.9800   56.8710   21.3340 N.2   400  DSZ400      0.0021
      5  C2        26.7930   56.3380   20.4070 C.3   400  DSZ400      0.5254
      6  N3        26.8220   55.0100   20.2010 N.2   400  DSZ400     -0.0055
      7  C4        26.0280   54.1830   20.9320 C.2   400  DSZ400      0.3518
      8  C5        25.1820   54.7120   21.8940 C.2   400  DSZ400      0.2526
      9  C6        25.1700   56.0900   22.0870 C.2   400  DSZ400      0.4393
     10  N6        24.3560   56.6440   23.0180 N.pl3 400  DSZ400      0.2180
     11  N7        24.5200   53.6850   22.4600 N.2   400  DSZ400     -0.2095
     12  C8        24.9450   52.5460   21.8660 C.3   400  DSZ400      0.3377
     13  N9        25.8600   52.8570   20.9370 N.pl3 400  DSZ400     -0.1439
     14  CA        28.8440   45.1670   24.2380 C.3   400  DSZ400      0.1822
     15  CB        28.8380   44.6730   25.6900 C.3   400  DSZ400      0.1424
     16  CG        30.1590   44.0450   26.1030 C.2   400  DSZ400      0.3668
     17  C1'       26.5860   51.9110   20.0540 C.3   400  DSZ400      0.3186
     18  C2'       27.8650   51.4280   20.7140 C.3   400  DSZ400      0.2570
     19  O2'       28.9490   52.3110   20.4070 O.3   400  DSZ400     -0.2130
     20  C3'       28.0650   50.0360   20.1430 C.3   400  DSZ400      0.2185
     21  O3'       29.0510   50.0700   19.1110 O.3   400  DSZ400     -0.2174
     22  C4'       26.7220   49.6570   19.5300 C.3   400  DSZ400      0.1842
     23  O4'       25.8210   50.7330   19.8000 O.3   400  DSZ400     -0.3135
     24  C5'       26.1670   48.3380   20.0630 C.3   400  DSZ400      0.2064
     25  O5'       26.1180   48.3340   21.4900 O.3   400  DSZ400     -0.2230
     26  NAT       27.2710   46.5050   22.9330 N.am  400  DSZ400     -0.0576
     27  OAX       24.9670   47.1520   23.3530 O.3   400  DSZ400     -0.0508
     28  OAY       25.4440   45.9180   21.4210 O.3   400  DSZ400     -0.0508
     29  SBE       25.9340   46.9310   22.3140 S.3   400  DSZ400      0.0852
     30  OD1       31.2270   44.6610   25.8920 O.co2 400  DSZ400     -0.2456
     31  OD2       30.1430   42.9260   26.6650 O.co2 400  DSZ400     -0.2456
@<TRIPOS>BOND
     1    21    20    1
     2    22    23    1
     3    22    24    1
     4    22    20    1
     5    23    17    1
     6    17    18    1
     7    17    13    1
     8    24    25    1
     9    20    18    1
    10     6     5    1
    11     6     7    2
    12    19    18    1
    13     5     4    1
    14     7    13    1
    15     7     8    1
    16    13    12    1
    17     4     9    2
    18    28    29    1
    19    25    29    1
    20    12    11    1
    21     8     9    1
    22     8    11    2
    23     9    10    1
    24    29    26    1
    25    29    27    1
    26    26     1   am
    27     1     3    2
    28     1    14    1
    29     2    14    1
    30    14    15    1
    31    15    16    1
    32    30    16   ar
    33    16    31   ar
