@<TRIPOS>MOLECULE
3tlc_7MD_A_1.pdb
 35 37 0 0 0
SMALL
GASTEIGER

@<TRIPOS>ATOM
      1  C          0.7310   -2.4970   29.6570 C.2   400  7MD400      0.2682
      2  N          2.6960   -1.8550   30.9130 N.3   400  7MD400     -0.1224
      3  O         -0.3200   -3.1150   29.7820 O.2   400  7MD400     -0.2713
      4  P         -0.4080   -0.6170   28.1420 P.3   400  7MD400      0.4500
      5  N1         1.4190    9.0720   27.5020 N.2   400  7MD400      0.0021
      6  C2         2.1100    8.4230   26.5490 C.3   400  7MD400      0.5254
      7  N3         1.8980    7.1180   26.3110 N.2   400  7MD400     -0.0055
      8  C4         0.9780    6.4270   27.0360 C.2   400  7MD400      0.3518
      9  C5         0.2550    7.0740   28.0250 C.2   400  7MD400      0.2526
     10  C6         0.4920    8.4250   28.2510 C.2   400  7MD400      0.4393
     11  N6        -0.1990    9.0870   29.2100 N.pl3 400  7MD400      0.2180
     12  N7        -0.5740    6.1670   28.5800 N.2   400  7MD400     -0.2095
     13  C8        -0.3700    4.9870   27.9520 C.3   400  7MD400      0.3377
     14  N8         0.8480   -1.3760   28.9430 N.am  400  7MD400     -0.1075
     15  N9         0.5750    5.1530   27.0150 N.pl3 400  7MD400     -0.1439
     16  CA         2.0130   -2.9780   30.2920 C.3   400  7MD400      0.1810
     17  CB         1.7440   -4.0540   31.3470 C.3   400  7MD400      0.1424
     18  CG         3.0020   -4.5780   32.0170 C.2   400  7MD400      0.3668
     19  C1'        1.1050    4.1180   26.0940 C.3   400  7MD400      0.3186
     20  O1P       -1.2370   -1.5660   27.1770 O.2   400  7MD400     -0.2344
     21  C2'        2.2830    3.3780   26.6990 C.3   400  7MD400      0.2570
     22  O2'        3.5060    4.0860   26.4680 O.3   400  7MD400     -0.2130
     23  C3'        2.2490    2.0440   25.9780 C.3   400  7MD400      0.2184
     24  O3'        3.1860    2.0210   24.9000 O.3   400  7MD400     -0.2174
     25  O31       -1.3950    0.1160   29.1800 O.3   400  7MD400     -0.2790
     26  C32       -0.8900    0.9540   30.2170 C.3   400  7MD400      0.1545
     27  C33       -2.0200    1.8140   30.7710 C.3   400  7MD400      0.0531
     28  C34       -1.4660    3.0380   31.4910 C.3   400  7MD400      0.1119
     29  N35       -2.3240    3.3740   32.6120 N.3   400  7MD400     -0.1313
     30  C4'        0.8420    1.9280   25.4050 C.3   400  7MD400      0.1823
     31  O4'        0.1380    3.1080   25.8010 O.3   400  7MD400     -0.3135
     32  C5'        0.1170    0.6820   25.8940 C.3   400  7MD400      0.1852
     33  O5'        0.2140    0.6100   27.3140 O.3   400  7MD400     -0.2763
     34  OD1        4.1170   -4.0520   31.7840 O.co2 400  7MD400     -0.2456
     35  OD2        2.8730   -5.5410   32.8040 O.co2 400  7MD400     -0.2456
@<TRIPOS>BOND
     1    24    23    1
     2    30    31    1
     3    30    32    1
     4    30    23    1
     5    31    19    1
     6    32    33    1
     7    23    21    1
     8    19    21    1
     9    19    15    1
    10     7     6    1
    11     7     8    2
    12    22    21    1
    13     6     5    1
    14    15     8    1
    15    15    13    1
    16     8     9    1
    17    20     4    2
    18    33     4    1
    19     5    10    2
    20    13    12    1
    21     9    10    1
    22     9    12    2
    23     4    14    1
    24     4    25    1
    25    10    11    1
    26    14     1   am
    27    25    26    1
    28     1     3    2
    29     1    16    1
    30    26    27    1
    31    16     2    1
    32    16    17    1
    33    27    28    1
    34    17    18    1
    35    28    29    1
    36    34    18   ar
    37    18    35   ar
