@<TRIPOS>MOLECULE
3tle_GSU_A_1.pdb
 32 34 0 0 0
SMALL
GASTEIGER

@<TRIPOS>ATOM
      1  C2        26.8150   56.4670   20.6450 C.3   400  GSU400      0.5254
      2  S         25.5990   47.1290   22.3980 S.3   400  GSU400      0.0852
      3  N         29.1650   46.7970   24.5730 N.3   400  GSU400     -0.1230
      4  CA        28.5770   45.5070   24.2550 C.3   400  GSU400      0.1715
      5  CB        28.5920   44.6290   25.5050 C.3   400  GSU400      0.0403
      6  CG        29.9100   43.8790   25.6490 C.3   400  GSU400      0.1161
      7  CD        30.8750   44.7260   26.4430 C.2   400  GSU400      0.3649
      8  OE1       31.5380   45.5930   25.8350 O.co2 400  GSU400     -0.2457
      9  OE2       30.9670   44.5350   27.6740 O.co2 400  GSU400     -0.2457
     10  C         27.1710   45.6880   23.7460 C.2   400  GSU400      0.2798
     11  O         26.3150   44.8520   24.0050 O.2   400  GSU400     -0.2701
     12  N10       26.9550   46.7780   23.0030 N.am  400  GSU400     -0.0577
     13  O1S       24.6240   47.3100   23.4390 O.3   400  GSU400     -0.0508
     14  O2S       25.1740   46.0780   21.5110 O.3   400  GSU400     -0.0508
     15  O5'       25.7400   48.5160   21.5430 O.3   400  GSU400     -0.2230
     16  C5'       26.1450   48.4610   20.1750 C.3   400  GSU400      0.2064
     17  C4'       26.7410   49.7880   19.7200 C.3   400  GSU400      0.1842
     18  O4'       25.8640   50.8750   20.0210 O.3   400  GSU400     -0.3135
     19  C1'       26.6550   52.0240   20.3280 C.3   400  GSU400      0.3186
     20  N9        25.9320   52.9770   21.2120 N.pl3 400  GSU400     -0.1439
     21  C4        26.0830   54.3060   21.1930 C.2   400  GSU400      0.3518
     22  N3        26.8610   55.1390   20.4490 N.2   400  GSU400     -0.0055
     23  N1        26.0040   57.0020   21.5740 N.2   400  GSU400      0.0021
     24  C6        25.2110   56.2150   22.3390 C.2   400  GSU400      0.4393
     25  N6        24.3980   56.7660   23.2730 N.pl3 400  GSU400      0.2180
     26  C5        25.2390   54.8360   22.1570 C.2   400  GSU400      0.2526
     27  N7        24.5930   53.8070   22.7390 N.2   400  GSU400     -0.2095
     28  C8        25.0250   52.6680   22.1510 C.3   400  GSU400      0.3377
     29  C2'       27.9190   51.4900   20.9790 C.3   400  GSU400      0.2570
     30  O2'       29.0320   52.3290   20.6560 O.3   400  GSU400     -0.2130
     31  C3'       28.0730   50.0990   20.3900 C.3   400  GSU400      0.2185
     32  O3'       29.0990   50.0910   19.3970 O.3   400  GSU400     -0.2174
@<TRIPOS>BOND
     1    32    31    1
     2    17    18    1
     3    17    16    1
     4    17    31    1
     5    18    19    1
     6    16    15    1
     7    19    29    1
     8    19    20    1
     9    31    29    1
    10    22     1    1
    11    22    21    2
    12     1    23    1
    13    30    29    1
    14    21    20    1
    15    21    26    1
    16    20    28    1
    17    14     2    1
    18    15     2    1
    19    23    24    2
    20    28    27    1
    21    26    24    1
    22    26    27    2
    23    24    25    1
    24     2    12    1
    25     2    13    1
    26    12    10   am
    27    10    11    2
    28    10     4    1
    29     4     3    1
    30     4     5    1
    31     5     6    1
    32     6     7    1
    33     8     7   ar
    34     7     9   ar
