@<TRIPOS>MOLECULE
3tlh_3TL_A_1.pdb
 33 34 0 0 0
SMALL
GASTEIGER

@<TRIPOS>ATOM
      1  C31      -12.4200   12.1700   35.8190 C.2   201  3TL201      0.4218
      2  O8       -13.2290   13.0360   36.1140 O.2   201  3TL201     -0.2245
      3  O9       -11.6970   11.4700   36.7340 O.3   201  3TL201     -0.4285
      4  CA       -12.4270   11.2850   37.9560 C.3   201  3TL201      0.2368
      5  C        -12.8110    9.8050   37.9640 C.ar  201  3TL201      0.0213
      6  C13      -11.9130    8.8230   38.4190 C.ar  201  3TL201     -0.0007
      7  C14      -12.2810    7.4590   38.4450 C.ar  201  3TL201     -0.0002
      8  C15      -13.5420    7.0720   37.9440 C.ar  201  3TL201     -0.0000
      9  C16      -14.4580    8.0550   37.5130 C.ar  201  3TL201     -0.0002
     10  C17      -14.0920    9.4160   37.5090 C.ar  201  3TL201     -0.0007
     11  N4       -12.2180   11.8320   34.5640 N.am  201  3TL201     -0.1611
     12  C18      -12.6740   12.5910   33.3750 C.3   201  3TL201      0.1762
     13  C19      -11.9140   13.9480   33.2250 C.2   201  3TL201      0.2617
     14  O4       -12.2480   15.0360   33.6770 O.2   201  3TL201     -0.2715
     15  C20      -14.1920   12.7440   33.5010 C.3   201  3TL201      0.0335
     16  N2       -10.7810   13.8790   32.5180 N.am  201  3TL201     -0.1963
     17  C10      -10.1580   15.1010   31.9390 C.3   201  3TL201      0.1727
     18  C11      -10.0020   14.9730   30.3970 C.2   201  3TL201      0.2612
     19  O2        -9.1330   14.2470   29.9260 O.2   201  3TL201     -0.2715
     20  C12       -8.8090   15.3800   32.6590 C.3   201  3TL201      0.0290
     21  CG2       -9.0100   15.6490   34.1650 C.3   201  3TL201      0.0023
     22  CG1       -8.1090   16.5860   32.0050 C.3   201  3TL201      0.0023
     23  C2       -10.6990   17.0740   27.5780 C.3   201  3TL201      0.2039
     24  O1       -11.6950   17.9760   28.0890 O.3   201  3TL201     -0.2185
     25  C1       -10.8980   15.6660   28.1900 C.3   201  3TL201      0.1325
     26  N1       -10.8640   15.6730   29.6610 N.am  201  3TL201     -0.2027
     27  C3       -12.2740   15.1240   27.7430 C.3   201  3TL201      0.0507
     28  C4       -12.4980   13.6760   28.1510 C.ar  201  3TL201     -0.0204
     29  C5       -13.4090   13.3590   29.1750 C.ar  201  3TL201     -0.0042
     30  C9       -11.7950   12.6610   27.4670 C.ar  201  3TL201     -0.0042
     31  C6       -13.6320   12.0100   29.5310 C.ar  201  3TL201     -0.0003
     32  C8       -11.9990   11.3240   27.8520 C.ar  201  3TL201     -0.0003
     33  C7       -12.8530   11.0060   28.9270 C.ar  201  3TL201     -0.0000
@<TRIPOS>BOND
     1    30    32   ar
     2    30    28   ar
     3    23    24    1
     4    23    25    1
     5    27    28    1
     6    27    25    1
     7    32    33   ar
     8    28    29   ar
     9    25    26    1
    10    33    31   ar
    11    29    31   ar
    12    26    18   am
    13    19    18    2
    14    18    17    1
    15    17    16    1
    16    17    20    1
    17    22    20    1
    18    16    13   am
    19    20    21    1
    20    13    12    1
    21    13    14    2
    22    12    15    1
    23    12    11    1
    24    11     1   am
    25     1     2    2
    26     1     3    1
    27     3     4    1
    28    10     9   ar
    29    10     5   ar
    30     9     8   ar
    31     8     7   ar
    32     4     5    1
    33     5     6   ar
    34     6     7   ar
