@<TRIPOS>MOLECULE
3tlj_SAH_A_1.pdb
 26 28 0 0 0
SMALL
GASTEIGER

@<TRIPOS>ATOM
      1  N          3.1270   -9.8210   41.3200 N.3   401  SAH401     -0.1208
      2  CA         2.6250  -11.2160   41.0830 C.3   401  SAH401      0.1952
      3  CB         1.1820  -11.0720   40.5620 C.3   401  SAH401      0.0422
      4  CG         0.9520  -10.2360   39.2950 C.3   401  SAH401      0.0597
      5  SD         0.3310   -8.5780   39.5000 S.3   401  SAH401     -0.1375
      6  C          3.6540  -12.1350   40.3820 C.2   401  SAH401      0.3819
      7  O          3.4850  -12.8170   39.3570 O.co2 401  SAH401     -0.2441
      8  OXT        4.7860  -12.2740   40.8480 O.co2 401  SAH401     -0.2441
      9  C5'       -1.4470   -8.4770   39.4540 C.3   401  SAH401      0.0899
     10  C4'       -2.2170   -9.4390   38.5290 C.3   401  SAH401      0.1630
     11  O4'       -3.6110   -9.4460   38.8810 O.3   401  SAH401     -0.3153
     12  C3'       -2.1780   -9.0770   37.0450 C.3   401  SAH401      0.2168
     13  O3'       -1.6220  -10.1910   36.3390 O.3   401  SAH401     -0.2175
     14  C2'       -3.6290   -8.9450   36.6090 C.3   401  SAH401      0.2569
     15  O2'       -3.9120   -9.6870   35.4200 O.3   401  SAH401     -0.2130
     16  C1'       -4.4070   -9.6180   37.7160 C.3   401  SAH401      0.3185
     17  N9        -5.7700   -9.0210   37.8300 N.pl3 401  SAH401     -0.1439
     18  C8        -6.1110   -7.7340   37.5740 C.3   401  SAH401      0.3377
     19  N7        -7.4440   -7.5350   37.7860 N.2   401  SAH401     -0.2095
     20  C5        -7.9650   -8.7170   38.1770 C.2   401  SAH401      0.2526
     21  C6        -9.3060   -9.2280   38.5510 C.2   401  SAH401      0.4393
     22  N6       -10.3690   -8.4110   38.5570 N.pl3 401  SAH401      0.2180
     23  N1        -9.4320  -10.5120   38.9280 N.2   401  SAH401      0.0021
     24  C2        -8.3740  -11.3610   38.9120 C.3   401  SAH401      0.5254
     25  N3        -7.1290  -10.9760   38.5570 N.2   401  SAH401     -0.0055
     26  C4        -6.8650   -9.6920   38.1900 C.2   401  SAH401      0.3518
@<TRIPOS>BOND
     1    15    14    1
     2    13    12    1
     3    14    12    1
     4    14    16    1
     5    12    10    1
     6    18    19    1
     7    18    17    1
     8    16    17    1
     9    16    11    1
    10    19    20    2
    11    17    26    1
    12    20    26    1
    13    20    21    1
    14    26    25    2
    15    10    11    1
    16    10     9    1
    17    21    22    1
    18    21    23    2
    19    25    24    1
    20    24    23    1
    21     4     5    1
    22     4     3    1
    23     7     6   ar
    24     9     5    1
    25     6     8   ar
    26     6     2    1
    27     3     2    1
    28     2     1    1
