@<TRIPOS>MOLECULE
3tlk_EB4_A_1.pdb
 48 51 0 0 0
SMALL
GASTEIGER

@<TRIPOS>ATOM
      1  O6        11.6590  -14.7640  -24.3690 O.3   328  EB4328     -0.2831
      2  O4        11.3250  -13.3800  -22.0840 O.3   328  EB4328     -0.2831
      3  O5        10.8570  -11.9710  -24.5240 O.3   328  EB4328     -0.2831
      4  N1         6.5430  -15.5760  -21.1770 N.am  328  EB4328     -0.1879
      5  C5         9.8610  -11.1280  -24.9800 C.ar  328  EB4328      0.2344
      6  C4        10.6750  -13.9340  -20.9830 C.ar  328  EB4328      0.2344
      7  C1         9.2340  -14.4590  -21.0830 C.ar  328  EB4328      0.2386
      8  C2         8.5010  -11.4440  -24.8010 C.ar  328  EB4328      0.2386
      9  C6        11.3390  -15.7610  -25.2500 C.ar  328  EB4328      0.2344
     10  C8        10.2380   -9.8810  -25.7730 C.ar  328  EB4328      0.0454
     11  N2         5.7190  -12.2330  -24.6940 N.am  328  EB4328     -0.1879
     12  C9        12.4400  -16.6610  -25.8180 C.ar  328  EB4328      0.0454
     13  C10       10.7120  -14.5560  -18.5300 C.ar  328  EB4328      0.0036
     14  O3         9.0420  -15.0850  -25.0720 O.3   328  EB4328     -0.2830
     15  N3         7.2060  -16.6750  -25.9140 N.am  328  EB4328     -0.1879
     16  C16        8.6130  -14.9890  -19.8850 C.ar  328  EB4328      0.0971
     17  C7        11.3730  -14.0000  -19.7530 C.ar  328  EB4328      0.0454
     18  C3         9.9740  -15.9710  -25.5830 C.ar  328  EB4328      0.2386
     19  C11        9.2430   -9.0740  -26.2960 C.ar  328  EB4328      0.0036
     20  O1         8.5900  -14.4840  -22.3210 O.3   328  EB4328     -0.2830
     21  O2         8.1640  -12.5410  -24.0250 O.3   328  EB4328     -0.2830
     22  C12       12.1000  -17.7170  -26.6820 C.ar  328  EB4328      0.0036
     23  C15       10.6990  -17.9460  -27.0310 C.ar  328  EB4328      0.0080
     24  C14        7.8070   -9.3970  -26.1160 C.ar  328  EB4328      0.0080
     25  C13        9.3330  -15.0430  -18.6020 C.ar  328  EB4328      0.0080
     26  O7         6.5220  -15.6150  -18.8950 O.2   328  EB4328     -0.2682
     27  C19        7.1770  -15.4800  -19.9070 C.2   328  EB4328      0.2686
     28  C22        5.1460  -15.8760  -21.2640 C.3   328  EB4328      0.2370
     29  C25        4.8560  -16.7230  -22.4950 C.2   328  EB4328      0.3409
     30  O10        4.2920  -17.8020  -22.2230 O.2   328  EB4328     -0.2481
     31  O15        5.7020  -16.8740  -23.6320 O.3   328  EB4328     -0.4447
     32  C30        5.4820  -17.9160  -24.6190 C.3   328  EB4328      0.2414
     33  C24        5.8470  -17.1270  -25.8720 C.3   328  EB4328      0.2370
     34  C21        8.1830  -17.3180  -26.7790 C.2   328  EB4328      0.2686
     35  C18        9.6330  -17.0380  -26.4740 C.ar  328  EB4328      0.0971
     36  O9         7.8160  -18.1920  -27.5550 O.2   328  EB4328     -0.2682
     37  C27        4.8850  -15.9670  -26.0670 C.2   328  EB4328      0.3409
     38  O12        3.7620  -16.2600  -26.5750 O.2   328  EB4328     -0.2481
     39  C28        4.2290  -14.6590  -21.2400 C.3   328  EB4328      0.2414
     40  O13        4.7440  -13.8660  -22.3060 O.3   328  EB4328     -0.4447
     41  C26        4.0880  -13.7150  -23.5420 C.2   328  EB4328      0.3409
     42  O11        3.2050  -14.6190  -23.7540 O.2   328  EB4328     -0.2481
     43  C23        4.4240  -12.8670  -24.7920 C.3   328  EB4328      0.2370
     44  C29        4.1020  -13.5860  -26.1330 C.3   328  EB4328      0.2414
     45  O14        5.1500  -14.5770  -26.1130 O.3   328  EB4328     -0.4447
     46  C20        6.0000  -10.9600  -25.2560 C.2   328  EB4328      0.2686
     47  O8         5.1220  -10.3850  -25.8760 O.2   328  EB4328     -0.2682
     48  C17        7.4510  -10.5720  -25.3550 C.ar  328  EB4328      0.0971
@<TRIPOS>BOND
     1    36    34    2
     2    23    22   ar
     3    23    35   ar
     4    34    35    1
     5    34    15   am
     6    22    12   ar
     7    38    37    2
     8    35    18   ar
     9    19    24   ar
    10    19    10   ar
    11    44    45    1
    12    44    43    1
    13    24    48   ar
    14    45    37    1
    15    37    33    1
    16    15    33    1
    17    47    46    2
    18    33    32    1
    19    12     9   ar
    20    10     5   ar
    21    18     9   ar
    22    18    14    1
    23    48    46    1
    24    48     8   ar
    25    46    11   am
    26     9     1    1
    27     5     8   ar
    28     5     3    1
    29     8    21    1
    30    43    11    1
    31    43    41    1
    32    32    31    1
    33    42    41    2
    34    31    29    1
    35    41    40    1
    36    29    30    2
    37    29    28    1
    38    20     7    1
    39    40    39    1
    40     2     6    1
    41    28    39    1
    42    28     4    1
    43     4    27   am
    44     7     6   ar
    45     7    16   ar
    46     6    17   ar
    47    27    16    1
    48    27    26    2
    49    16    25   ar
    50    17    13   ar
    51    25    13   ar
