@<TRIPOS>MOLECULE
3tll_62D_A_1.pdb
 19 21 0 0 0
SMALL
GASTEIGER

@<TRIPOS>ATOM
      1  N1        17.5470   17.5420   17.3130 N.2   501  62D501     -0.3284
      2  N3        19.5340   18.1670   17.9430 N.2   501  62D501     -0.3247
      3  C4        18.8410   18.0110   16.8850 C.1   501  62D501      0.2200
      4  C5        18.2510   17.9700   14.5420 C.3   501  62D501      0.1504
      5  C6        18.8250   17.8400   19.1360 C.2   501  62D501      0.1725
      6  C7        19.1840   17.8660   20.4440 C.2   501  62D501      0.0504
      7  C8        18.1170   17.4510   21.4030 C.2   501  62D501      0.1247
      8  C10       16.0980   16.6700   23.1160 C.1   501  62D501      0.2302
      9  C1        16.8010   17.0430   20.8620 C.2   501  62D501      0.1418
     10  C2        16.4930   17.0070   19.5400 C.3   501  62D501      0.1233
     11  C3        17.5260   17.4310   18.6210 C.2   501  62D501      0.1600
     12  N2        19.1530   18.2310   15.6410 N.pl3 501  62D501     -0.1499
     13  C9        18.2580   17.4530   22.7500 C.1   501  62D501      0.2180
     14  O1        19.3710   17.8760   23.3190 O.2   501  62D501     -0.2085
     15  N4        17.2680   17.1280   23.5770 N.2   501  62D501     -0.2514
     16  N5        15.1750   16.3130   23.9690 N.pl3 501  62D501     -0.1512
     17  C11       13.8360   15.8110   23.6820 C.3   501  62D501      0.1263
     18  N6        15.8430   16.6250   21.8390 N.2   501  62D501     -0.3298
     19  C12       13.8340   14.2760   23.8680 C.3   501  62D501      0.0261
@<TRIPOS>BOND
     1     4    12    1
     2    12     3    1
     3     3     1    2
     4     3     2    2
     5     1    11    2
     6     2     5    2
     7    11     5    1
     8    11    10    1
     9     5     6    1
    10    10     9    1
    11     6     7    2
    12     9     7    1
    13     9    18    2
    14     7    13    1
    15    18     8    2
    16    13    14    2
    17    13    15    2
    18     8    15    2
    19     8    16    1
    20    17    19    1
    21    17    16    1
