@<TRIPOS>MOLECULE
3tlm_ACP_A_1.pdb
 31 33 0 0 0
SMALL
GASTEIGER

@<TRIPOS>ATOM
      1  PG        15.3890   -0.2840  -15.7040 P.3   1001  ACP1001     0.1295
      2  O1G       15.8890    1.2130  -15.3940 O.3   1001  ACP1001    -0.3567
      3  O2G       13.9170   -0.3990  -15.8090 O.3   1001  ACP1001    -0.3567
      4  O3G       16.1450   -0.6880  -17.0650 O.2   1001  ACP1001    -0.4595
      5  PB        15.6800   -0.8470  -12.7640 P.3   1001  ACP1001     0.3815
      6  O1B       15.9120    0.6070  -12.6270 O.2   1001  ACP1001    -0.2547
      7  O2B       16.4040   -1.7530  -11.8440 O.3   1001  ACP1001    -0.1391
      8  C3B       16.1010   -1.3710  -14.4440 C.3   1001  ACP1001     0.1768
      9  PA        13.5610   -2.4730  -11.9380 P.3   1001  ACP1001     0.2209
     10  O1A       14.2000   -3.6320  -12.6000 O.2   1001  ACP1001    -0.5170
     11  O2A       12.0830   -2.3960  -11.9130 O.3   1001  ACP1001    -0.4371
     12  O3A       14.1010   -1.1370  -12.6540 O.3   1001  ACP1001    -0.2483
     13  O5'       14.1070   -2.3300  -10.4310 O.3   1001  ACP1001    -0.3111
     14  C5'       13.5490   -1.3370   -9.5670 C.3   1001  ACP1001     0.1813
     15  C4'       14.5480   -0.9390   -8.4790 C.3   1001  ACP1001     0.1821
     16  O4'       14.8650   -2.0200   -7.5880 O.3   1001  ACP1001    -0.3135
     17  C3'       15.8960   -0.5490   -9.0810 C.3   1001  ACP1001     0.2184
     18  O3'       15.8070    0.7680   -9.6310 O.3   1001  ACP1001    -0.2174
     19  C2'       16.6920   -0.5190   -7.7790 C.3   1001  ACP1001     0.2570
     20  O2'       16.2830    0.5980   -6.9850 O.3   1001  ACP1001    -0.2130
     21  C1'       16.2120   -1.8150   -7.1210 C.3   1001  ACP1001     0.3186
     22  N9        17.0040   -2.9800   -7.5790 N.pl3 1001  ACP1001    -0.1439
     23  C8        17.2600   -3.3110   -8.8420 C.3   1001  ACP1001     0.3377
     24  N7        17.9510   -4.4490   -8.8750 N.2   1001  ACP1001    -0.2095
     25  C5        18.1410   -4.8470   -7.6210 C.2   1001  ACP1001     0.2526
     26  C6        18.7760   -5.9350   -7.0350 C.2   1001  ACP1001     0.4393
     27  N6        19.3670   -6.8580   -7.7890 N.pl3 1001  ACP1001     0.2180
     28  N1        18.7890   -6.0390   -5.6980 N.2   1001  ACP1001     0.0021
     29  C2        18.2120   -5.1230   -4.9410 C.3   1001  ACP1001     0.5254
     30  N3        17.5980   -4.0740   -5.4640 N.2   1001  ACP1001    -0.0055
     31  C4        17.5430   -3.9070   -6.7920 C.2   1001  ACP1001     0.3518
@<TRIPOS>BOND
     1     4     1    2
     2     3     1    1
     3     1     2    1
     4     1     8    1
     5     8     5    1
     6     5    12    1
     7     5     6    2
     8     5     7    1
     9    12     9    1
    10    10     9    2
    11     9    11    1
    12     9    13    1
    13    13    14    1
    14    18    17    1
    15    14    15    1
    16    17    15    1
    17    17    19    1
    18    24    23    1
    19    24    25    2
    20    23    22    1
    21    15    16    1
    22    27    26    1
    23    19    21    1
    24    19    20    1
    25    25    26    1
    26    25    31    1
    27    16    21    1
    28    22    21    1
    29    22    31    1
    30    26    28    2
    31    31    30    2
    32    28    29    1
    33    30    29    1
