@<TRIPOS>MOLECULE
3tlx_ATP_D_1.pdb
 31 33 0 0 0
SMALL
GASTEIGER

@<TRIPOS>ATOM
      1  PG        29.8510  -20.8430   58.8950 P.3   243  ATP243      0.5373
      2  O1G       28.6600  -19.9200   58.9970 O.2   243  ATP243     -0.2221
      3  O2G       31.1510  -20.1710   59.3120 O.3   243  ATP243     -0.1143
      4  O3G       29.6290  -22.2050   59.5100 O.3   243  ATP243     -0.1143
      5  PB        28.6900  -21.1650   56.3010 P.3   243  ATP243      0.2277
      6  O1B       28.9490  -22.0550   55.1020 O.2   243  ATP243     -0.5168
      7  O2B       28.4560  -19.6910   56.0750 O.3   243  ATP243     -0.4368
      8  O3B       29.9540  -21.2210   57.3210 O.3   243  ATP243     -0.2258
      9  PA        26.2470  -22.6490   56.4480 P.3   243  ATP243      0.2189
     10  O1A       25.5900  -21.8060   55.3970 O.2   243  ATP243     -0.5170
     11  O2A       25.3810  -23.2280   57.5440 O.3   243  ATP243     -0.4371
     12  O3A       27.4420  -21.7960   57.1270 O.3   243  ATP243     -0.2700
     13  O5'       27.0110  -23.8390   55.6790 O.3   243  ATP243     -0.3112
     14  C5'       26.5880  -24.2470   54.3790 C.3   243  ATP243      0.1813
     15  C4'       26.0710  -25.6750   54.4690 C.3   243  ATP243      0.1821
     16  O4'       24.6470  -25.6600   54.4470 O.3   243  ATP243     -0.3135
     17  C3'       26.5210  -26.6050   53.3350 C.3   243  ATP243      0.2184
     18  O3'       27.4240  -27.5880   53.8660 O.3   243  ATP243     -0.2174
     19  C2'       25.2460  -27.2900   52.8430 C.3   243  ATP243      0.2570
     20  O2'       25.3800  -28.7140   52.7710 O.3   243  ATP243     -0.2130
     21  C1'       24.2750  -26.9590   53.9580 C.3   243  ATP243      0.3186
     22  N9        22.8420  -27.1690   53.6220 N.pl3 243  ATP243     -0.1439
     23  C8        21.9120  -26.2080   53.4620 C.3   243  ATP243      0.3377
     24  N7        20.6670  -26.7350   53.3210 N.2   243  ATP243     -0.2095
     25  C5        20.7830  -28.0690   53.4230 C.2   243  ATP243      0.2526
     26  C6        19.8510  -29.2240   53.3540 C.2   243  ATP243      0.4393
     27  N6        18.5230  -29.0290   53.1650 N.pl3 243  ATP243      0.2180
     28  N1        20.3770  -30.4680   53.5060 N.2   243  ATP243      0.0021
     29  C2        21.7050  -30.6500   53.7170 C.3   243  ATP243      0.5254
     30  N3        22.6170  -29.6480   53.7600 N.2   243  ATP243     -0.0055
     31  C4        22.2170  -28.3520   53.6510 C.2   243  ATP243      0.3518
@<TRIPOS>BOND
     1    20    19    1
     2    19    17    1
     3    19    21    1
     4    27    26    1
     5    24    25    2
     6    24    23    1
     7    17    18    1
     8    17    15    1
     9    26    25    1
    10    26    28    2
    11    25    31    1
    12    23    22    1
    13    28    29    1
    14    22    31    1
    15    22    21    1
    16    31    30    2
    17    29    30    1
    18    21    16    1
    19    14    15    1
    20    14    13    1
    21    16    15    1
    22     6     5    2
    23    10     9    2
    24    13     9    1
    25     7     5    1
    26     5    12    1
    27     5     8    1
    28     9    12    1
    29     9    11    1
    30     8     1    1
    31     1     2    2
    32     1     3    1
    33     1     4    1
