@<TRIPOS>MOLECULE
3tlx_ADP_A_1.pdb
 27 29 0 0 0
SMALL
GASTEIGER

@<TRIPOS>ATOM
      1  PB        -4.1580  -18.4720   -3.9670 P.3   246  ADP246      0.5373
      2  O1B       -5.3680  -18.2270   -4.8380 O.2   246  ADP246     -0.2221
      3  O2B       -3.7100  -17.2270   -3.2290 O.3   246  ADP246     -0.1143
      4  O3B       -3.0810  -19.2110   -4.7240 O.3   246  ADP246     -0.1143
      5  PA        -5.1000  -19.1080   -1.3250 P.3   246  ADP246      0.2231
      6  O1A       -5.7070  -17.7160   -1.3620 O.2   246  ADP246     -0.5169
      7  O2A       -3.9420  -19.2760   -0.3970 O.3   246  ADP246     -0.4370
      8  O3A       -4.6170  -19.5230   -2.8150 O.3   246  ADP246     -0.2261
      9  O5'       -6.3120  -20.1030   -0.9470 O.3   246  ADP246     -0.3111
     10  C5'       -6.3580  -21.5160   -1.1600 C.3   246  ADP246      0.1813
     11  C4'       -7.6440  -22.0570   -0.5250 C.3   246  ADP246      0.1821
     12  O4'       -7.3490  -23.3140    0.0730 O.3   246  ADP246     -0.3135
     13  C3'       -8.1030  -21.2080    0.6580 C.3   246  ADP246      0.2184
     14  O3'       -9.4720  -21.4720    0.9470 O.3   246  ADP246     -0.2174
     15  C2'       -7.2340  -21.6940    1.8030 C.3   246  ADP246      0.2570
     16  O2'       -7.8210  -21.5320    3.1060 O.3   246  ADP246     -0.2130
     17  C1'       -7.0100  -23.1530    1.4550 C.3   246  ADP246      0.3186
     18  N9        -5.5880  -23.5420    1.5950 N.pl3 246  ADP246     -0.1439
     19  C8        -4.5120  -22.7580    1.4070 C.3   246  ADP246      0.3377
     20  N7        -3.3740  -23.4780    1.5000 N.2   246  ADP246     -0.2095
     21  C5        -3.7180  -24.7620    1.7060 C.2   246  ADP246      0.2526
     22  C6        -3.0170  -26.0580    1.8860 C.2   246  ADP246      0.4393
     23  N6        -1.6620  -26.1240    1.8990 N.pl3 246  ADP246      0.2180
     24  N1        -3.7820  -27.1640    2.0780 N.2   246  ADP246      0.0021
     25  C2        -5.1250  -27.1260    2.0690 C.3   246  ADP246      0.5254
     26  N3        -5.8150  -25.9830    1.9020 N.2   246  ADP246     -0.0055
     27  C4        -5.1840  -24.7980    1.7250 C.2   246  ADP246      0.3518
@<TRIPOS>BOND
     1     2     1    2
     2     4     1    1
     3     1     3    1
     4     1     8    1
     5     8     5    1
     6     6     5    2
     7     5     9    1
     8     5     7    1
     9    10     9    1
    10    10    11    1
    11    11    12    1
    12    11    13    1
    13    12    17    1
    14    13    14    1
    15    13    15    1
    16    19    20    1
    17    19    18    1
    18    17    18    1
    19    17    15    1
    20    20    21    2
    21    18    27    1
    22    21    27    1
    23    21    22    1
    24    27    26    2
    25    15    16    1
    26    22    23    1
    27    22    24    2
    28    26    25    1
    29    25    24    1
