@<TRIPOS>MOLECULE
3tlx_AMP_A_1.pdb
 23 25 0 0 0
SMALL
GASTEIGER

@<TRIPOS>ATOM
      1  P         -5.9170  -13.3320   -8.1170 P.3   245  AMP245      0.5327
      2  O1P       -6.4490  -12.5550   -6.9310 O.3   245  AMP245     -0.1145
      3  O2P       -4.4860  -12.9960   -8.4680 O.2   245  AMP245     -0.2224
      4  O3P       -6.2130  -14.8140   -8.0300 O.3   245  AMP245     -0.1145
      5  O5'       -6.7510  -12.8950   -9.4290 O.3   245  AMP245     -0.2675
      6  C5'       -7.3040  -11.5860   -9.5320 C.3   245  AMP245      0.1860
      7  C4'       -7.9340  -11.2530  -10.8850 C.3   245  AMP245      0.1823
      8  O4'       -7.6940   -9.8560  -11.1330 O.3   245  AMP245     -0.3135
      9  C3'       -7.3740  -12.0070  -12.0940 C.3   245  AMP245      0.2184
     10  O3'       -8.2310  -13.0910  -12.4700 O.3   245  AMP245     -0.2174
     11  C2'       -7.3650  -10.9210  -13.1620 C.3   245  AMP245      0.2570
     12  O2'       -8.7090  -10.7010  -13.6050 O.3   245  AMP245     -0.2130
     13  C1'       -7.0090   -9.6660  -12.3780 C.3   245  AMP245      0.3186
     14  N9        -5.5310   -9.6620  -12.1880 N.pl3 245  AMP245     -0.1439
     15  C8        -4.8720  -10.0420  -11.0760 C.3   245  AMP245      0.3377
     16  N7        -3.5360  -10.0030  -11.2470 N.2   245  AMP245     -0.2095
     17  C5        -3.3110   -9.5860  -12.5060 C.2   245  AMP245      0.2526
     18  C6        -2.1180   -9.3080  -13.3450 C.2   245  AMP245      0.4393
     19  N6        -0.8820   -9.4990  -12.8480 N.pl3 245  AMP245      0.2180
     20  N1        -2.3080   -8.8940  -14.6240 N.2   245  AMP245      0.0021
     21  C2        -3.5490   -8.7140  -15.1240 C.3   245  AMP245      0.5254
     22  N3        -4.6770   -8.9150  -14.4080 N.2   245  AMP245     -0.0055
     23  C4        -4.6300   -9.3730  -13.1280 C.2   245  AMP245      0.3518
@<TRIPOS>BOND
     1    21    20    1
     2    21    22    1
     3    20    18    2
     4    22    23    2
     5    12    11    1
     6    18    19    1
     7    18    17    1
     8    11    13    1
     9    11     9    1
    10    23    17    1
    11    23    14    1
    12    17    16    2
    13    10     9    1
    14    13    14    1
    15    13     8    1
    16    14    15    1
    17     9     7    1
    18    16    15    1
    19     8     7    1
    20     7     6    1
    21     6     5    1
    22     5     1    1
    23     3     1    2
    24     1     4    1
    25     1     2    1
