@<TRIPOS>MOLECULE
3tlz_AMP_A_1.pdb
 23 25 0 0 0
SMALL
GASTEIGER

@<TRIPOS>ATOM
      1  P         19.9060   23.0360    7.4980 P.3   500  AMP500      0.5327
      2  O1P       20.2010   23.4250    6.0690 O.2   500  AMP500     -0.2224
      3  O2P       18.5930   22.3200    7.6690 O.3   500  AMP500     -0.1145
      4  O3P       21.0540   22.4100    8.2520 O.3   500  AMP500     -0.1145
      5  O5'       19.6650   24.4430    8.2450 O.3   500  AMP500     -0.2675
      6  C5'       19.5200   24.5020    9.6640 C.3   500  AMP500      0.1860
      7  C4'       18.6330   25.6740   10.0790 C.3   500  AMP500      0.1823
      8  O4'       19.2620   26.9250    9.7850 O.3   500  AMP500     -0.3135
      9  C3'       17.2760   25.6890    9.3840 C.3   500  AMP500      0.2184
     10  O3'       16.2580   25.5900   10.3820 O.3   500  AMP500     -0.2174
     11  C2'       17.1970   27.0290    8.6770 C.3   500  AMP500      0.2570
     12  O2'       15.9090   27.6450    8.7970 O.3   500  AMP500     -0.2130
     13  C1'       18.2530   27.8570    9.3860 C.3   500  AMP500      0.3186
     14  N9        18.8100   28.9060    8.4980 N.pl3 500  AMP500     -0.1439
     15  C8        19.8210   28.7490    7.6210 C.3   500  AMP500      0.3377
     16  N7        20.0840   29.9100    6.9700 N.2   500  AMP500     -0.2095
     17  C5        19.2270   30.8370    7.4360 C.2   500  AMP500      0.2526
     18  C6        18.9600   32.2740    7.1800 C.2   500  AMP500      0.4393
     19  N6        19.6880   32.9600    6.2650 N.pl3 500  AMP500      0.2180
     20  N1        17.9700   32.8730    7.8860 N.2   500  AMP500      0.0021
     21  C2        17.2360   32.2000    8.7980 C.3   500  AMP500      0.5254
     22  N3        17.4270   30.8960    9.0830 N.2   500  AMP500     -0.0055
     23  C4        18.3880   30.1720    8.4470 C.2   500  AMP500      0.3518
@<TRIPOS>BOND
     1     2     1    2
     2    19    18    1
     3    16    17    2
     4    16    15    1
     5    18    17    1
     6    18    20    2
     7    17    23    1
     8     1     3    1
     9     1     5    1
    10     1     4    1
    11    15    14    1
    12    20    21    1
    13     5     6    1
    14    23    14    1
    15    23    22    2
    16    14    13    1
    17    11    12    1
    18    11     9    1
    19    11    13    1
    20    21    22    1
    21     9     7    1
    22     9    10    1
    23    13     8    1
    24     6     7    1
    25     8     7    1
