@<TRIPOS>MOLECULE
3tm0_B31_A_1.pdb
 38 40 0 0 0
SMALL
GASTEIGER

@<TRIPOS>ATOM
      1  C01       52.0990   29.3040   15.1870 C.3   305  B31305      0.1297
      2  C02       51.8550   29.8930   16.5490 C.3   305  B31305      0.0459
      3  C03       52.2250   31.3470   16.5100 C.3   305  B31305      0.1232
      4  C04       51.3890   32.0930   15.4910 C.3   305  B31305      0.1649
      5  C05       51.6130   31.5300   14.1170 C.3   305  B31305      0.1782
      6  C06       51.3500   30.0360   14.1150 C.3   305  B31305      0.2012
      7  N01       51.6780   27.9030   15.0800 N.am  305  B31305     -0.2023
      8  N03       52.1230   31.9410   17.8440 N.3   305  B31305     -0.1302
      9  O04       51.7000   33.4680   15.5250 O.3   305  B31305     -0.3278
     10  O05       50.8060   32.2110   13.1710 O.3   305  B31305     -0.3258
     11  O06       51.6940   29.4560   12.8880 O.3   305  B31305     -0.2186
     12  C11       50.6590   34.2960   15.0990 C.3   305  B31305      0.2561
     13  C12       51.2630   35.5870   14.5870 C.3   305  B31305      0.1807
     14  C13       51.6940   36.4570   15.6920 C.3   305  B31305      0.2070
     15  C14       50.6380   36.7060   16.6050 C.3   305  B31305      0.2122
     16  C15       50.1970   35.4040   17.1970 C.3   305  B31305      0.1696
     17  C16       49.1330   35.6060   18.1950 C.3   305  B31305      0.1415
     18  N12       52.4330   35.2770   13.7550 N.3   305  B31305     -0.1248
     19  N16       48.4850   34.4230   18.7000 N.3   305  B31305     -0.1286
     20  O11       49.7230   34.4990   16.1230 O.3   305  B31305     -0.3276
     21  O13       52.2340   37.6920   15.1710 O.3   305  B31305     -0.2186
     22  O14       51.0110   37.6200   17.6660 O.3   305  B31305     -0.2177
     23  C21       51.3770   32.2690   11.9300 C.3   305  B31305      0.2695
     24  C22       50.4110   31.7770   10.9330 C.3   305  B31305      0.2404
     25  C23       49.7110   32.9460   10.5000 C.3   305  B31305      0.2168
     26  C24       50.7140   34.0030   10.6010 C.3   305  B31305      0.1836
     27  C25       50.1170   35.2610   11.0140 C.3   305  B31305      0.2142
     28  O21       51.6730   33.5810   11.5680 O.3   305  B31305     -0.3256
     29  O22       51.1010   31.2010    9.8590 O.3   305  B31305     -0.2149
     30  O23       48.6240   33.1920   11.3440 O.3   305  B31305     -0.2175
     31  O25       50.9930   36.3370   11.0840 O.3   305  B31305     -0.2176
     32  C51       52.5340   26.9150   14.4180 C.2   305  B31305      0.2719
     33  C52       52.0510   25.4910   14.2850 C.3   305  B31305      0.2305
     34  C53       51.4980   25.2150   12.9110 C.3   305  B31305      0.0630
     35  C54       52.4640   25.2100   11.7440 C.3   305  B31305      0.1124
     36  N54       52.3240   24.1390   10.7660 N.3   305  B31305     -0.1313
     37  O51       53.6370   27.2390   13.9640 O.2   305  B31305     -0.2706
     38  O52       51.0330   25.2730   15.1770 O.3   305  B31305     -0.2131
@<TRIPOS>BOND
     1    29    24    1
     2    25    26    1
     3    25    24    1
     4    25    30    1
     5    26    27    1
     6    26    28    1
     7    36    35    1
     8    24    23    1
     9    27    31    1
    10    28    23    1
    11    35    34    1
    12    23    10    1
    13    11     6    1
    14    34    33    1
    15    10     5    1
    16    18    13    1
    17    37    32    2
    18     6     5    1
    19     6     1    1
    20     5     4    1
    21    33    32    1
    22    33    38    1
    23    32     7   am
    24    13    12    1
    25    13    14    1
    26     7     1    1
    27    12     9    1
    28    12    20    1
    29    21    14    1
    30     1     2    1
    31     4     9    1
    32     4     3    1
    33    14    15    1
    34    20    16    1
    35     3     2    1
    36     3     8    1
    37    15    16    1
    38    15    22    1
    39    16    17    1
    40    17    19    1
