@<TRIPOS>MOLECULE
3tm0_ANP_A_1.pdb
 31 33 0 0 0
SMALL
GASTEIGER

@<TRIPOS>ATOM
      1  PG        49.6880   40.5690   16.1790 P.3   300  ANP300      0.4884
      2  O1G       50.7410   40.1590   17.2340 O.3   300  ANP300     -0.1240
      3  O2G       50.4570   41.1500   14.9140 O.2   300  ANP300     -0.2331
      4  O3G       48.8540   39.3940   15.7740 O.3   300  ANP300     -0.1240
      5  PB        49.3880   43.1200   17.3930 P.3   300  ANP300      0.4669
      6  O1B       48.5290   43.7010   18.5450 O.3   300  ANP300     -0.1253
      7  O2B       50.8060   42.9140   17.8500 O.2   300  ANP300     -0.2351
      8  N3B       48.6090   41.7560   16.8310 N.3   300  ANP300     -0.0163
      9  PA        50.4810   44.8930   15.3600 P.3   300  ANP300      0.2220
     10  O1A       51.4100   45.8380   16.0980 O.3   300  ANP300     -0.4370
     11  O2A       51.2830   43.8690   14.5630 O.2   300  ANP300     -0.5170
     12  O3A       49.3630   44.1740   16.2300 O.3   300  ANP300     -0.2360
     13  O5'       49.6130   45.7860   14.3910 O.3   300  ANP300     -0.3111
     14  C5'       48.7080   45.1070   13.5400 C.3   300  ANP300      0.1813
     15  C4'       48.5750   45.5670   12.1660 C.3   300  ANP300      0.1821
     16  O4'       48.1870   46.9820   12.1810 O.3   300  ANP300     -0.3135
     17  C3'       49.8560   45.5130   11.4320 C.3   300  ANP300      0.2184
     18  O3'       50.0450   44.3180   10.7990 O.3   300  ANP300     -0.2174
     19  C2'       49.7190   46.6180   10.4710 C.3   300  ANP300      0.2570
     20  O2'       48.9740   46.2460    9.4030 O.3   300  ANP300     -0.2130
     21  C1'       48.9970   47.6710   11.2600 C.3   300  ANP300      0.3186
     22  N9        49.8710   48.6270   11.9600 N.pl3 300  ANP300     -0.1439
     23  C8        50.1130   48.6150   13.2840 C.3   300  ANP300      0.3377
     24  N7        50.9650   49.6170   13.5680 N.2   300  ANP300     -0.2095
     25  C5        51.2660   50.2680   12.4260 C.2   300  ANP300      0.2526
     26  C6        52.0740   51.3730   12.1340 C.2   300  ANP300      0.4393
     27  N6        52.7870   52.0680   13.1830 N.pl3 300  ANP300      0.2180
     28  N1        52.1640   51.7850   10.8620 N.2   300  ANP300      0.0021
     29  C2        51.4890   51.1590    9.8840 C.3   300  ANP300      0.5254
     30  N3        50.7050   50.1120   10.1270 N.2   300  ANP300     -0.0055
     31  C4        50.5660   49.6430   11.3900 C.2   300  ANP300      0.3518
@<TRIPOS>BOND
     1    20    19    1
     2    29    30    1
     3    29    28    1
     4    30    31    2
     5    19    21    1
     6    19    17    1
     7    18    17    1
     8    28    26    2
     9    21    22    1
    10    21    16    1
    11    31    22    1
    12    31    25    1
    13    17    15    1
    14    22    23    1
    15    26    25    1
    16    26    27    1
    17    15    16    1
    18    15    14    1
    19    25    24    2
    20    23    24    1
    21    14    13    1
    22    13     9    1
    23    11     9    2
    24     3     1    2
    25     9    10    1
    26     9    12    1
    27     4     1    1
    28     1     8    1
    29     1     2    1
    30    12     5    1
    31     8     5    1
    32     5     7    2
    33     5     6    1
