@<TRIPOS>MOLECULE
3tm2_TXI_A_1.pdb
 15 14 0 0 0
SMALL
GASTEIGER

@<TRIPOS>ATOM
      1  N1        11.0440   39.4390   32.9530 N.am  400  TXI400     -0.2032
      2  O1        15.3110   38.2460   32.1630 O.3   400  TXI400     -0.2231
      3  C1        15.1080   38.2700   34.5950 C.3   400  TXI400      0.0355
      4  O2        11.2820   40.1460   30.8840 O.2   400  TXI400     -0.2706
      5  C2        10.5760   43.1700   31.3240 C.3   400  TXI400      0.0057
      6  C3        14.6270   38.6930   33.2230 C.3   400  TXI400      0.1539
      7  O3         8.4330   40.9380   31.0670 O.3   400  TXI400     -0.2131
      8  C4        13.3750   39.5320   33.0970 C.3   400  TXI400      0.0563
      9  O4         7.3920   42.9340   33.2950 O.3   400  TXI400     -0.2203
     10  C5        10.3960   42.6720   33.7760 C.3   400  TXI400      0.0057
     11  C6        12.2190   38.5770   32.9380 C.3   400  TXI400      0.1178
     12  C7         9.3900   41.0770   32.1580 C.3   400  TXI400      0.2313
     13  C8        10.6800   40.2560   31.9530 C.2   400  TXI400      0.2719
     14  C9         9.6840   42.5720   32.4250 C.3   400  TXI400      0.0674
     15  C10        8.4090   43.4260   32.4000 C.3   400  TXI400      0.1849
@<TRIPOS>BOND
     1     4    13    2
     2     7    12    1
     3     5    14    1
     4    13    12    1
     5    13     1   am
     6    12    14    1
     7     2     6    1
     8    15    14    1
     9    15     9    1
    10    14    10    1
    11    11     1    1
    12    11     8    1
    13     8     6    1
    14     6     3    1
