@<TRIPOS>MOLECULE
3tm4_SAM_A_1.pdb
 27 29 0 0 0
SMALL
GASTEIGER

@<TRIPOS>ATOM
      1  N         76.0910   10.8380   79.5210 N.3   401  SAM401     -0.1208
      2  CA        76.3830   10.4030   80.9200 C.3   401  SAM401      0.1952
      3  C         75.1580    9.8010   81.6050 C.2   401  SAM401      0.3819
      4  O         74.0670    9.7230   81.0010 O.co2 401  SAM401     -0.2441
      5  OXT       75.2170    9.4740   82.8150 O.co2 401  SAM401     -0.2441
      6  CB        76.7010   11.6870   81.6880 C.3   401  SAM401      0.0414
      7  CG        78.1420   12.1390   81.4800 C.3   401  SAM401      0.0503
      8  SD        78.4660   13.7330   82.3130 S.3   401  SAM401     -0.1761
      9  CE        77.7010   15.0510   81.3410 C.3   401  SAM401      0.0590
     10  C5'       80.2240   13.9740   82.0490 C.3   401  SAM401      0.0806
     11  C4'       81.0520   12.9910   82.8560 C.3   401  SAM401      0.1622
     12  O4'       82.3980   13.1960   82.5690 O.3   401  SAM401     -0.3153
     13  C3'       80.9110   13.0890   84.3870 C.3   401  SAM401      0.2168
     14  O3'       80.4350   11.8150   84.8170 O.3   401  SAM401     -0.2175
     15  C2'       82.3360   13.3940   84.8650 C.3   401  SAM401      0.2569
     16  O2'       82.7630   12.8090   86.0780 O.3   401  SAM401     -0.2130
     17  C1'       83.1430   12.8250   83.7030 C.3   401  SAM401      0.3185
     18  N9        84.5020   13.3880   83.6160 N.pl3 401  SAM401     -0.1439
     19  C8        84.8990   14.6880   83.9110 C.3   401  SAM401      0.3377
     20  N7        86.2350   14.7720   83.6730 N.2   401  SAM401     -0.2095
     21  C5        86.6880   13.5670   83.2870 C.2   401  SAM401      0.2526
     22  C6        87.9300   13.0810   82.8950 C.2   401  SAM401      0.4393
     23  N6        89.0430   13.8300   82.8860 N.pl3 401  SAM401      0.2180
     24  N1        88.0440   11.7600   82.5670 N.2   401  SAM401      0.0021
     25  C2        86.9440   10.9410   82.4820 C.3   401  SAM401      0.5254
     26  N3        85.7310   11.4190   82.8680 N.2   401  SAM401     -0.0055
     27  C4        85.5940   12.7060   83.2340 C.2   401  SAM401      0.3518
@<TRIPOS>BOND
     1     1     2    1
     2     2     3    1
     3     2     6    1
     4     4     3   ar
     5     9     8    1
     6     7     6    1
     7     7     8    1
     8     3     5   ar
     9    10     8    1
    10    10    11    1
    11    25    24    1
    12    25    26    1
    13    24    22    2
    14    12    11    1
    15    12    17    1
    16    11    13    1
    17    26    27    2
    18    23    22    1
    19    22    21    1
    20    27    21    1
    21    27    18    1
    22    21    20    2
    23    18    17    1
    24    18    19    1
    25    20    19    1
    26    17    15    1
    27    13    14    1
    28    13    15    1
    29    15    16    1
