@<TRIPOS>MOLECULE
3tm5_SFG_A_1.pdb
 27 29 0 0 0
SMALL
GASTEIGER

@<TRIPOS>ATOM
      1  N         43.0990   35.1040   79.4660 N.3   401  SFG401     -0.1208
      2  CA        43.1230   35.3470   80.9380 C.3   401  SFG401      0.1944
      3  C         44.4200   35.9320   81.4010 C.2   401  SFG401      0.3819
      4  O         45.4350   35.9030   80.6770 O.co2 401  SFG401     -0.2441
      5  OXT       44.4950   36.4790   82.5170 O.co2 401  SFG401     -0.2441
      6  CB        42.8410   34.0330   81.6400 C.3   401  SFG401      0.0321
      7  CG        41.3480   33.7910   81.4460 C.3   401  SFG401      0.0212
      8  CD        40.7340   32.7080   82.3170 C.3   401  SFG401      0.0944
      9  NE        41.2670   31.4120   81.9700 N.3   401  SFG401     -0.1328
     10  C5'       39.2460   32.6410   81.9920 C.3   401  SFG401      0.0514
     11  C4'       38.3300   33.4320   82.9190 C.3   401  SFG401      0.1537
     12  O4'       36.9780   33.0950   82.5750 O.3   401  SFG401     -0.3161
     13  C3'       38.4660   32.9980   84.3680 C.3   401  SFG401      0.2159
     14  O3'       39.2560   33.9770   85.0710 O.3   401  SFG401     -0.2175
     15  C2'       37.0060   32.8960   84.8550 C.3   401  SFG401      0.2569
     16  O2'       36.7480   33.7480   85.9600 O.3   401  SFG401     -0.2130
     17  C1'       36.1930   33.4550   83.6870 C.3   401  SFG401      0.3185
     18  N9        34.8000   32.9630   83.5860 N.pl3 401  SFG401     -0.1439
     19  C8        34.3730   31.7450   83.9530 C.3   401  SFG401      0.3377
     20  N7        33.0460   31.5910   83.7470 N.2   401  SFG401     -0.2095
     21  C5        32.5940   32.7400   83.2680 C.2   401  SFG401      0.2526
     22  C6        31.2790   33.2370   82.8360 C.2   401  SFG401      0.4393
     23  N6        30.1680   32.4500   82.8950 N.pl3 401  SFG401      0.2180
     24  N1        31.2180   34.4750   82.3430 N.2   401  SFG401      0.0021
     25  C2        32.3220   35.2520   82.2800 C.3   401  SFG401      0.5254
     26  N3        33.5490   34.8660   82.6730 N.2   401  SFG401     -0.0055
     27  C4        33.7520   33.6430   83.1680 C.2   401  SFG401      0.3518
@<TRIPOS>BOND
     1     1     2    1
     2     4     3   ar
     3     2     3    1
     4     2     6    1
     5     3     5   ar
     6     7     6    1
     7     7     8    1
     8     9     8    1
     9    10     8    1
    10    10    11    1
    11    25    24    1
    12    25    26    1
    13    24    22    2
    14    12    11    1
    15    12    17    1
    16    26    27    2
    17    22    23    1
    18    22    21    1
    19    11    13    1
    20    27    21    1
    21    27    18    1
    22    21    20    2
    23    18    17    1
    24    18    19    1
    25    17    15    1
    26    20    19    1
    27    13    15    1
    28    13    14    1
    29    15    16    1
