@<TRIPOS>MOLECULE
3tme_THP_A_1.pdb
 25 26 0 0 0
SMALL
GASTEIGER

@<TRIPOS>ATOM
      1  P2        17.7240   -6.2850  -14.7100 P.3   150  THP150      0.5327
      2  O4P       17.6110   -7.7430  -14.4830 O.2   150  THP150     -0.2224
      3  O5P       16.4990   -5.4690  -14.2920 O.3   150  THP150     -0.1145
      4  O6P       19.0250   -5.6850  -14.1770 O.3   150  THP150     -0.1145
      5  P1        21.0370   -2.8540  -18.5640 P.3   150  THP150      0.5326
      6  O1P       21.9980   -2.2560  -19.5000 O.2   150  THP150     -0.2224
      7  O2P       21.6860   -4.0310  -17.7880 O.3   150  THP150     -0.1145
      8  O3P       20.3420   -1.9470  -17.6510 O.3   150  THP150     -0.1145
      9  O5'       17.7940   -6.2570  -16.2710 O.3   150  THP150     -0.2675
     10  C5'       17.7830   -4.9800  -16.9470 C.3   150  THP150      0.1857
     11  C4'       18.6600   -5.0670  -18.1940 C.3   150  THP150      0.1748
     12  O4'       18.2450   -6.1610  -19.0450 O.3   150  THP150     -0.3340
     13  C3'       18.5960   -3.7890  -19.0360 C.3   150  THP150      0.1600
     14  O3'       19.9330   -3.5160  -19.5510 O.3   150  THP150     -0.2700
     15  C2'       17.6940   -4.2870  -20.2020 C.3   150  THP150      0.0847
     16  C1'       17.9280   -5.7600  -20.3380 C.3   150  THP150      0.2089
     17  N1        16.6930   -6.4050  -20.7240 N.am  150  THP150     -0.1794
     18  C2        16.4690   -6.6430  -22.0570 C.1   150  THP150      0.2844
     19  O2        17.3480   -6.3380  -22.9060 O.2   150  THP150     -0.1918
     20  N3        15.2690   -7.1730  -22.4580 N.2   150  THP150     -0.2455
     21  C4        14.2730   -7.4530  -21.5840 C.1   150  THP150      0.2134
     22  O4        13.1850   -7.8380  -22.0340 O.2   150  THP150     -0.2088
     23  C5        14.4630   -7.2010  -20.1990 C.2   150  THP150      0.0891
     24  C5M       13.3970   -7.5370  -19.1650 C.3   150  THP150      0.0462
     25  C6        15.6840   -6.7190  -19.7990 C.2   150  THP150      0.0877
@<TRIPOS>BOND
     1    19    18    2
     2    20    18    2
     3    20    21    2
     4    18    17   am
     5    22    21    2
     6    21    23    1
     7    17    16    1
     8    17    25    1
     9    16    15    1
    10    16    12    1
    11    15    13    1
    12    23    25    2
    13    23    24    1
    14    14    13    1
    15    14     5    1
    16     6     5    2
    17    12    11    1
    18    13    11    1
    19     5     7    1
    20     5     8    1
    21    11    10    1
    22    10     9    1
    23     9     1    1
    24     1     2    2
    25     1     3    1
    26     1     4    1
