@<TRIPOS>MOLECULE
3tmi_ADP_A_1.pdb
 27 29 0 0 0
SMALL
GASTEIGER

@<TRIPOS>ATOM
      1  PB       -27.6120   77.0150    6.4800 P.3     2  ADP2        0.5373
      2  O1B      -26.4100   77.7050    5.8610 O.3     2  ADP2       -0.1143
      3  O2B      -27.5650   76.9400    7.9880 O.3     2  ADP2       -0.1143
      4  O3B      -27.9630   75.7070    5.8110 O.2     2  ADP2       -0.2221
      5  PA       -29.1890   78.6840    4.8040 P.3     2  ADP2        0.2231
      6  O1A      -29.2240   80.1850    5.0080 O.3     2  ADP2       -0.4370
      7  O2A      -28.2740   78.0630    3.7730 O.2     2  ADP2       -0.5169
      8  O3A      -28.9090   77.9500    6.2150 O.3     2  ADP2       -0.2261
      9  O5'      -30.6870   78.2350    4.4340 O.3     2  ADP2       -0.3111
     10  C5'      -30.9700   77.9080    3.0770 C.3     2  ADP2        0.1813
     11  C4'      -32.2340   78.6230    2.6290 C.3     2  ADP2        0.1821
     12  O4'      -32.7740   79.3650    3.7120 O.3     2  ADP2       -0.3135
     13  C3'      -31.9780   79.6300    1.5140 C.3     2  ADP2        0.2184
     14  O3'      -32.5920   79.1770    0.3040 O.3     2  ADP2       -0.2174
     15  C2'      -32.6380   80.9210    1.9490 C.3     2  ADP2        0.2570
     16  O2'      -33.4940   81.4000    0.9080 O.3     2  ADP2       -0.2130
     17  C1'      -33.4450   80.5000    3.1610 C.3     2  ADP2        0.3186
     18  N9       -33.5900   81.5620    4.1800 N.pl3   2  ADP2       -0.1439
     19  C8       -32.6220   82.0670    4.9690 C.3     2  ADP2        0.3377
     20  N7       -33.1350   83.0170    5.7930 N.2     2  ADP2       -0.2095
     21  C5       -34.4550   83.1210    5.5300 C.2     2  ADP2        0.2526
     22  C6       -35.6030   83.9260    6.0270 C.2     2  ADP2        0.4393
     23  N6       -35.4490   84.8460    7.0110 N.pl3   2  ADP2        0.2180
     24  N1       -36.8200   83.7150    5.4650 N.2     2  ADP2        0.0021
     25  C2       -37.0120   82.8110    4.4840 C.3     2  ADP2        0.5254
     26  N3       -36.0140   82.0510    3.9900 N.2     2  ADP2       -0.0055
     27  C4       -34.7450   82.1550    4.4620 C.2     2  ADP2        0.3518
@<TRIPOS>BOND
     1    14    13    1
     2    16    15    1
     3    13    15    1
     4    13    11    1
     5    15    17    1
     6    11    10    1
     7    11    12    1
     8    10     9    1
     9    17    12    1
    10    17    18    1
    11     7     5    2
    12    26    27    2
    13    26    25    1
    14    18    27    1
    15    18    19    1
    16     9     5    1
    17    27    21    1
    18    25    24    1
    19     5     6    1
    20     5     8    1
    21    19    20    1
    22    24    22    2
    23    21    20    2
    24    21    22    1
    25     4     1    2
    26     2     1    1
    27    22    23    1
    28     8     1    1
    29     1     3    1
