@<TRIPOS>MOLECULE
3tmn_TRP_E_1.pdb
 15 16 0 0 0
SMALL
GASTEIGER

@<TRIPOS>ATOM
      1  N         53.0500   16.0150   -3.8250 N.3   318  TRP318     -0.1205
      2  CA        53.6750   14.7290   -4.1300 C.3   318  TRP318      0.1984
      3  C         52.8080   13.9510   -5.1010 C.2   318  TRP318      0.3822
      4  O         51.6670   14.4380   -5.3950 O.co2 318  TRP318     -0.2440
      5  CB        54.0940   13.9270   -2.9060 C.3   318  TRP318      0.0549
      6  CG        52.8980   13.4510   -2.2090 C.2   318  TRP318     -0.0138
      7  CD1       52.1710   14.1770   -1.3400 C.2   318  TRP318      0.0907
      8  CD2       52.2840   12.1730   -2.3080 C.3   318  TRP318      0.0819
      9  NE1       51.1220   13.4150   -0.8810 N.2   318  TRP318     -0.2482
     10  CE2       51.1510   12.1940   -1.4710 C.2   318  TRP318      0.0665
     11  CE3       52.5600   11.0070   -3.0360 C.2   318  TRP318     -0.0164
     12  CZ2       50.2980   11.0890   -1.3330 C.2   318  TRP318      0.0153
     13  CZ3       51.7280    9.9040   -2.9130 C.2   318  TRP318     -0.0038
     14  CH2       50.6060    9.9650   -2.0750 C.2   318  TRP318      0.0009
     15  OXT       53.3210   12.9230   -5.6050 O.co2 318  TRP318     -0.2440
@<TRIPOS>BOND
     1    15     3   ar
     2     4     3   ar
     3     3     2    1
     4     2     1    1
     5     2     5    1
     6    11    13    2
     7    11     8    1
     8    13    14    1
     9     5     6    1
    10     8     6    1
    11     8    10    1
    12     6     7    2
    13    14    12    2
    14    10    12    1
    15    10     9    2
    16     7     9    1
