@<TRIPOS>MOLECULE
3tmq_A5P_A_1.pdb
 14 13 0 0 0
SMALL
GASTEIGER

@<TRIPOS>ATOM
      1  C1        67.5530   69.6050   11.0120 C.3   282  A5P282      0.2175
      2  O1        66.3940   69.7640   11.8450 O.3   282  A5P282     -0.2175
      3  C2        66.8760   69.2670    9.6350 C.3   282  A5P282      0.2175
      4  O2        67.6980   68.3370    8.9290 O.3   282  A5P282     -0.2175
      5  C3        65.4640   68.6340    9.6730 C.3   282  A5P282      0.2174
      6  O3        65.6330   67.3810   10.3260 O.3   282  A5P282     -0.2175
      7  C4        64.8030   68.3310    8.3100 C.3   282  A5P282      0.2147
      8  O4        64.8170   69.5200    7.5040 O.3   282  A5P282     -0.2176
      9  C5        63.3340   67.8830    8.4260 C.3   282  A5P282      0.1892
     10  O5        62.8520   67.1840    7.2670 O.3   282  A5P282     -0.2674
     11  P         61.3180   67.3100    6.8240 P.3   282  A5P282      0.5327
     12  O1P       60.4810   67.1620    8.0720 O.3   282  A5P282     -0.1145
     13  O2P       61.2250   68.6670    6.1560 O.3   282  A5P282     -0.1145
     14  O3P       61.0720   66.1800    5.8590 O.2   282  A5P282     -0.2224
@<TRIPOS>BOND
     1    14    11    2
     2    13    11    1
     3    11    10    1
     4    11    12    1
     5    10     9    1
     6     8     7    1
     7     7     9    1
     8     7     5    1
     9     4     3    1
    10     3     5    1
    11     3     1    1
    12     5     6    1
    13     1     2    1
