@<TRIPOS>MOLECULE
3tmz_CM5_A_1.pdb
 34 36 0 0 0
SMALL
GASTEIGER

@<TRIPOS>ATOM
      1  C7        36.7760  -21.0470   13.3930 C.3   502  CM5502      0.0000
      2  C8        36.9680  -20.6620   11.9010 C.3   502  CM5502      0.0000
      3  C9        36.8130  -19.1850   11.4590 C.3   502  CM5502      0.0000
      4  C10       35.8240  -18.3350   12.2860 C.3   502  CM5502      0.0000
      5  C11       35.1370  -19.2390   13.3230 C.3   502  CM5502      0.0000
      6  C6        36.2810  -19.8290   14.1340 C.3   502  CM5502      0.0000
      7  C5        35.9070  -19.9230   15.6180 C.3   502  CM5502      0.0000
      8  C4        35.4390  -21.2410   16.2520 C.3   502  CM5502      0.0001
      9  C3        35.1900  -21.0150   17.7750 C.3   502  CM5502      0.0026
     10  C2        35.1740  -22.2570   18.6510 C.3   502  CM5502      0.0322
     11  C1        36.1500  -23.3150   18.2130 C.3   502  CM5502      0.1449
     12  O12       35.8270  -24.1600   19.0920 O.3   502  CM5502     -0.3286
     13  C13       36.4780  -25.4160   18.8640 C.3   502  CM5502      0.2695
     14  C18       37.2790  -25.8390   20.1010 C.3   502  CM5502      0.2404
     15  O22       38.4120  -24.9740   20.2350 O.3   502  CM5502     -0.2149
     16  C17       37.7220  -27.2890   19.9580 C.3   502  CM5502      0.2167
     17  O21       38.2830  -27.7620   21.1600 O.3   502  CM5502     -0.2175
     18  O14       35.4400  -26.3430   18.5180 O.3   502  CM5502     -0.3257
     19  C15       35.6870  -27.7480   18.5360 C.3   502  CM5502      0.1803
     20  C19       34.3410  -28.4120   18.7480 C.3   502  CM5502      0.2141
     21  O20       33.4060  -27.4730   19.2900 O.3   502  CM5502     -0.2176
     22  C16       36.5250  -28.1910   19.7060 C.3   502  CM5502      0.1804
     23  O23       36.9180  -29.5080   19.3690 O.3   502  CM5502     -0.3257
     24  C24       36.5590  -30.7740   19.6510 C.3   502  CM5502      0.2695
     25  O25       35.2810  -30.8920   20.3060 O.3   502  CM5502     -0.3256
     26  C26       34.6140  -32.1760   20.2040 C.3   502  CM5502      0.1835
     27  C30       34.7020  -32.8710   21.5600 C.3   502  CM5502      0.2142
     28  O31       33.7980  -33.9800   21.5370 O.3   502  CM5502     -0.2176
     29  C27       35.1380  -33.1160   19.0960 C.3   502  CM5502      0.2144
     30  O32       34.0790  -34.0000   18.6980 O.3   502  CM5502     -0.2176
     31  C28       35.6990  -32.4020   17.8520 C.3   502  CM5502      0.2198
     32  O33       36.5620  -33.2540   17.0650 O.3   502  CM5502     -0.2174
     33  C29       36.4380  -31.0870   18.1500 C.3   502  CM5502      0.2406
     34  O34       35.7090  -30.0550   17.4490 O.3   502  CM5502     -0.2149
@<TRIPOS>BOND
     1     3     2    1
     2     3     4    1
     3     2     1    1
     4     4     5    1
     5     5     6    1
     6     1     6    1
     7     6     7    1
     8     7     8    1
     9     8     9    1
    10    32    31    1
    11    34    33    1
    12     9    10    1
    13    31    33    1
    14    31    29    1
    15    33    24    1
    16    11    10    1
    17    11    12    1
    18    18    19    1
    19    18    13    1
    20    19    20    1
    21    19    22    1
    22    30    29    1
    23    20    21    1
    24    13    12    1
    25    13    14    1
    26    29    26    1
    27    23    24    1
    28    23    22    1
    29    24    25    1
    30    22    16    1
    31    16    14    1
    32    16    17    1
    33    14    15    1
    34    26    25    1
    35    26    27    1
    36    28    27    1
