@<TRIPOS>MOLECULE
3tmz_06X_A_1.pdb
 28 29 0 0 0
SMALL
GASTEIGER

@<TRIPOS>ATOM
      1 CLAG       30.6200   -5.0280    6.3530 Cl    503  06X503     -0.0826
      2  CAZ       31.8430   -3.9850    5.6980 C.ar  503  06X503      0.0537
      3  CAJ       31.4260   -2.7320    5.2440 C.ar  503  06X503      0.0111
      4  CAH       32.3430   -1.8370    4.7110 C.ar  503  06X503      0.0008
      5  CAI       33.6830   -2.1880    4.6300 C.ar  503  06X503     -0.0003
      6  CAK       34.1060   -3.4340    5.0800 C.ar  503  06X503     -0.0034
      7  CBA       33.2020   -4.3670    5.6230 C.ar  503  06X503     -0.0100
      8  CBB       34.1420   -5.4360    5.8400 C.3   503  06X503      0.0571
      9  CAY       34.6380   -5.6110    7.2210 C.3   503  06X503      0.1542
     10  CAV       34.0290   -5.1080    8.3590 C.2   503  06X503      0.3233
     11  OAF       34.6230   -5.1910    9.3930 O.2   503  06X503     -0.2497
     12  OAS       32.7890   -4.6990    8.3240 O.3   503  06X503     -0.4482
     13  CAL       32.5440   -4.1640    9.5330 C.3   503  06X503      0.2086
     14  CAA       32.4240   -2.6590    9.3930 C.3   503  06X503      0.0513
     15  CAX       34.3330   -6.5300    4.9770 C.3   503  06X503      0.1517
     16  CAU       33.4070   -7.0440    3.9250 C.2   503  06X503      0.3234
     17  OAE       32.2580   -6.6530    3.8960 O.2   503  06X503     -0.2497
     18  OAQ       33.8000   -7.9900    3.0920 O.3   503  06X503     -0.4441
     19  CAB       32.6370   -8.5100    2.5990 C.3   503  06X503      0.2556
     20  CAT       35.6400   -6.9460    5.0500 C.2   503  06X503      0.0970
     21  CAC       36.0960   -7.8170    4.0870 C.3   503  06X503      0.0620
     22  NAP       36.4950   -6.6800    6.1560 N.2   503  06X503     -0.4155
     23  CAW       35.9470   -6.0120    7.1300 C.2   503  06X503      0.1262
     24  CAO       36.8070   -6.0480    8.3190 C.3   503  06X503      0.1965
     25  OAR       38.0300   -6.4480    8.0400 O.3   503  06X503     -0.3450
     26  CAN       38.7790   -5.5370    7.2130 C.3   503  06X503      0.1632
     27  CAM       40.0690   -5.3540    7.3290 C.3   503  06X503      0.1413
     28  NAD       40.5260   -4.8760    8.6110 N.3   503  06X503     -0.1286
@<TRIPOS>BOND
     1    19    18    1
     2    18    16    1
     3    17    16    2
     4    16    15    1
     5    21    20    1
     6     5     4   ar
     7     5     6   ar
     8     4     3   ar
     9    15    20    1
    10    15     8    1
    11    20    22    2
    12     6     7   ar
    13     3     2   ar
    14     7     2   ar
    15     7     8    1
    16     2     1    1
    17     8     9    1
    18    22    23    2
    19    23     9    1
    20    23    24    1
    21    26    27    1
    22    26    25    1
    23     9    10    1
    24    27    28    1
    25    25    24    1
    26    12    10    1
    27    12    13    1
    28    10    11    2
    29    14    13    1
