@<TRIPOS>MOLECULE
3tmz_HEM_A_1.pdb
 43 50 0 0 0
SMALL
GASTEIGER

@<TRIPOS>ATOM
      1  CHA       40.1080   -1.8620   10.5800 C.2   501  HEM501      0.0000
      2  CHB       42.5900   -2.7240    6.6730 C.2   501  HEM501      0.0000
      3  CHC       43.9110   -6.8770    8.4480 C.2   501  HEM501      0.0000
      4  CHD       42.1310   -5.6460   12.5910 C.2   501  HEM501      0.0000
      5  C1A       40.6470   -1.8280    9.3630 C.ar  501  HEM501      0.0000
      6  C2A       40.3370   -0.7900    8.4440 C.ar  501  HEM501      0.0000
      7  C3A       41.0140   -1.0160    7.3780 C.ar  501  HEM501      0.0000
      8  C4A       41.7750   -2.1960    7.5990 C.ar  501  HEM501      0.0000
      9  CMA       40.9600   -0.1360    6.1200 C.3   501  HEM501      0.0000
     10  CAA       39.3730    0.4040    8.5990 C.3   501  HEM501      0.0000
     11  CBA       39.9220    1.5430    9.4210 C.3   501  HEM501      0.0000
     12  CGA       38.9610    2.6920    9.5070 C.2   501  HEM501      0.0000
     13  O1A       37.8990    2.5700   10.1000 O.co2 501  HEM501      0.0000
     14  O2A       39.2490    3.7650    9.0010 O.co2 501  HEM501      0.0000
     15  C1B       43.0830   -3.9480    6.8540 C.2   501  HEM501      0.0000
     16  C2B       43.7670   -4.6500    5.8520 C.2   501  HEM501      0.0000
     17  C3B       44.1310   -5.7800    6.3510 C.2   501  HEM501      0.0000
     18  C4B       43.6880   -5.8160    7.6750 C.2   501  HEM501      0.0000
     19  CMB       44.0390   -4.1450    4.4430 C.3   501  HEM501      0.0000
     20  CAB       44.9040   -6.9270    5.7040 C.2   501  HEM501      0.0000
     21  CBB       45.5280   -6.8530    4.5540 C.2   501  HEM501      0.0000
     22  C1C       43.6250   -6.8420    9.7410 C.ar  501  HEM501      0.0000
     23  C2C       44.1560   -7.7330   10.6880 C.ar  501  HEM501      0.0000
     24  C3C       43.6680   -7.3930   11.8220 C.ar  501  HEM501      0.0000
     25  C4C       42.8180   -6.2790   11.6200 C.ar  501  HEM501      0.0000
     26  CMC       45.1250   -8.8810   10.4470 C.3   501  HEM501      0.0000
     27  CAC       44.0030   -8.1170   13.1170 C.2   501  HEM501      0.0000
     28  CBC       43.1000   -8.8630   13.6880 C.2   501  HEM501      0.0000
     29  C1D       41.3830   -4.5510   12.3990 C.2   501  HEM501      0.0000
     30  C2D       40.5530   -4.0160   13.4040 C.2   501  HEM501      0.0000
     31  C3D       39.9110   -2.8210   12.7870 C.2   501  HEM501      0.0000
     32  C4D       40.4390   -2.7900   11.4760 C.2   501  HEM501      0.0000
     33  CMD       40.3580   -4.5410   14.8230 C.3   501  HEM501      0.0000
     34  CAD       38.9060   -1.8610   13.4260 C.3   501  HEM501      0.0000
     35  CBD       39.6300   -0.7220   14.1030 C.3   501  HEM501      0.0000
     36  CGD       38.7270    0.2100   14.8470 C.2   501  HEM501      0.0000
     37  O1D       39.1620    0.7640   15.8260 O.co2 501  HEM501      0.0000
     38  O2D       37.5900    0.4300   14.4970 O.co2 501  HEM501      0.0000
     39  NA        41.5470   -2.7250    8.8490 N.ar  501  HEM501      0.0000
     40  NB        43.0220   -4.6700    8.0180 N.2   501  HEM501      0.0000
     41  NC        42.8030   -5.9380   10.3110 N.ar  501  HEM501      0.0000
     42  ND        41.3190   -3.8080   11.2480 N.2   501  HEM501      0.0000
     43 FE         42.3050   -4.2220    9.5900 Fe    501  HEM501      0.0000
@<TRIPOS>BOND
     1    19    16    1
     2    21    20    2
     3    20    17    1
     4    16    17    2
     5    16    15    1
     6     9     7    1
     7    17    18    1
     8     2    15    1
     9     2     8    2
    10    15    40    2
    11     7     8   ar
    12     7     6   ar
    13     8    39   ar
    14    18    40    1
    15    18     3    2
    16    40    43    1
    17     6    10    1
    18     6     5   ar
    19     3    22    1
    20    10    11    1
    21    39     5   ar
    22    39    43    1
    23    14    12   ar
    24     5     1    2
    25    11    12    1
    26    12    13   ar
    27    43    41    1
    28    43    42    1
    29    22    41   ar
    30    22    23   ar
    31    41    25   ar
    32    26    23    1
    33     1    32    1
    34    23    24   ar
    35    42    32    2
    36    42    29    1
    37    32    31    1
    38    25    24   ar
    39    25     4    1
    40    24    27    1
    41    29     4    2
    42    29    30    1
    43    31    30    2
    44    31    34    1
    45    27    28    2
    46    30    33    1
    47    34    35    1
    48    35    36    1
    49    38    36   ar
    50    36    37   ar
