@<TRIPOS>MOLECULE
3tn7_NJP_A_1.pdb
 49 53 0 0 0
SMALL
GASTEIGER

@<TRIPOS>ATOM
      1  O3        46.0230   -9.6230   10.4130 O.3   235  NJP235     -0.2703
      2  PA        46.1080  -10.0460    8.8710 P.3   235  NJP235      0.2189
      3  PN        44.8570   -8.8460   11.2920 P.3   235  NJP235      0.2189
      4  N1A       52.0070   -2.1570    4.6890 N.2   235  NJP235      0.0021
      5  O1A       44.8890  -10.7740    8.4190 O.2   235  NJP235     -0.5170
      6  C1B       48.4850   -5.4070    6.2840 C.3   235  NJP235      0.3158
      7  C1D       46.2650   -6.7330   15.1610 C.3   235  NJP235      0.2264
      8  N1N       45.9630   -7.8700   16.0210 N.pl3 235  NJP235     -0.2761
      9  O1N       44.4090   -9.7620   12.4320 O.3   235  NJP235     -0.4371
     10  O1X       47.9820   -6.6000    1.6430 O.2   235  NJP235     -0.2224
     11  C2A       50.6750   -2.0620    4.5670 C.3   235  NJP235      0.5254
     12  O2A       47.5010  -10.6390    8.7020 O.3   235  NJP235     -0.4371
     13  C2B       48.1320   -6.6240    5.4190 C.3   235  NJP235      0.2314
     14  O2B       47.9840   -6.2980    4.0540 O.3   235  NJP235     -0.2630
     15  P2B       48.9900   -6.5480    2.8090 P.3   235  NJP235      0.5328
     16  C2D       47.5190   -6.8880   14.2900 C.3   235  NJP235      0.2309
     17  O2D       48.7670   -6.7320   15.0110 O.3   235  NJP235     -0.2158
     18  C2N       45.6450   -9.0530   15.4530 C.3   235  NJP235      0.1246
     19  O2N       43.7000   -8.3980   10.4160 O.2   235  NJP235     -0.5170
     20  O2X       49.8820   -5.3360    2.8490 O.3   235  NJP235     -0.1145
     21  N3A       49.8390   -2.9880    5.0290 N.2   235  NJP235     -0.0055
     22  C3B       46.7730   -7.0130    5.9450 C.3   235  NJP235      0.2157
     23  O3B       45.6720   -6.2290    5.3440 O.3   235  NJP235     -0.2175
     24  C3D       47.2780   -5.7650   13.2850 C.3   235  NJP235      0.2158
     25  O3D       47.7800   -4.4890   13.7290 O.3   235  NJP235     -0.2175
     26  C3N       45.3930  -10.1540   16.2240 C.2   235  NJP235      0.0575
     27  O3X       49.6990   -7.8690    3.1160 O.3   235  NJP235     -0.1145
     28  C4A       50.4280   -4.0530    5.6680 C.2   235  NJP235      0.3518
     29  C4B       46.8560   -6.6070    7.4010 C.3   235  NJP235      0.1820
     30  O4B       47.9670   -5.6810    7.5610 O.3   235  NJP235     -0.3136
     31  C4D       45.7550   -5.6740   13.1490 C.3   235  NJP235      0.1799
     32  O4D       45.2200   -6.4810   14.2170 O.3   235  NJP235     -0.3327
     33  C4N       45.4800  -10.0610   17.6060 C.2   235  NJP235      0.0454
     34  C5A       51.8210   -4.1400    5.8430 C.2   235  NJP235      0.2526
     35  C5B       47.1600   -7.7460    8.3330 C.3   235  NJP235      0.1813
     36  O5B       46.0440   -8.6130    8.2010 O.3   235  NJP235     -0.3112
     37  C5D       45.2560   -6.2550   11.8020 C.3   235  NJP235      0.1813
     38  O5D       45.8090   -7.5750   11.6760 O.3   235  NJP235     -0.3112
     39  C5N       45.7460   -8.8560   18.2090 C.2   235  NJP235      0.2101
     40  C6A       52.6180   -3.1780    5.2800 C.2   235  NJP235      0.4393
     41  N6A       53.9630   -3.2300    5.4360 N.pl3 235  NJP235      0.2180
     42  C6N       46.0360   -7.7380   17.3760 C.2   235  NJP235      0.1059
     43  N7A       52.1010   -5.3160    6.4840 N.2   235  NJP235     -0.2095
     44  C7N       45.0110  -11.4750   15.6100 C.2   235  NJP235      0.2819
     45  N7N       44.5470  -11.4930   14.3660 N.am  235  NJP235     -0.0839
     46  O7N       45.1100  -12.6150   16.2840 O.2   235  NJP235     -0.2670
     47  C8A       50.8960   -5.8850    6.7650 C.3   235  NJP235      0.3377
     48  O8N       45.8290   -8.8150   19.5850 O.2   235  NJP235     -0.2852
     49  N9A       49.9150   -5.1130    6.2740 N.pl3 235  NJP235     -0.1439
@<TRIPOS>BOND
     1    10    15    2
     2    15    20    1
     3    15    27    1
     4    15    14    1
     5    14    13    1
     6    11     4    1
     7    11    21    1
     8     4    40    2
     9    21    28    2
    10    40    41    1
    11    40    34    1
    12    23    22    1
    13    13    22    1
    14    13     6    1
    15    28    34    1
    16    28    49    1
    17    34    43    2
    18    22    29    1
    19    49     6    1
    20    49    47    1
    21     6    30    1
    22    43    47    1
    23    29    30    1
    24    29    35    1
    25    36    35    1
    26    36     2    1
    27     5     2    2
    28    12     2    1
    29     2     1    1
    30     1     3    1
    31    19     3    2
    32     3    38    1
    33     3     9    1
    34    38    37    1
    35    37    31    1
    36    31    24    1
    37    31    32    1
    38    24    25    1
    39    24    16    1
    40    32     7    1
    41    16    17    1
    42    16     7    1
    43    45    44   am
    44     7     8    1
    45    18     8    1
    46    18    26    1
    47    44    26    1
    48    44    46    2
    49     8    42    1
    50    26    33    2
    51    42    39    2
    52    33    39    1
    53    39    48    1
