@<TRIPOS>MOLECULE
3tn8_F18_A_1.pdb
 16 17 0 0 0
SMALL
GASTEIGER

@<TRIPOS>ATOM
      1  C3        47.4620  -14.9800  -13.2600 C.ar  332  F18332      0.1958
      2  C6        47.9050  -13.6720  -13.0960 C.ar  332  F18332      0.0434
      3  C2        49.2430  -13.3680  -13.2230 C.ar  332  F18332      0.0215
      4  O3        46.1400  -15.2670  -13.1260 O.3   332  F18332     -0.2866
      5  C5        50.1510  -14.3890  -13.5140 C.ar  332  F18332      0.0917
      6  C4        49.7020  -15.7030  -13.6730 C.ar  332  F18332      0.0215
      7  C1        48.3630  -15.9950  -13.5480 C.ar  332  F18332      0.0434
      8  N9        51.4830  -14.1110  -13.6370 N.pl3 332  F18332     -0.1167
      9  N13       52.3450  -15.0700  -13.5740 N.2   332  F18332     -0.1428
     10  C14       53.6620  -14.8120  -13.7830 C.2   332  F18332      0.2896
     11  C19       54.6660  -15.7650  -13.9190 C.2   332  F18332      0.4921
     12  N16       54.5010  -17.1370  -13.8550 N.pl3 332  F18332      0.2233
     13  N20       55.8250  -15.1030  -14.1190 N.2   332  F18332      0.2042
     14  N17       55.5620  -13.7280  -14.1090 N.2   332  F18332      0.2042
     15  C15       54.2840  -13.5380  -13.9100 C.2   332  F18332      0.4921
     16  N18       53.6600  -12.2940  -13.8350 N.pl3 332  F18332      0.2233
@<TRIPOS>BOND
     1    13    14    1
     2    13    11    2
     3    14    15    2
     4    11    12    1
     5    11    10    1
     6    15    16    1
     7    15    10    1
     8    10     9    2
     9     6     7   ar
    10     6     5   ar
    11     8     9    1
    12     8     5    1
    13     7     1   ar
    14     5     3   ar
    15     1     4    1
    16     1     2   ar
    17     3     2   ar
