@<TRIPOS>MOLECULE
3tne_RIT_A_1.pdb
 50 53 0 0 0
SMALL
GASTEIGER

@<TRIPOS>ATOM
      1  C1         2.8150  -26.1570  -28.0330 C.ar  401  RIT401      0.1053
      2  C2         3.9470  -26.5360  -27.3180 C.ar  401  RIT401      0.0714
      3  S3         3.7290  -28.1040  -26.6090 S.2   401  RIT401     -0.0652
      4  C4         2.1510  -28.2710  -27.2870 C.ar  401  RIT401      0.1343
      5  N5         1.8480  -27.1420  -27.9920 N.ar  401  RIT401     -0.2350
      6  C6         5.2470  -25.8690  -27.0090 C.3   401  RIT401      0.2448
      7  O7         4.9610  -24.5250  -26.6730 O.3   401  RIT401     -0.4279
      8  C10        5.6960  -23.4980  -27.3990 C.2   401  RIT401      0.4215
      9  O24        6.6360  -23.8230  -28.1240 O.2   401  RIT401     -0.2246
     10  N11        5.3590  -22.2280  -27.2570 N.am  401  RIT401     -0.1675
     11  C12        6.1910  -21.2110  -27.8800 C.3   401  RIT401      0.1333
     12  C13        6.2250  -20.0070  -26.9340 C.3   401  RIT401      0.1739
     13  C14        6.6640  -20.3200  -25.4850 C.3   401  RIT401      0.0567
     14  C15        8.1730  -20.3470  -25.2060 C.3   401  RIT401      0.1023
     15  C26        5.7150  -20.9260  -29.3210 C.3   401  RIT401      0.0507
     16  C28        5.8430  -22.1550  -30.2150 C.ar  401  RIT401     -0.0204
     17  C31        6.9970  -22.3510  -30.9960 C.ar  401  RIT401     -0.0042
     18  C32        7.1340  -23.4790  -31.8300 C.ar  401  RIT401     -0.0003
     19  C33        6.1260  -24.4420  -31.8900 C.ar  401  RIT401     -0.0000
     20  C34        4.9740  -24.2600  -31.1200 C.ar  401  RIT401     -0.0003
     21  C35        4.8280  -23.1210  -30.2890 C.ar  401  RIT401     -0.0042
     22  O41        4.9160  -19.4520  -26.8900 O.3   401  RIT401     -0.2212
     23  C44        8.4980  -19.5050  -23.9590 C.3   401  RIT401      0.0481
     24  C45        9.8610  -19.7440  -23.3170 C.ar  401  RIT401     -0.0205
     25  C48       10.1350  -18.9940  -22.1740 C.ar  401  RIT401     -0.0042
     26  C49       11.3340  -19.1330  -21.4580 C.ar  401  RIT401     -0.0003
     27  C50       12.2850  -20.0550  -21.8890 C.ar  401  RIT401     -0.0000
     28  C51       12.0250  -20.8220  -23.0350 C.ar  401  RIT401     -0.0003
     29  C52       10.8220  -20.6790  -23.7460 C.ar  401  RIT401     -0.0042
     30  N58        8.9460  -19.7340  -26.2510 N.am  401  RIT401     -0.2053
     31  N20       11.7110  -18.9270  -27.3250 N.am  401  RIT401     -0.1808
     32  C19       10.4480  -19.2890  -27.9360 C.3   401  RIT401      0.1742
     33  C18        9.7760  -20.3210  -27.0970 C.2   401  RIT401      0.2612
     34  O61       10.0290  -21.5200  -27.2180 O.2   401  RIT401     -0.2715
     35  C62       10.7130  -19.8110  -29.3620 C.3   401  RIT401      0.0290
     36  C64        9.4270  -19.9800  -30.1530 C.3   401  RIT401      0.0023
     37  C68       11.7070  -18.9330  -30.1190 C.3   401  RIT401      0.0023
     38  C21       12.1610  -17.7030  -27.4110 C.2   401  RIT401      0.3240
     39  N74       13.4640  -17.4990  -27.5110 N.am  401  RIT401     -0.2546
     40  C75       14.0710  -16.2830  -26.9960 C.3   401  RIT401      0.1504
     41  O76       11.4060  -16.7770  -27.5530 O.2   401  RIT401     -0.2507
     42  C77       14.0030  -16.3670  -25.5060 C.2   401  RIT401      0.1182
     43  C80       12.8330  -16.6210  -24.7810 C.3   401  RIT401      0.1202
     44  S81       13.1900  -16.6510  -23.0900 S.3   401  RIT401     -0.0795
     45  C82       14.8830  -16.3350  -23.3860 C.2   401  RIT401      0.1335
     46  N83       15.1200  -16.2200  -24.7250 N.2   401  RIT401     -0.4061
     47  C85       15.7900  -16.2480  -22.2110 C.3   401  RIT401      0.0585
     48  C86       15.0210  -15.8990  -20.9300 C.3   401  RIT401      0.0080
     49  C90       16.9160  -15.2470  -22.5190 C.3   401  RIT401      0.0080
     50  C95       14.3970  -18.4060  -28.1880 C.3   401  RIT401      0.1169
@<TRIPOS>BOND
     1    19    18   ar
     2    19    20   ar
     3    18    17   ar
     4    20    21   ar
     5    17    16   ar
     6    21    16   ar
     7    16    15    1
     8    36    35    1
     9    37    35    1
    10    35    32    1
    11    15    11    1
    12    50    39    1
    13     9     8    2
    14     1     5   ar
    15     1     2   ar
    16     5     4   ar
    17    32    31    1
    18    32    33    1
    19    11    10    1
    20    11    12    1
    21    41    38    2
    22    39    38   am
    23    39    40    1
    24    38    31   am
    25     8    10   am
    26     8     7    1
    27     2     6    1
    28     2     3   ar
    29     4     3   ar
    30    34    33    2
    31    33    30   am
    32     6     7    1
    33    40    42    1
    34    12    22    1
    35    12    13    1
    36    30    14    1
    37    42    43    1
    38    42    46    2
    39    13    14    1
    40    14    23    1
    41    43    44    1
    42    46    45    2
    43    23    24    1
    44    29    24   ar
    45    29    28   ar
    46    45    44    1
    47    45    47    1
    48    24    25   ar
    49    28    27   ar
    50    49    47    1
    51    47    48    1
    52    25    26   ar
    53    27    26   ar
