@<TRIPOS>MOLECULE
3tnf_GNP_A_1.pdb
 32 34 0 0 0
SMALL
GASTEIGER

@<TRIPOS>ATOM
      1  PG        33.4080   -3.4660   18.3040 P.3   200  GNP200      0.4884
      2  O1G       32.3870   -4.2610   19.0710 O.3   200  GNP200     -0.1240
      3  O2G       34.8450   -3.4080   18.8390 O.3   200  GNP200     -0.1240
      4  O3G       32.7420   -2.1330   18.0570 O.2   200  GNP200     -0.2331
      5  N3B       33.6260   -4.1730   16.8500 N.3   200  GNP200     -0.0163
      6  PB        34.5700   -3.5900   15.6600 P.3   200  GNP200      0.4669
      7  O1B       33.8100   -2.5850   14.8670 O.2   200  GNP200     -0.2351
      8  O2B       35.8040   -3.2190   16.4080 O.3   200  GNP200     -0.1253
      9  O3A       34.9570   -4.6990   14.6540 O.3   200  GNP200     -0.2360
     10  PA        36.2240   -5.5830   14.7440 P.3   200  GNP200      0.2220
     11  O1A       37.3250   -4.7500   14.2170 O.2   200  GNP200     -0.5170
     12  O2A       36.4350   -6.2300   16.0870 O.3   200  GNP200     -0.4370
     13  O5'       35.9800   -6.7800   13.7440 O.3   200  GNP200     -0.3111
     14  C5'       34.8020   -7.5200   13.8150 C.3   200  GNP200      0.1813
     15  C4'       35.0670   -8.9080   13.2350 C.3   200  GNP200      0.1799
     16  O4'       35.0750   -8.8950   11.7930 O.3   200  GNP200     -0.3326
     17  C3'       36.3740   -9.5790   13.6420 C.3   200  GNP200      0.2158
     18  O3'       36.1220  -10.9660   13.7430 O.3   200  GNP200     -0.2175
     19  C2'       37.3150   -9.3190   12.4730 C.3   200  GNP200      0.2310
     20  O2'       38.2740  -10.3520   12.2780 O.3   200  GNP200     -0.2158
     21  C1'       36.3560   -9.2860   11.2990 C.3   200  GNP200      0.2293
     22  N9        36.7240   -8.3260   10.2580 N.pl3 200  GNP200     -0.2354
     23  C8        37.0420   -6.9890   10.4180 C.3   200  GNP200      0.2246
     24  N7        37.2940   -6.3670    9.2940 N.2   200  GNP200     -0.2322
     25  C5        37.1340   -7.3550    8.3280 C.2   200  GNP200      0.2182
     26  C6        37.2870   -7.2740    6.9080 C.1   200  GNP200      0.2372
     27  O6        37.6070   -6.2790    6.2360 O.2   200  GNP200     -0.2069
     28  N1        37.0160   -8.4990    6.2870 N.2   200  GNP200     -0.2485
     29  C2        36.6600   -9.6530    6.9610 C.1   200  GNP200      0.2531
     30  N2        36.4420  -10.7330    6.2140 N.pl3 200  GNP200     -0.0226
     31  N3        36.5230   -9.7440    8.2860 N.2   200  GNP200     -0.3074
     32  C4        36.7720   -8.5600    8.9080 C.2   200  GNP200      0.2300
@<TRIPOS>BOND
     1    30    29    1
     2    27    26    2
     3    28    26    2
     4    28    29    2
     5    26    25    1
     6    29    31    2
     7    31    32    2
     8    25    32    1
     9    25    24    2
    10    32    22    1
    11    24    23    1
    12    22    23    1
    13    22    21    1
    14    21    16    1
    15    21    19    1
    16    16    15    1
    17    20    19    1
    18    19    17    1
    19    15    17    1
    20    15    14    1
    21    17    18    1
    22    13    14    1
    23    13    10    1
    24    11    10    2
    25     9    10    1
    26     9     6    1
    27    10    12    1
    28     7     6    2
    29     6     8    1
    30     6     5    1
    31     5     1    1
    32     4     1    2
    33     1     3    1
    34     1     2    1
