@<TRIPOS>MOLECULE
3tnh_F18_A_1.pdb
 16 17 0 0 0
SMALL
GASTEIGER

@<TRIPOS>ATOM
      1  C3        47.5240  -15.2590  -12.2740 C.ar  400  F18400      0.1958
      2  C6        47.9870  -13.9670  -12.0620 C.ar  400  F18400      0.0434
      3  C2        49.3310  -13.6780  -12.1500 C.ar  400  F18400      0.0215
      4  O3        46.2000  -15.4960  -12.1810 O.3   400  F18400     -0.2866
      5  C5        50.2240  -14.7040  -12.4550 C.ar  400  F18400      0.0917
      6  C4        49.7450  -16.0080  -12.6630 C.ar  400  F18400      0.0215
      7  C1        48.3950  -16.2960  -12.5750 C.ar  400  F18400      0.0434
      8  N9        51.5560  -14.4120  -12.5630 N.pl3 400  F18400     -0.1167
      9  N13       52.4580  -15.3410  -12.6420 N.2   400  F18400     -0.1428
     10  C14       53.7680  -14.9780  -12.7450 C.2   400  F18400      0.2896
     11  C19       54.8790  -15.8000  -12.7020 C.2   400  F18400      0.4921
     12  N16       54.8350  -17.1690  -12.5500 N.pl3 400  F18400      0.2233
     13  N20       55.9770  -15.0270  -12.8440 N.2   400  F18400      0.2042
     14  N17       55.5600  -13.7080  -12.9790 N.2   400  F18400      0.2042
     15  C15       54.2530  -13.6670  -12.9240 C.2   400  F18400      0.4921
     16  N18       53.4330  -12.5480  -13.0420 N.pl3 400  F18400      0.2233
@<TRIPOS>BOND
     1    16    15    1
     2    14    15    2
     3    14    13    1
     4    15    10    1
     5    13    11    2
     6    10    11    1
     7    10     9    2
     8    11    12    1
     9     6     7   ar
    10     6     5   ar
    11     9     8    1
    12     7     1   ar
    13     8     5    1
    14     5     3   ar
    15     1     4    1
    16     1     2   ar
    17     3     2   ar
