@<TRIPOS>MOLECULE
3tnj_AMP_A_1.pdb
 23 25 0 0 0
SMALL
GASTEIGER

@<TRIPOS>ATOM
      1  P        -15.5640  -11.7130   -0.9620 P.3   149  AMP149      0.5327
      2  O1P      -15.0130  -12.2240   -2.2990 O.2   149  AMP149     -0.2224
      3  O2P      -15.1810  -10.2960   -0.6090 O.3   149  AMP149     -0.1145
      4  O3P      -15.4780  -12.7250    0.1640 O.3   149  AMP149     -0.1145
      5  O5'      -17.1530  -11.7260   -1.2980 O.3   149  AMP149     -0.2675
      6  C5'      -18.2370  -11.1910   -0.5460 C.3   149  AMP149      0.1860
      7  C4'      -19.3810  -10.9010   -1.5360 C.3   149  AMP149      0.1823
      8  O4'      -18.8750  -10.5510   -2.8340 O.3   149  AMP149     -0.3135
      9  C3'      -20.3490  -12.0340   -1.8260 C.3   149  AMP149      0.2184
     10  O3'      -21.4460  -12.0860   -0.9210 O.3   149  AMP149     -0.2174
     11  C2'      -20.8720  -11.6660   -3.1870 C.3   149  AMP149      0.2570
     12  O2'      -21.8420  -10.6390   -2.9730 O.3   149  AMP149     -0.2130
     13  C1'      -19.6950  -11.0490   -3.8790 C.3   149  AMP149      0.3186
     14  N9       -18.9630  -12.1070   -4.5880 N.pl3 149  AMP149     -0.1439
     15  C8       -17.7440  -12.6260   -4.2770 C.3   149  AMP149      0.3377
     16  N7       -17.4130  -13.6080   -5.1590 N.2   149  AMP149     -0.2095
     17  C5       -18.4330  -13.6950   -6.0740 C.2   149  AMP149      0.2526
     18  C6       -18.7420  -14.4980   -7.2810 C.2   149  AMP149      0.4393
     19  N6       -17.8850  -15.4560   -7.7290 N.pl3 149  AMP149      0.2180
     20  N1       -19.9080  -14.2490   -7.9210 N.2   149  AMP149      0.0021
     21  C2       -20.7710  -13.3220   -7.4950 C.3   149  AMP149      0.5254
     22  N3       -20.5790  -12.5710   -6.3900 N.2   149  AMP149     -0.0055
     23  C4       -19.4390  -12.7030   -5.6770 C.2   149  AMP149      0.3518
@<TRIPOS>BOND
     1    20    21    1
     2    20    18    2
     3    19    18    1
     4    21    22    1
     5    18    17    1
     6    22    23    2
     7    17    23    1
     8    17    16    2
     9    23    14    1
    10    16    15    1
    11    14    15    1
    12    14    13    1
    13    13    11    1
    14    13     8    1
    15    11    12    1
    16    11     9    1
    17     8     7    1
    18     2     1    2
    19     9     7    1
    20     9    10    1
    21     7     6    1
    22     5     1    1
    23     5     6    1
    24     1     3    1
    25     1     4    1
