@<TRIPOS>MOLECULE
3tnk_HEM_A_1.pdb
 43 50 0 0 0
SMALL
GASTEIGER

@<TRIPOS>ATOM
      1  CHA       -1.4140   -1.7190  -17.4910 C.2   430  HEM430      0.0000
      2  CHB        0.2320   -3.6090  -21.5940 C.2   430  HEM430      0.0000
      3  CHC        4.6660   -3.8560  -19.7360 C.2   430  HEM430      0.0000
      4  CHD        3.0220   -1.9420  -15.6160 C.2   430  HEM430      0.0000
      5  C1A       -1.3740   -2.2090  -18.7680 C.ar  430  HEM430      0.0000
      6  C2A       -2.5120   -2.3450  -19.6750 C.ar  430  HEM430      0.0000
      7  C3A       -2.0460   -2.8620  -20.8220 C.ar  430  HEM430      0.0000
      8  C4A       -0.6190   -3.0790  -20.6690 C.ar  430  HEM430      0.0000
      9  CMA       -2.8370   -3.2030  -22.0910 C.3   430  HEM430      0.0000
     10  CAA       -3.9720   -1.9670  -19.3150 C.3   430  HEM430      0.0000
     11  CBA       -4.4430   -0.5550  -19.6090 C.3   430  HEM430      0.0000
     12  CGA       -5.8800   -0.3630  -19.1090 C.2   430  HEM430      0.0000
     13  O1A       -6.6940    0.1510  -19.9430 O.co2 430  HEM430      0.0000
     14  O2A       -6.1620   -0.7160  -17.9680 O.co2 430  HEM430      0.0000
     15  C1B        1.5660   -3.8420  -21.4590 C.2   430  HEM430      0.0000
     16  C2B        2.4060   -4.4370  -22.5030 C.2   430  HEM430      0.0000
     17  C3B        3.6690   -4.5210  -21.9780 C.2   430  HEM430      0.0000
     18  C4B        3.6100   -3.9700  -20.6300 C.2   430  HEM430      0.0000
     19  CMB        1.8880   -4.8700  -23.9010 C.3   430  HEM430      0.0000
     20  CAB        4.9830   -5.0780  -22.5850 C.3   430  HEM430      0.0000
     21  CBB        5.2160   -4.8740  -24.0990 C.3   430  HEM430      0.0000
     22  C1C        4.6020   -3.3470  -18.4420 C.ar  430  HEM430      0.0000
     23  C2C        5.7560   -3.2480  -17.5410 C.ar  430  HEM430      0.0000
     24  C3C        5.3040   -2.7150  -16.3880 C.ar  430  HEM430      0.0000
     25  C4C        3.8810   -2.4740  -16.5560 C.ar  430  HEM430      0.0000
     26  CMC        7.1990   -3.6970  -17.9170 C.3   430  HEM430      0.0000
     27  CAC        6.0810   -2.3890  -15.0930 C.3   430  HEM430      0.0000
     28  CBC        7.0240   -1.1770  -15.1890 C.3   430  HEM430      0.0000
     29  C1D        1.6780   -1.7080  -15.7480 C.2   430  HEM430      0.0000
     30  C2D        0.8060   -1.1460  -14.7310 C.2   430  HEM430      0.0000
     31  C3D       -0.4450   -1.0720  -15.2590 C.2   430  HEM430      0.0000
     32  C4D       -0.3520   -1.6030  -16.6100 C.2   430  HEM430      0.0000
     33  CMD        1.2710   -0.7240  -13.3240 C.3   430  HEM430      0.0000
     34  CAD       -1.7140   -0.5330  -14.5760 C.3   430  HEM430      0.0000
     35  CBD       -1.8310    0.9990  -14.8980 C.3   430  HEM430      0.0000
     36  CGD       -3.0420    1.6990  -14.3060 C.2   430  HEM430      0.0000
     37  O1D       -2.9220    2.8580  -13.8950 O.co2 430  HEM430      0.0000
     38  O2D       -4.1050    1.0520  -14.2980 O.co2 430  HEM430      0.0000
     39  NA        -0.2420   -2.6680  -19.3980 N.ar  430  HEM430      0.0000
     40  NB         2.3250   -3.5660  -20.3290 N.2   430  HEM430      0.0000
     41  NC         3.4730   -2.8610  -17.8170 N.ar  430  HEM430      0.0000
     42  ND         0.9540   -1.9820  -16.9080 N.2   430  HEM430      0.0000
     43 FE          1.6360   -2.7420  -18.6070 Fe    430  HEM430      0.0000
@<TRIPOS>BOND
     1    21    20    1
     2    19    16    1
     3    20    17    1
     4    16    17    2
     5    16    15    1
     6     9     7    1
     7    17    18    1
     8     2    15    1
     9     2     8    2
    10    15    40    2
    11     7     8   ar
    12     7     6   ar
    13     8    39   ar
    14    18    40    1
    15    18     3    2
    16    40    43    1
    17    13    12   ar
    18     3    22    1
    19     6    10    1
    20     6     5   ar
    21    11    10    1
    22    11    12    1
    23    39     5   ar
    24    39    43    1
    25    12    14   ar
    26     5     1    2
    27    43    41    1
    28    43    42    1
    29    22    41   ar
    30    22    23   ar
    31    26    23    1
    32    41    25   ar
    33    23    24   ar
    34     1    32    1
    35    42    32    2
    36    42    29    1
    37    32    31    1
    38    25    24   ar
    39    25     4    1
    40    24    27    1
    41    29     4    2
    42    29    30    1
    43    31    30    2
    44    31    34    1
    45    28    27    1
    46    35    34    1
    47    35    36    1
    48    30    33    1
    49    36    38   ar
    50    36    37   ar
