@<TRIPOS>MOLECULE
3tnl_NAD_A_1.pdb
 44 48 0 0 0
SMALL
GASTEIGER

@<TRIPOS>ATOM
      1  PA        23.0750   43.0250   59.7950 P.3   292  NAD292      0.2189
      2  O1A       21.8170   43.3190   60.5710 O.3   292  NAD292     -0.4371
      3  O2A       24.3570   43.7370   60.0880 O.2   292  NAD292     -0.5170
      4  O5B       22.7380   43.1270   58.2400 O.3   292  NAD292     -0.3112
      5  C5B       21.5340   42.6390   57.6640 C.3   292  NAD292      0.1813
      6  C4B       21.6850   42.6250   56.1370 C.3   292  NAD292      0.1821
      7  O4B       20.5660   41.8920   55.6100 O.3   292  NAD292     -0.3135
      8  C3B       21.5860   44.0020   55.4860 C.3   292  NAD292      0.2184
      9  O3B       22.2790   43.9780   54.2290 O.3   292  NAD292     -0.2174
     10  C2B       20.1060   44.1470   55.1980 C.3   292  NAD292      0.2570
     11  O2B       19.8080   45.0490   54.1470 O.3   292  NAD292     -0.2130
     12  C1B       19.7450   42.7340   54.7960 C.3   292  NAD292      0.3186
     13  N9A       18.3340   42.3490   55.0080 N.pl3 292  NAD292     -0.1439
     14  C8A       17.7710   42.0320   56.1910 C.3   292  NAD292      0.3377
     15  N7A       16.4750   41.6780   56.0260 N.2   292  NAD292     -0.2095
     16  C5A       16.1920   41.8130   54.6920 C.2   292  NAD292      0.2526
     17  C6A       15.0840   41.6010   53.8900 C.2   292  NAD292      0.4393
     18  N6A       13.9050   41.1940   54.4190 N.pl3 292  NAD292      0.2180
     19  N1A       15.2010   41.8400   52.5630 N.2   292  NAD292      0.0021
     20  C2A       16.3560   42.2380   52.0010 C.3   292  NAD292      0.5254
     21  N3A       17.4850   42.4300   52.7120 N.2   292  NAD292     -0.0055
     22  C4A       17.4480   42.2340   54.0450 C.2   292  NAD292      0.3518
     23  O3        23.2390   41.4180   59.9660 O.3   292  NAD292     -0.2703
     24  PN        24.6480   40.5740   59.8240 P.3   292  NAD292      0.2189
     25  O1N       25.3780   40.5510   61.1140 O.3   292  NAD292     -0.4371
     26  O2N       25.4230   41.0650   58.6160 O.2   292  NAD292     -0.5170
     27  O5D       24.1080   39.0900   59.5770 O.3   292  NAD292     -0.3112
     28  C5D       23.5030   38.7810   58.3330 C.3   292  NAD292      0.1813
     29  C4D       23.3770   37.2740   58.2480 C.3   292  NAD292      0.1799
     30  O4D       24.7060   36.7050   58.3070 O.3   292  NAD292     -0.3327
     31  C3D       22.6080   36.6350   59.3970 C.3   292  NAD292      0.2158
     32  O3D       21.7460   35.5880   58.8780 O.3   292  NAD292     -0.2175
     33  C2D       23.6730   36.0230   60.2800 C.3   292  NAD292      0.2309
     34  O2D       23.2260   34.8830   61.0480 O.3   292  NAD292     -0.2158
     35  C1D       24.7180   35.6260   59.2450 C.3   292  NAD292      0.2263
     36  N1N       26.0760   35.4430   59.7550 N.pl3 292  NAD292     -0.2787
     37  C2N       26.6340   34.1820   59.6510 C.3   292  NAD292      0.1244
     38  C3N       27.9190   33.9520   60.1130 C.2   292  NAD292      0.0544
     39  C7N       28.5450   32.5870   60.0120 C.2   292  NAD292      0.2818
     40  O7N       29.4890   32.3950   60.7560 O.2   292  NAD292     -0.2670
     41  N7N       28.0780   31.6630   59.1490 N.am  292  NAD292     -0.0839
     42  C4N       28.6600   35.0120   60.6860 C.2   292  NAD292      0.0033
     43  C5N       28.0590   36.2850   60.7570 C.2   292  NAD292      0.0157
     44  C6N       26.7780   36.4670   60.2870 C.2   292  NAD292      0.0633
@<TRIPOS>BOND
     1    20    19    1
     2    20    21    1
     3    19    17    2
     4    21    22    2
     5    17    18    1
     6    17    16    1
     7    22    16    1
     8    22    13    1
     9    11    10    1
    10     9     8    1
    11    16    15    2
    12    12    13    1
    13    12    10    1
    14    12     7    1
    15    13    14    1
    16    10     8    1
    17     8     6    1
    18     7     6    1
    19    15    14    1
    20     6     5    1
    21     5     4    1
    22     4     1    1
    23    29    30    1
    24    29    28    1
    25    29    31    1
    26    30    35    1
    27    28    27    1
    28    26    24    2
    29    32    31    1
    30    41    39   am
    31    35    36    1
    32    35    33    1
    33    31    33    1
    34    27    24    1
    35    37    36    1
    36    37    38    1
    37    36    44    1
    38     1    23    1
    39     1     3    2
    40     1     2    1
    41    24    23    1
    42    24    25    1
    43    39    38    1
    44    39    40    2
    45    38    42    2
    46    33    34    1
    47    44    43    2
    48    42    43    1
