@<TRIPOS>MOLECULE
3tnl_SKM_A_1.pdb
 12 12 0 0 0
SMALL
GASTEIGER

@<TRIPOS>ATOM
      1  O12       30.9610   36.5730   64.3910 O.3   293  SKM293     -0.2173
      2  C8        30.3020   35.4660   65.0100 C.3   293  SKM293      0.2167
      3  C6        30.4920   35.5320   66.5160 C.3   293  SKM293      0.1896
      4  O7        31.9190   35.5120   66.7950 O.3   293  SKM293     -0.2200
      5  C5        29.8100   34.3290   67.1630 C.3   293  SKM293      0.0684
      6  C4        28.4010   34.0850   66.6630 C.2   293  SKM293      0.0584
      7  C1        27.4950   33.2410   67.4560 C.2   293  SKM293      0.3837
      8  O2        26.2650   33.2940   67.2510 O.co2 293  SKM293     -0.2409
      9  O3        27.9760   32.4800   68.3100 O.co2 293  SKM293     -0.2409
     10  C10       27.9770   34.5810   65.4940 C.2   293  SKM293      0.0111
     11  C9        28.8410   35.3960   64.5570 C.3   293  SKM293      0.2066
     12  O11       28.2930   36.6930   64.4710 O.3   293  SKM293     -0.2155
@<TRIPOS>BOND
     1     1     2    1
     2    12    11    1
     3    11     2    1
     4    11    10    1
     5     2     3    1
     6    10     6    2
     7     3     4    1
     8     3     5    1
     9     6     5    1
    10     6     7    1
    11     8     7   ar
    12     7     9   ar
