@<TRIPOS>MOLECULE
3tno_I22_A_1.pdb
 17 16 0 0 0
SMALL
GASTEIGER

@<TRIPOS>ATOM
      1  O8        25.5220   -4.3440   34.4120 O.3   900  I22900     -0.1145
      2  P1        26.4630   -3.9470   33.2940 P.3   900  I22900      0.5327
      3  O9        27.9130   -3.9890   33.6960 O.3   900  I22900     -0.1145
      4  O10       26.1430   -4.6030   31.9780 O.2   900  I22900     -0.2224
      5  O7        26.1620   -2.3960   33.0300 O.3   900  I22900     -0.2674
      6  C7        26.5200   -1.4180   34.0010 C.3   900  I22900      0.1892
      7  C6        26.2040   -0.0460   33.4340 C.3   900  I22900      0.2147
      8  O6        24.8670   -0.0810   32.9190 O.3   900  I22900     -0.2176
      9  C5        26.3720    1.0280   34.5050 C.3   900  I22900      0.2173
     10  O5        27.7470    1.0900   34.8680 O.3   900  I22900     -0.2175
     11  C4        25.9470    2.4150   34.0500 C.3   900  I22900      0.2149
     12  O4        24.5830    2.3890   33.6080 O.3   900  I22900     -0.2176
     13  C3        26.1420    3.4100   35.1980 C.3   900  I22900      0.1874
     14  O3        25.1120    3.2390   36.1860 O.3   900  I22900     -0.2202
     15  C2        26.1310    4.8420   34.6920 C.3   900  I22900      0.0711
     16  C1        27.4280    5.2090   33.9550 C.3   900  I22900      0.1848
     17  O1        28.1130    6.2830   34.6240 O.3   900  I22900     -0.2203
@<TRIPOS>BOND
     1     4     2    2
     2     8     7    1
     3     5     2    1
     4     5     6    1
     5     2     3    1
     6     2     1    1
     7     7     6    1
     8     7     9    1
     9    12    11    1
    10    16    17    1
    11    16    15    1
    12    11     9    1
    13    11    13    1
    14     9    10    1
    15    15    13    1
    16    13    14    1
