@<TRIPOS>MOLECULE
3tnq_ADP_B_1.pdb
 27 29 0 0 0
SMALL
GASTEIGER

@<TRIPOS>ATOM
      1  PB        45.0030  -31.8970  -39.2840 P.3   400  ADP400      0.5373
      2  O1B       44.2070  -31.3080  -40.4340 O.2   400  ADP400     -0.2221
      3  O2B       44.7190  -31.1840  -37.9780 O.3   400  ADP400     -0.1143
      4  O3B       44.9720  -33.4170  -39.1240 O.3   400  ADP400     -0.1143
      5  PA        47.7080  -31.0480  -38.7370 P.3   400  ADP400      0.2231
      6  O1A       48.0770  -29.6160  -38.9920 O.2   400  ADP400     -0.5169
      7  O2A       47.4470  -31.4970  -37.3110 O.3   400  ADP400     -0.4370
      8  O3A       46.5160  -31.5210  -39.7210 O.3   400  ADP400     -0.2261
      9  O5'       48.9230  -31.9450  -39.2790 O.3   400  ADP400     -0.3111
     10  C5'       48.7760  -33.3580  -39.2710 C.3   400  ADP400      0.1813
     11  C4'       50.1110  -34.0610  -39.1130 C.3   400  ADP400      0.1821
     12  O4'       51.0680  -33.5890  -40.0540 O.3   400  ADP400     -0.3135
     13  C3'       50.7470  -33.8410  -37.7480 C.3   400  ADP400      0.2184
     14  O3'       50.3260  -34.8130  -36.7850 O.3   400  ADP400     -0.2174
     15  C2'       52.2250  -33.9970  -38.0110 C.3   400  ADP400      0.2570
     16  O2'       52.6160  -35.3620  -37.8190 O.3   400  ADP400     -0.2130
     17  C1'       52.3740  -33.6150  -39.4700 C.3   400  ADP400      0.3186
     18  N9        52.9630  -32.2550  -39.4890 N.pl3 400  ADP400     -0.1439
     19  C8        52.2790  -31.1000  -39.4800 C.3   400  ADP400      0.3377
     20  N7        53.1150  -30.0310  -39.4930 N.2   400  ADP400     -0.2095
     21  C5        54.3670  -30.5050  -39.5040 C.2   400  ADP400      0.2526
     22  C6        55.7150  -29.9150  -39.5230 C.2   400  ADP400      0.4393
     23  N6        55.9040  -28.5740  -39.5270 N.pl3 400  ADP400      0.2180
     24  N1        56.7530  -30.7680  -39.5310 N.2   400  ADP400      0.0021
     25  C2        56.5900  -32.1030  -39.5180 C.3   400  ADP400      0.5254
     26  N3        55.3960  -32.7080  -39.5000 N.2   400  ADP400     -0.0055
     27  C4        54.2650  -31.9690  -39.4970 C.2   400  ADP400      0.3518
@<TRIPOS>BOND
     1     2     1    2
     2    12    17    1
     3    12    11    1
     4     8     1    1
     5     8     5    1
     6    24    22    2
     7    24    25    1
     8    23    22    1
     9    22    21    1
    10    25    26    1
    11    21    27    1
    12    21    20    2
    13    26    27    2
    14    27    18    1
    15    20    19    1
    16    18    19    1
    17    18    17    1
    18    17    15    1
    19     1     4    1
    20     1     3    1
    21     9    10    1
    22     9     5    1
    23    10    11    1
    24    11    13    1
    25     6     5    2
    26     5     7    1
    27    15    16    1
    28    15    13    1
    29    13    14    1
