@<TRIPOS>MOLECULE
3tns_G83_A_1.pdb
 49 51 0 0 0
SMALL
GASTEIGER

@<TRIPOS>ATOM
      1  O19      -19.8210    3.7860  -19.9810 O.2   501  G83501     -0.2245
      2  C17      -18.6830    4.2090  -20.1070 C.2   501  G83501      0.4219
      3  O15      -18.2430    5.2290  -19.1830 O.3   501  G83501     -0.4285
      4  C13      -19.1740    5.7160  -18.2120 C.3   501  G83501      0.2368
      5  C4       -20.0130    6.8430  -18.7950 C.ar  501  G83501      0.0213
      6  C6       -19.5200    8.1530  -18.8140 C.ar  501  G83501     -0.0007
      7  C8       -20.3090    9.1840  -19.3360 C.ar  501  G83501     -0.0002
      8  C10      -21.5910    8.9150  -19.8460 C.ar  501  G83501     -0.0000
      9  C1       -22.1010    7.6100  -19.8200 C.ar  501  G83501     -0.0002
     10  C2       -21.2970    6.5740  -19.2950 C.ar  501  G83501     -0.0007
     11  N21      -17.8350    3.7990  -21.0370 N.am  501  G83501     -0.1605
     12  C23      -18.1880    2.7820  -22.0070 C.3   501  G83501      0.1872
     13  C25      -17.7580    3.4030  -23.3420 C.3   501  G83501      0.1406
     14  C14      -18.6550    4.5580  -23.7570 C.2   501  G83501      0.3190
     15  O1       -18.1690    5.5710  -24.2460 O.2   501  G83501     -0.2500
     16  O2       -20.0960    4.4470  -23.5780 O.3   501  G83501     -0.4557
     17  C29      -21.0710    5.4810  -23.7650 C.3   501  G83501      0.1363
     18  C12      -20.5460    6.8420  -23.3060 C.3   501  G83501      0.0437
     19  C43      -21.4800    5.5350  -25.2320 C.3   501  G83501      0.0437
     20  C45      -22.2850    5.1160  -22.9100 C.3   501  G83501      0.0437
     21  C31      -17.3520    1.5510  -21.8220 C.2   501  G83501      0.2623
     22  O35      -16.1360    1.6730  -21.7440 O.2   501  G83501     -0.2715
     23  N33      -18.0060    0.3850  -21.7970 N.am  501  G83501     -0.1960
     24  C37      -17.2820   -0.8620  -21.6930 C.3   501  G83501      0.1771
     25  C41      -18.3190   -1.9930  -21.7630 C.3   501  G83501      0.0574
     26  C51      -19.2480   -2.1610  -20.5660 C.ar  501  G83501     -0.0200
     27  C53      -20.4670   -2.8310  -20.7540 C.ar  501  G83501     -0.0042
     28  C7       -21.3690   -3.0300  -19.6950 C.ar  501  G83501     -0.0003
     29  C9       -21.0310   -2.5330  -18.4370 C.ar  501  G83501     -0.0000
     30  C11      -19.8260   -1.8590  -18.2390 C.ar  501  G83501     -0.0003
     31  C55      -18.9220   -1.6770  -19.2960 C.ar  501  G83501     -0.0042
     32  C39      -16.4410   -1.0420  -22.9280 C.2   501  G83501      0.2615
     33  O47      -16.9130   -0.7400  -24.0320 O.2   501  G83501     -0.2715
     34  N49      -15.2140   -1.5780  -22.7810 N.am  501  G83501     -0.2057
     35  C57      -14.3780   -1.8400  -23.9490 C.3   501  G83501      0.0970
     36  C59      -13.0910   -0.9890  -23.9590 C.3   501  G83501      0.0383
     37  C61      -13.3610    0.4510  -24.3580 C.3   501  G83501      0.1100
     38  C73      -14.0610    0.6310  -25.7160 C.3   501  G83501      0.0438
     39  C71      -13.3800    1.8260  -26.4320 C.3   501  G83501      0.1387
     40  N69      -12.1060    1.8290  -25.7230 N.2   501  G83501     -0.2063
     41  C65      -12.0840    1.2050  -24.5460 C.1   501  G83501      0.1250
     42  O66      -11.2150    1.2530  -23.6970 O.2   501  G83501     -0.2271
     43  C63      -13.9900   -3.3000  -23.7910 C.3   501  G83501      0.0333
     44  C82      -15.1650   -4.2690  -23.8620 C.3   501  G83501      0.1113
     45  C84      -14.9880   -4.7550  -25.2700 C.2   501  G83501      0.3170
     46  O88      -14.2210   -5.7260  -25.5040 O.2   501  G83501     -0.2501
     47  O86      -15.6800   -3.9560  -26.3010 O.3   501  G83501     -0.4485
     48  C3       -17.0160   -3.4970  -26.0000 C.3   501  G83501      0.2086
     49  C5       -17.9810   -3.7200  -27.1420 C.3   501  G83501      0.0513
@<TRIPOS>BOND
     1    49    48    1
     2    39    40    1
     3    39    38    1
     4    47    48    1
     5    47    45    1
     6    40    41    2
     7    38    37    1
     8    46    45    2
     9    45    44    1
    10    19    17    1
    11    41    37    1
    12    41    42    2
    13    37    36    1
    14    15    14    2
    15    33    32    2
    16    36    35    1
    17    35    43    1
    18    35    34    1
    19    44    43    1
    20    17    16    1
    21    17    18    1
    22    17    20    1
    23    14    16    1
    24    14    13    1
    25    13    12    1
    26    32    34   am
    27    32    24    1
    28    12    21    1
    29    12    11    1
    30    21    23   am
    31    21    22    2
    32    23    24    1
    33    25    24    1
    34    25    26    1
    35    11     2   am
    36    27    26   ar
    37    27    28   ar
    38    26    31   ar
    39     2     1    2
    40     2     3    1
    41     8     9   ar
    42     8     7   ar
    43     9    10   ar
    44    28    29   ar
    45     7     6   ar
    46    31    30   ar
    47    10     5   ar
    48     3     4    1
    49     6     5   ar
    50     5     4    1
    51    29    30   ar
