@<TRIPOS>MOLECULE
3tnt_G85_A_1.pdb
 47 49 0 0 0
SMALL
GASTEIGER

@<TRIPOS>ATOM
      1  C17       25.5530   45.7940   -5.7950 C.2   501  G85501      0.4219
      2  O19       26.7310   45.4630   -5.7350 O.2   501  G85501     -0.2245
      3  O15       25.1370   46.6980   -6.8510 O.3   501  G85501     -0.4285
      4  C13       26.1240   47.2220   -7.7440 C.3   501  G85501      0.2368
      5  C4        26.8940   48.3580   -7.0980 C.ar  501  G85501      0.0213
      6  C2        28.1820   48.1360   -6.5930 C.ar  501  G85501     -0.0007
      7  C1        28.9070   49.1770   -6.0050 C.ar  501  G85501     -0.0002
      8  C10       28.3320   50.4470   -5.9220 C.ar  501  G85501     -0.0000
      9  C8        27.0490   50.6710   -6.4310 C.ar  501  G85501     -0.0002
     10  C6        26.3260   49.6290   -7.0190 C.ar  501  G85501     -0.0007
     11  C31       24.1200   43.2240   -3.9190 C.2   501  G85501      0.2643
     12  N21       24.6350   45.3700   -4.9360 N.am  501  G85501     -0.1584
     13  O35       22.8920   43.3000   -3.8860 O.2   501  G85501     -0.2714
     14  C12       24.6330   46.0660    0.3020 C.3   501  G85501      0.0296
     15  C45       23.0090   44.2440   -0.2700 C.3   501  G85501      0.0296
     16  C43       25.1790   43.6760    0.7450 C.3   501  G85501      0.0296
     17  C23       24.9590   44.4660   -3.8510 C.3   501  G85501      0.2054
     18  C25       24.6140   45.2360   -2.5820 C.3   501  G85501      0.1730
     19  C29       24.4800   44.6320   -0.2050 C.3   501  G85501      0.0931
     20  O27       25.1200   44.4770   -1.4800 O.3   501  G85501     -0.3562
     21  N33       24.7770   42.0680   -4.0010 N.am  501  G85501     -0.1959
     22  C37       24.0240   40.8270   -4.0470 C.3   501  G85501      0.1771
     23  C39       23.2460   40.6030   -2.7860 C.2   501  G85501      0.2615
     24  O47       23.7610   40.8790   -1.6970 O.2   501  G85501     -0.2715
     25  C41       25.0530   39.6830   -4.0730 C.3   501  G85501      0.0574
     26  C51       25.8650   39.5070   -5.3410 C.ar  501  G85501     -0.0200
     27  C53       27.0700   38.8030   -5.2310 C.ar  501  G85501     -0.0042
     28  C55       25.4620   39.9990   -6.5840 C.ar  501  G85501     -0.0042
     29  C7        27.8730   38.6000   -6.3610 C.ar  501  G85501     -0.0003
     30  C11       26.2600   39.7970   -7.7140 C.ar  501  G85501     -0.0003
     31  C9        27.4670   39.0960   -7.5950 C.ar  501  G85501     -0.0000
     32  O86       24.1120   37.8640    0.1930 O.3   501  G85501     -0.4485
     33  C3        24.5740   38.2710    1.4830 C.3   501  G85501      0.2086
     34  C5        24.6130   39.7880    1.5380 C.3   501  G85501      0.0513
     35  N49       22.0060   40.1210   -2.9290 N.am  501  G85501     -0.2057
     36  C57       21.1640   39.7880   -1.7790 C.3   501  G85501      0.0970
     37  C59       19.8460   40.5600   -1.8270 C.3   501  G85501      0.0383
     38  C61       20.0570   41.9440   -1.2290 C.3   501  G85501      0.1100
     39  C63       20.9330   38.2790   -1.8910 C.3   501  G85501      0.0333
     40  C65       18.8110   42.7660   -1.1820 C.1   501  G85501      0.1250
     41  O66       17.9850   42.8570   -2.0760 O.2   501  G85501     -0.2271
     42  N69       18.7750   43.4240   -0.0290 N.2   501  G85501     -0.2063
     43  C71       19.8280   43.1230    0.9420 C.3   501  G85501      0.1387
     44  C73       20.4300   41.8880    0.2620 C.3   501  G85501      0.0438
     45  C82       22.2130   37.5110   -1.5030 C.3   501  G85501      0.1113
     46  C84       22.6880   37.8320   -0.0900 C.2   501  G85501      0.3170
     47  O88       21.9220   38.0690    0.8370 O.2   501  G85501     -0.2501
@<TRIPOS>BOND
     1     4     5    1
     2     4     3    1
     3    30    31   ar
     4    30    28   ar
     5    31    29   ar
     6     5    10   ar
     7     5     6   ar
     8    10     9   ar
     9     3     1    1
    10     6     7   ar
    11    28    26   ar
    12     9     8   ar
    13    29    27   ar
    14     7     8   ar
    15     1     2    2
    16     1    12   am
    17    26    27   ar
    18    26    25    1
    19    12    17    1
    20    25    22    1
    21    22    21    1
    22    22    23    1
    23    21    11   am
    24    11    13    2
    25    11    17    1
    26    17    18    1
    27    35    23   am
    28    35    36    1
    29    23    24    2
    30    18    20    1
    31    41    40    2
    32    39    36    1
    33    39    45    1
    34    37    36    1
    35    37    38    1
    36    45    46    1
    37    20    19    1
    38    38    40    1
    39    38    44    1
    40    40    42    2
    41    15    19    1
    42    19    14    1
    43    19    16    1
    44    46    32    1
    45    46    47    2
    46    42    43    1
    47    32    33    1
    48    44    43    1
    49    33    34    1
