@<TRIPOS>MOLECULE
3tnw_F18_A_1.pdb
 16 17 0 0 0
SMALL
GASTEIGER

@<TRIPOS>ATOM
      1  C3        -6.8120  -18.0610   19.0470 C.ar  299  F18299      0.1958
      2  C6        -8.1480  -18.4110   19.1950 C.ar  299  F18299      0.0436
      3  C2        -8.5140  -19.3830   20.1000 C.ar  299  F18299      0.0242
      4  O3        -6.4530  -17.0890   18.1540 O.3   299  F18299     -0.2866
      5  C5        -7.5440  -20.0130   20.8830 C.ar  299  F18299      0.1027
      6  C4        -6.2040  -19.6600   20.7330 C.ar  299  F18299      0.0242
      7  C1        -5.8460  -18.6890   19.8200 C.ar  299  F18299      0.0436
      8  N9        -7.9210  -20.9730   21.7900 N.2   299  F18299     -0.1516
      9  N13       -7.1780  -21.2920   22.8010 N.2   299  F18299     -0.1503
     10  C14       -7.6080  -22.2130   23.7240 C.3   299  F18299      0.3597
     11  C19       -6.8040  -23.0090   24.5450 C.2   299  F18299      0.4786
     12  N16       -5.4200  -23.0310   24.5740 N.pl3 299  F18299      0.2188
     13  N20       -7.6190  -23.7850   25.2950 N.2   299  F18299      0.1998
     14  N17       -8.9440  -23.4920   24.9520 N.2   299  F18299      0.1998
     15  C15       -8.9520  -22.5630   24.0280 C.2   299  F18299      0.4786
     16  N18      -10.0910  -22.0050   23.4640 N.pl3 299  F18299      0.2188
@<TRIPOS>BOND
     1     4     1    1
     2     1     2   ar
     3     1     7   ar
     4     2     3   ar
     5     7     6   ar
     6     3     5   ar
     7     6     5   ar
     8     5     8    1
     9     8     9    2
    10     9    10    1
    11    16    15    1
    12    10    15    1
    13    10    11    1
    14    15    14    2
    15    11    12    1
    16    11    13    2
    17    14    13    1
