@<TRIPOS>MOLECULE
3tny_SKZ_A_1.pdb
 30 34 0 0 0
SMALL
GASTEIGER

@<TRIPOS>ATOM
      1 FE         20.3040    6.9390   21.0290 Fe    290  SKZ290      0.0000
      2  C1        19.0790    7.0360   18.2580 C.3   290  SKZ290      0.0000
      3  O2        18.9590    7.5340   19.5960 O.3   290  SKZ290      0.0000
      4  C3        20.1940    6.0110   18.2430 C.2   290  SKZ290      0.0000
      5  O4        20.4650    5.4240   17.1710 O.2   290  SKZ290      0.0000
      6  O5        20.8150    5.7910   19.3120 O.3   290  SKZ290      0.0000
      7  C6        19.3850    8.1820   17.2930 C.3   290  SKZ290      0.0000
      8  C7        17.7560    6.4260   17.7780 C.3   290  SKZ290      0.0000
      9  C8        17.0670    5.3750   18.6250 C.1   290  SKZ290      0.0000
     10  O9        16.2410    4.6670   18.0660 O.2   290  SKZ290      0.0000
     11  C11       17.5470    3.3790   21.5520 C.3   290  SKZ290      0.0000
     12  C12       17.9950    4.0050   22.8700 C.3   290  SKZ290      0.0000
     13  N13       19.1010    4.8860   22.5300 N.4   290  SKZ290      0.0000
     14  O14       18.7600    6.1860   22.1520 O.3   290  SKZ290      0.0000
     15  C15       20.4040    4.5830   22.5360 C.3   290  SKZ290      0.0000
     16  O16       21.2380    5.4180   22.2220 O.3   290  SKZ290      0.0000
     17  C17       20.8050    3.1920   22.9390 C.3   290  SKZ290      0.0000
     18  C18       20.6650    8.9260   17.5890 C.1   290  SKZ290      0.0000
     19  O19       21.7160    8.4780   17.1720 O.2   290  SKZ290      0.0000
     20  C21       22.8610   10.2260   19.3310 C.3   290  SKZ290      0.0000
     21  C22       22.7010   10.3220   20.8460 C.3   290  SKZ290      0.0000
     22  N23       21.7290    9.3140   21.2650 N.4   290  SKZ290      0.0000
     23  O24       21.9210    8.0000   20.8220 O.3   290  SKZ290      0.0000
     24  C25       20.6670    9.5080   22.0550 C.3   290  SKZ290      0.0000
     25  C26       20.4130   10.8950   22.5790 C.3   290  SKZ290      0.0000
     26  N26       20.5820   10.0760   18.2670 N.2   290  SKZ290      0.0000
     27  C27       21.7390   10.9160   18.5450 C.3   290  SKZ290      0.0000
     28  O27       19.9230    8.5790   22.3420 O.3   290  SKZ290      0.0000
     29  N28       17.3250    5.2580   19.9290 N.2   290  SKZ290      0.0000
     30  C29       16.6150    4.2990   20.7700 C.3   290  SKZ290      0.0000
@<TRIPOS>BOND
     1     5     4    2
     2    19    18    2
     3     7    18    1
     4     7     2    1
     5    18    26    2
     6     8     2    1
     7     8     9    1
     8    10     9    2
     9     4     2    1
    10     4     6    1
    11     2     3    1
    12    26    27    1
    13    27    20    1
    14     9    29    2
    15     6     1    1
    16    20    21    1
    17     3     1    1
    18    29    30    1
    19    30    11    1
    20    23     1    1
    21    23    22    1
    22    21    22    1
    23     1    14    1
    24     1    16    1
    25     1    28    1
    26    22    24    1
    27    11    12    1
    28    24    28    1
    29    24    25    1
    30    14    13    1
    31    16    15    1
    32    13    15    1
    33    13    12    1
    34    15    17    1
