@<TRIPOS>MOLECULE
3tnz_FMN_A_1.pdb
 31 33 0 0 0
SMALL
GASTEIGER

@<TRIPOS>ATOM
      1  N1        47.2560  -10.7040   15.2270 N.2   301  FMN301     -0.2887
      2  C2        48.5420  -10.7760   14.7170 C.1   301  FMN301      0.3669
      3  O2        49.2410  -11.7570   14.9120 O.2   301  FMN301     -0.1744
      4  N3        49.0890   -9.7440   13.9980 N.2   301  FMN301     -0.2300
      5  C4        48.3700   -8.6200   13.7400 C.1   301  FMN301      0.2513
      6  O4        48.8600   -7.6910   13.0740 O.2   301  FMN301     -0.2057
      7  C4A       47.0710   -8.5470   14.2410 C.2   301  FMN301      0.2706
      8  N5        46.3480   -7.4140   14.0010 N.2   301  FMN301     -0.3841
      9  C5A       45.0680   -7.3170   14.4300 C.2   301  FMN301      0.1452
     10  C6        44.3990   -6.1520   14.1180 C.2   301  FMN301      0.0252
     11  C7        43.0850   -5.9890   14.4930 C.2   301  FMN301     -0.0375
     12  C7M       42.4320   -4.7100   14.0560 C.3   301  FMN301      0.0268
     13  C8        42.4450   -6.9940   15.2250 C.3   301  FMN301      0.0417
     14  C8M       41.0260   -6.8140   15.6490 C.3   301  FMN301      0.0091
     15  C9        43.1230   -8.1730   15.5520 C.2   301  FMN301     -0.0049
     16  C9A       44.4630   -8.3330   15.1480 C.2   301  FMN301      0.0795
     17  N10       45.2130   -9.4680   15.4340 N.pl3 301  FMN301     -0.2545
     18  C10       46.5080   -9.5760   14.9690 C.2   301  FMN301      0.2449
     19  C1'       44.6350  -10.6120   16.2040 C.3   301  FMN301      0.1336
     20  C2'       44.6010  -10.3560   17.7260 C.3   301  FMN301      0.2048
     21  O2'       45.8910  -10.3880   18.3460 O.3   301  FMN301     -0.2185
     22  C3'       43.6540  -11.3690   18.3880 C.3   301  FMN301      0.2165
     23  O3'       42.3610  -11.1780   17.8710 O.3   301  FMN301     -0.2175
     24  C4'       43.6400  -11.2260   19.9270 C.3   301  FMN301      0.2147
     25  O4'       44.8820  -11.5950   20.4510 O.3   301  FMN301     -0.2176
     26  C5'       42.6020  -12.0810   20.6290 C.3   301  FMN301      0.1892
     27  O5'       42.7140  -13.3980   20.1180 O.3   301  FMN301     -0.2674
     28  P         41.4850  -14.1920   19.4850 P.3   301  FMN301      0.5327
     29  O1P       41.8390  -15.6570   19.3300 O.3   301  FMN301     -0.1145
     30  O2P       41.2160  -13.6320   18.0990 O.2   301  FMN301     -0.2224
     31  O3P       40.2640  -14.0160   20.2980 O.3   301  FMN301     -0.1145
@<TRIPOS>BOND
     1     6     5    2
     2     5     4    2
     3     5     7    1
     4     4     2    2
     5     8     7    2
     6     8     9    2
     7    12    11    1
     8    10     9    1
     9    10    11    2
    10     7    18    1
    11     9    16    1
    12    11    13    1
    13     2     3    2
    14     2     1    2
    15    18     1    2
    16    18    17    1
    17    16    17    1
    18    16    15    2
    19    13    15    1
    20    13    14    1
    21    17    19    1
    22    19    20    1
    23    20    21    1
    24    20    22    1
    25    23    22    1
    26    30    28    2
    27    22    24    1
    28    29    28    1
    29    28    27    1
    30    28    31    1
    31    24    25    1
    32    24    26    1
    33    27    26    1
