@<TRIPOS>MOLECULE
3tnz_IYR_A_1.pdb
 14 14 0 0 0
SMALL
GASTEIGER

@<TRIPOS>ATOM
      1  N         51.4350   -6.9790   12.9870 N.3   302  IYR302     -0.1205
      2  CA        52.4330   -7.5660   13.8500 C.3   302  IYR302      0.1986
      3  CB        52.2240   -7.1830   15.2820 C.3   302  IYR302      0.0569
      4  CC        50.8960   -7.3980   15.9330 C.ar  302  IYR302     -0.0195
      5  CD        50.0360   -6.3380   16.1730 C.ar  302  IYR302      0.0048
      6  CE        48.8220   -6.5820   16.8230 C.ar  302  IYR302      0.0686
      7  IE        47.5450   -4.9360   17.1820 I     302  IYR302     -0.0392
      8  CF        48.4600   -7.8640   17.2300 C.ar  302  IYR302      0.2010
      9  OF        47.2820   -8.1020   17.8860 O.3   302  IYR302     -0.2861
     10  CG        49.3140   -8.9210   16.9870 C.ar  302  IYR302      0.0422
     11  CH        50.5160   -8.6640   16.3410 C.ar  302  IYR302     -0.0009
     12  C         52.4420   -9.0470   13.7610 C.2   302  IYR302      0.3822
     13  O         51.6570   -9.5890   12.9290 O.co2 302  IYR302     -0.2440
     14  OXT       53.2360   -9.7320   14.5150 O.co2 302  IYR302     -0.2440
@<TRIPOS>BOND
     1    13    12   ar
     2     1     2    1
     3    12     2    1
     4    12    14   ar
     5     2     3    1
     6     3     4    1
     7     4     5   ar
     8     4    11   ar
     9     5     6   ar
    10    11    10   ar
    11     6     7    1
    12     6     8   ar
    13    10     8   ar
    14     8     9    1
