@<TRIPOS>MOLECULE
3to0_FMN_A_1.pdb
 31 33 0 0 0
SMALL
GASTEIGER

@<TRIPOS>ATOM
      1  N1        10.7850   22.7320    4.3680 N.2   301  FMN301     -0.2887
      2  C2        11.3260   21.9480    5.3510 C.1   301  FMN301      0.3669
      3  O2        10.6860   21.8220    6.4050 O.2   301  FMN301     -0.1744
      4  N3        12.5580   21.3340    5.1600 N.2   301  FMN301     -0.2300
      5  C4        13.2650   21.4840    3.9980 C.1   301  FMN301      0.2513
      6  O4        14.3530   20.9150    3.8430 O.2   301  FMN301     -0.2057
      7  C4A       12.7200   22.2840    3.0050 C.2   301  FMN301      0.2703
      8  N5        13.3870   22.4670    1.8080 N.2   301  FMN301     -0.3882
      9  C5A       12.8120   23.2650    0.8400 C.2   301  FMN301      0.1277
     10  C6        13.4500   23.4580   -0.3710 C.3   301  FMN301      0.0820
     11  C7        12.8650   24.2500   -1.3600 C.2   301  FMN301     -0.0408
     12  C7M       13.6380   24.4190   -2.6450 C.3   301  FMN301      0.0265
     13  C8        11.6170   24.8460   -1.1260 C.2   301  FMN301     -0.0280
     14  C8M       10.9050   25.7350   -2.1070 C.3   301  FMN301      0.0304
     15  C9        10.9880   24.6470    0.0840 C.2   301  FMN301      0.0123
     16  C9A       11.5820   23.8710    1.0580 C.2   301  FMN301      0.0793
     17  N10       10.9250   23.6970    2.2540 N.pl3 301  FMN301     -0.2545
     18  C10       11.4910   22.9010    3.2150 C.2   301  FMN301      0.2449
     19  C1'        9.5850   24.3330    2.4970 C.3   301  FMN301      0.1336
     20  C2'        9.7930   25.7630    2.9240 C.3   301  FMN301      0.2048
     21  O2'       10.4200   25.7870    4.1820 O.3   301  FMN301     -0.2185
     22  C3'        8.4220   26.3980    3.0230 C.3   301  FMN301      0.2165
     23  O3'        7.8810   26.4340    1.7250 O.3   301  FMN301     -0.2175
     24  C4'        8.5350   27.8130    3.5870 C.3   301  FMN301      0.2147
     25  O4'        8.5920   27.7620    4.9940 O.3   301  FMN301     -0.2176
     26  C5'        7.3120   28.6290    3.2150 C.3   301  FMN301      0.1892
     27  O5'        6.1900   28.1190    3.9120 O.3   301  FMN301     -0.2674
     28  P          4.8680   27.7640    3.0730 P.3   301  FMN301      0.5327
     29  O1P        3.8270   27.2290    4.0420 O.3   301  FMN301     -0.1145
     30  O2P        5.2260   26.7070    2.0340 O.2   301  FMN301     -0.2224
     31  O3P        4.3980   29.0140    2.3360 O.3   301  FMN301     -0.1145
@<TRIPOS>BOND
     1    12    11    1
     2    14    13    1
     3    11    13    2
     4    11    10    1
     5    13    15    1
     6    10     9    1
     7    15    16    2
     8     9    16    1
     9     9     8    2
    10    16    17    1
    11    23    22    1
    12     8     7    2
    13    30    28    2
    14    17    19    1
    15    17    18    1
    16    31    28    1
    17    19    20    1
    18    20    22    1
    19    20    21    1
    20     7    18    1
    21     7     5    1
    22    22    24    1
    23    28    27    1
    24    28    29    1
    25    18     1    2
    26    26    24    1
    27    26    27    1
    28    24    25    1
    29     6     5    2
    30     5     4    2
    31     1     2    2
    32     4     2    2
    33     2     3    2
