@<TRIPOS>MOLECULE
3to3_ATP_B_1.pdb
 27 29 0 0 0
SMALL
GASTEIGER

@<TRIPOS>ATOM
      1  PB         0.5910  -25.2560   36.4030 P.3   617  ATP617      0.5373
      2  O1B        2.0470  -24.8790   36.2950 O.2   617  ATP617     -0.2221
      3  O2B       -0.2060  -24.0640   36.8630 O.3   617  ATP617     -0.1143
      4  O3B        0.4330  -26.4640   37.3980 O.3   617  ATP617     -0.1143
      5  PA         0.0090  -24.8300   33.7820 P.3   617  ATP617      0.2231
      6  O1A        1.0890  -23.7750   33.9190 O.3   617  ATP617     -0.4370
      7  O2A       -1.3840  -24.2290   33.6320 O.2   617  ATP617     -0.5169
      8  O3A        0.0280  -25.7540   35.0320 O.3   617  ATP617     -0.2261
      9  O5'        0.3570  -25.6820   32.5090 O.3   617  ATP617     -0.3111
     10  C5'        0.0030  -27.0120   32.4280 C.3   617  ATP617      0.1813
     11  C4'       -0.0020  -27.5960   31.1300 C.3   617  ATP617      0.1821
     12  O4'       -0.8260  -28.8110   31.1380 O.3   617  ATP617     -0.3135
     13  C3'       -0.6290  -26.6820   30.1480 C.3   617  ATP617      0.2184
     14  O3'        0.2640  -26.3830   29.1460 O.3   617  ATP617     -0.2174
     15  C2'       -1.7890  -27.4250   29.6240 C.3   617  ATP617      0.2570
     16  O2'       -1.9740  -27.1690   28.2960 O.3   617  ATP617     -0.2130
     17  C1'       -1.3900  -28.8410   29.8620 C.3   617  ATP617      0.3186
     18  N9        -2.4450  -29.8130   29.7530 N.pl3 617  ATP617     -0.1439
     19  C8        -2.3670  -30.9270   29.0040 C.3   617  ATP617      0.3377
     20  N7        -3.5200  -31.5960   29.1410 N.2   617  ATP617     -0.2095
     21  C5        -4.3340  -30.9190   29.9820 C.2   617  ATP617      0.2526
     22  C6        -5.6260  -31.1600   30.4710 C.2   617  ATP617      0.4393
     23  N6        -6.3310  -32.3410   30.0560 N.pl3 617  ATP617      0.2180
     24  N1        -6.1840  -30.2700   31.3240 N.2   617  ATP617      0.0021
     25  C2        -5.5070  -29.1650   31.7000 C.3   617  ATP617      0.5254
     26  N3        -4.2610  -28.9040   31.2440 N.2   617  ATP617     -0.0055
     27  C4        -3.6480  -29.7610   30.3850 C.2   617  ATP617      0.3518
@<TRIPOS>BOND
     1    16    15    1
     2    19    20    1
     3    19    18    1
     4    20    21    2
     5    14    13    1
     6    15    17    1
     7    15    13    1
     8    18    17    1
     9    18    27    1
    10    17    12    1
    11    21    27    1
    12    21    22    1
    13    23    22    1
    14    13    11    1
    15    27    26    2
    16    22    24    2
    17    11    12    1
    18    11    10    1
    19    26    25    1
    20    24    25    1
    21    10     9    1
    22     9     5    1
    23     7     5    2
    24     5     6    1
    25     5     8    1
    26     8     1    1
    27     2     1    2
    28     1     3    1
    29     1     4    1
