@<TRIPOS>MOLECULE
3to7_COA_A_1.pdb
 48 50 0 0 0
SMALL
GASTEIGER

@<TRIPOS>ATOM
      1  N1A      -18.6920   -0.8840   20.1320 N.2   500  COA500      0.0021
      2  C2A      -18.4020    0.1910   19.3790 C.3   500  COA500      0.5254
      3  N3A      -17.3000    0.9380   19.5790 N.2   500  COA500     -0.0055
      4  C4A      -16.4220    0.6330   20.5690 C.2   500  COA500      0.3518
      5  C5A      -16.6520   -0.4560   21.3830 C.2   500  COA500      0.2526
      6  C6A      -17.8730   -1.2580   21.1370 C.2   500  COA500      0.4393
      7  N6A      -18.1480   -2.3360   21.9050 N.pl3 500  COA500      0.2180
      8  N7A      -15.6440   -0.5320   22.2730 N.2   500  COA500     -0.2095
      9  C8A      -14.7980    0.4940   22.0050 C.3   500  COA500      0.3377
     10  N9A      -15.2830    1.2000   20.9730 N.pl3 500  COA500     -0.1439
     11  C1B      -14.6850    2.4010   20.3460 C.3   500  COA500      0.3185
     12  C2B      -14.2000    3.4010   21.3830 C.3   500  COA500      0.2543
     13  O2B      -15.2660    4.2490   21.8130 O.3   500  COA500     -0.2131
     14  C3B      -13.1920    4.1830   20.5810 C.3   500  COA500      0.1928
     15  O3B      -13.9550    5.0400   19.7430 O.3   500  COA500     -0.2673
     16  P3B      -13.6410    6.6000   19.5230 P.3   500  COA500      0.5327
     17  O7A      -14.9590    7.2690   19.8510 O.3   500  COA500     -0.1145
     18  O8A      -13.2240    6.6630   18.0640 O.2   500  COA500     -0.2224
     19  O9A      -12.5450    6.9030   20.5230 O.3   500  COA500     -0.1145
     20  C4B      -12.5720    3.1440   19.6580 C.3   500  COA500      0.1795
     21  O4B      -13.5250    2.0750   19.5810 O.3   500  COA500     -0.3136
     22  C5B      -11.2260    2.6180   20.1550 C.3   500  COA500      0.1812
     23  O5B      -11.2430    2.2860   21.5490 O.3   500  COA500     -0.3112
     24  P1A      -10.6440    0.8600   22.0060 P.3   500  COA500      0.2189
     25  O1A      -11.4780   -0.2060   21.3360 O.2   500  COA500     -0.5170
     26  O2A      -10.4630    0.8960   23.5040 O.3   500  COA500     -0.4371
     27  O3A       -9.1600    0.8540   21.3580 O.3   500  COA500     -0.2703
     28  P2A       -8.5280   -0.2650   20.3640 P.3   500  COA500      0.2188
     29  O4A       -9.0660   -0.0670   18.9720 O.2   500  COA500     -0.5170
     30  O5A       -8.7050   -1.6400   20.9660 O.3   500  COA500     -0.4371
     31  O6A       -6.9740    0.1320   20.4720 O.3   500  COA500     -0.3138
     32  CBP       -5.0690    1.3550   19.6590 C.3   500  COA500      0.0645
     33  CCP       -6.4810    1.4610   20.2300 C.3   500  COA500      0.1519
     34  CDP       -4.4020    2.7310   19.6440 C.3   500  COA500      0.0056
     35  CEP       -4.2550    0.4090   20.5450 C.3   500  COA500      0.0056
     36  CAP       -5.1920    0.8270   18.2250 C.3   500  COA500      0.2312
     37  OAP       -5.7230    1.8620   17.3830 O.3   500  COA500     -0.2131
     38  C9P       -3.8890    0.3680   17.6070 C.2   500  COA500      0.2719
     39  O9P       -3.3720   -0.7950   17.9370 O.2   500  COA500     -0.2706
     40  N8P       -3.2910    1.1360   16.6880 N.am  500  COA500     -0.2028
     41  C7P       -2.0490    0.8810   15.9420 C.3   500  COA500      0.1248
     42  C6P       -0.8910    0.8250   16.9440 C.3   500  COA500      0.1102
     43  C5P       -0.3910    2.2000   17.3680 C.2   500  COA500      0.2432
     44  O5P       -0.5110    3.1800   16.6260 O.2   500  COA500     -0.2733
     45  N4P        0.1960    2.2920   18.5710 N.am  500  COA500     -0.2044
     46  C3P        0.7740    3.5110   19.1710 C.3   500  COA500      0.1276
     47  C2P        1.9830    3.1400   20.0480 C.3   500  COA500      0.0920
     48  S1P        3.5500    2.8340   19.1680 S.3   500  COA500     -0.0802
@<TRIPOS>BOND
     1    41    40    1
     2    41    42    1
     3    44    43    2
     4    40    38   am
     5    42    43    1
     6    43    45   am
     7    37    36    1
     8    38    39    2
     9    38    36    1
    10    18    16    2
    11    36    32    1
    12    45    46    1
    13    29    28    2
    14    48    47    1
    15    46    47    1
    16     2     3    1
    17     2     1    1
    18    16    15    1
    19    16    17    1
    20    16    19    1
    21     3     4    2
    22    21    20    1
    23    21    11    1
    24    34    32    1
    25    20    22    1
    26    20    14    1
    27    32    33    1
    28    32    35    1
    29    15    14    1
    30     1     6    2
    31    22    23    1
    32    33    31    1
    33    11    10    1
    34    11    12    1
    35    28    31    1
    36    28    30    1
    37    28    27    1
    38     4    10    1
    39     4     5    1
    40    14    12    1
    41    10     9    1
    42     6     5    1
    43     6     7    1
    44    25    24    2
    45    27    24    1
    46    12    13    1
    47     5     8    2
    48    23    24    1
    49     9     8    1
    50    24    26    1
