@<TRIPOS>MOLECULE
3to9_COA_A_1.pdb
 48 50 0 0 0
SMALL
GASTEIGER

@<TRIPOS>ATOM
      1  N1A      -18.6000   -0.6490   19.9790 N.2   500  COA500      0.0021
      2  C2A      -18.2970    0.4340   19.2320 C.3   500  COA500      0.5254
      3  N3A      -17.1580    1.1360   19.4090 N.2   500  COA500     -0.0055
      4  C4A      -16.2560    0.7750   20.3710 C.2   500  COA500      0.3518
      5  C5A      -16.5020   -0.3220   21.1770 C.2   500  COA500      0.2526
      6  C6A      -17.7660   -1.0780   20.9530 C.2   500  COA500      0.4393
      7  N6A      -18.0790   -2.1660   21.7030 N.pl3 500  COA500      0.2180
      8  N7A      -15.4590   -0.4490   22.0300 N.2   500  COA500     -0.2095
      9  C8A      -14.5850    0.5550   21.7500 C.3   500  COA500      0.3377
     10  N9A      -15.0790    1.2980   20.7410 N.pl3 500  COA500     -0.1439
     11  C1B      -14.4770    2.4960   20.1080 C.3   500  COA500      0.3185
     12  C2B      -14.0760    3.5360   21.1400 C.3   500  COA500      0.2543
     13  O2B      -15.2160    4.2780   21.5960 O.3   500  COA500     -0.2131
     14  C3B      -13.0720    4.3560   20.3490 C.3   500  COA500      0.1928
     15  O3B      -13.7610    5.1490   19.3750 O.3   500  COA500     -0.2673
     16  P3B      -13.3440    6.6690   18.9700 P.3   500  COA500      0.5327
     17  O7A      -14.2440    7.0590   17.8040 O.2   500  COA500     -0.2224
     18  O8A      -11.8790    6.6620   18.5690 O.3   500  COA500     -0.1145
     19  O9A      -13.6700    7.3700   20.2910 O.3   500  COA500     -0.1145
     20  C4B      -12.3410    3.2970   19.5250 C.3   500  COA500      0.1795
     21  O4B      -13.2730    2.2090   19.3850 O.3   500  COA500     -0.3136
     22  C5B      -11.0120    2.7980   20.1220 C.3   500  COA500      0.1812
     23  O5B      -11.0700    2.3850   21.5020 O.3   500  COA500     -0.3112
     24  P1A      -10.4720    0.9390   21.8980 P.3   500  COA500      0.2189
     25  O1A      -11.2950   -0.0780   21.1730 O.2   500  COA500     -0.5170
     26  O2A      -10.2650    0.9080   23.3840 O.3   500  COA500     -0.4371
     27  O3A       -8.9840    0.9400   21.2640 O.3   500  COA500     -0.2703
     28  P2A       -8.3820   -0.1800   20.2520 P.3   500  COA500      0.2188
     29  O4A       -9.0150   -0.0160   18.8990 O.2   500  COA500     -0.5170
     30  O5A       -8.4640   -1.5270   20.9400 O.3   500  COA500     -0.4371
     31  O6A       -6.8250    0.2140   20.2360 O.3   500  COA500     -0.3138
     32  CBP       -4.9410    1.3990   19.5050 C.3   500  COA500      0.0645
     33  CCP       -6.3480    1.5540   20.0710 C.3   500  COA500      0.1519
     34  CDP       -4.1910    2.7280   19.4630 C.3   500  COA500      0.0056
     35  CEP       -4.1870    0.4180   20.3980 C.3   500  COA500      0.0056
     36  CAP       -5.1090    0.8470   18.0930 C.3   500  COA500      0.2312
     37  OAP       -5.6480    1.8780   17.2670 O.3   500  COA500     -0.2131
     38  C9P       -3.8100    0.3920   17.4760 C.2   500  COA500      0.2719
     39  O9P       -3.2870   -0.7680   17.8290 O.2   500  COA500     -0.2706
     40  N8P       -3.2180    1.1550   16.5490 N.am  500  COA500     -0.2028
     41  C7P       -1.9770    0.8850   15.8170 C.3   500  COA500      0.1248
     42  C6P       -0.8100    0.8490   16.8130 C.3   500  COA500      0.1102
     43  C5P       -0.4170    2.2410   17.2950 C.2   500  COA500      0.2432
     44  O5P       -0.5280    3.2240   16.5600 O.2   500  COA500     -0.2733
     45  N4P        0.0740    2.3620   18.5380 N.am  500  COA500     -0.2044
     46  C3P        0.5140    3.6240   19.1450 C.3   500  COA500      0.1276
     47  C2P        1.6780    3.3390   20.0980 C.3   500  COA500      0.0920
     48  S1P        3.2230    2.9610   19.2290 S.3   500  COA500     -0.0802
@<TRIPOS>BOND
     1    41    40    1
     2    41    42    1
     3    40    38   am
     4    44    43    2
     5    42    43    1
     6    37    36    1
     7    43    45   am
     8    38    39    2
     9    38    36    1
    10    17    16    2
    11    36    32    1
    12    45    46    1
    13    18    16    1
    14    29    28    2
    15    16    15    1
    16    16    19    1
    17    46    47    1
    18    48    47    1
    19     2     3    1
    20     2     1    1
    21    15    14    1
    22    21    20    1
    23    21    11    1
    24     3     4    2
    25    34    32    1
    26    32    33    1
    27    32    35    1
    28    20    22    1
    29    20    14    1
    30     1     6    2
    31    33    31    1
    32    11    10    1
    33    11    12    1
    34    22    23    1
    35    31    28    1
    36    28    30    1
    37    28    27    1
    38    14    12    1
    39     4    10    1
    40     4     5    1
    41    10     9    1
    42     6     5    1
    43     6     7    1
    44    12    13    1
    45    25    24    2
    46     5     8    2
    47    27    24    1
    48    23    24    1
    49     9     8    1
    50    24    26    1
