@<TRIPOS>MOLECULE
3tod_XXB_A_1.pdb
 12 12 0 0 0
SMALL
GASTEIGER

@<TRIPOS>ATOM
      1  C1        13.7360   14.7650   15.5290 C.2   777  XXB777      0.4048
      2  N1        11.1500   14.7650   15.5520 N.ar  777  XXB777     -0.2444
      3  O1        14.1990   13.6380   15.5060 O.co2 777  XXB777     -0.2389
      4  C2        12.3610   15.3410   15.7710 C.ar  777  XXB777      0.1589
      5  N2        10.1120   15.5910   16.0070 N.ar  777  XXB777     -0.1675
      6  O2        14.4610   15.6970   16.1070 O.co2 777  XXB777     -0.2389
      7  C3        12.0760   16.5610   16.4190 C.ar  777  XXB777      0.0479
      8  C4        10.7020   16.6870   16.5230 C.ar  777  XXB777      0.1219
      9  C5        10.7070   13.4910   14.9470 C.3   777  XXB777      0.1277
     10  C6        10.3660   13.7110   13.4810 C.3   777  XXB777      0.0264
     11  C7        11.2620   12.9480   12.5120 C.3   777  XXB777      0.0021
     12  C8        12.1390   13.9210   11.7480 C.3   777  XXB777      0.0001
@<TRIPOS>BOND
     1    12    11    1
     2    11    10    1
     3    10     9    1
     4     9     2    1
     5     3     1   ar
     6     1     4    1
     7     1     6   ar
     8     2     4   ar
     9     2     5   ar
    10     4     7   ar
    11     5     8   ar
    12     7     8   ar
