@<TRIPOS>MOLECULE
3tod_III_B_1.pdb
 45 45 0 0 0
SMALL
GASTEIGER

@<TRIPOS>ATOM
      1  N          4.0010    7.9440   33.3660 N.3   681  LEU681     -0.1231
      2  CA         4.7220    9.0910   32.8310 C.3   681  LEU681      0.1693
      3  C          5.2970    9.9650   33.9650 C.2   681  LEU681      0.2592
      4  O          4.6860   10.9730   34.3640 O.2   681  LEU681     -0.2718
      5  CB         3.8680    9.8960   31.8010 C.3   681  LEU681      0.0284
      6  CG         2.5300   10.6050   32.1490 C.3   681  LEU681      0.0019
      7  CD1        2.7150   11.9860   32.8560 C.3   681  LEU681      0.0001
      8  CD2        1.5880   10.7460   30.9070 C.3   681  LEU681      0.0001
      9  N          6.4760    9.4060   34.3460 N.am  682  GLU682     -0.1966
     10  CA         7.3160   10.2470   35.2270 C.3   682  GLU682      0.1733
     11  C          8.7400    9.7380   35.6230 C.2   682  GLU682      0.2616
     12  O          9.6900   10.5490   35.6630 O.2   682  GLU682     -0.2715
     13  CB         6.5430   10.7250   36.4750 C.3   682  GLU682      0.0429
     14  CG         6.1460    9.6340   37.4570 C.3   682  GLU682      0.1163
     15  CD         6.0830   10.1640   38.8810 C.2   682  GLU682      0.3649
     16  OE1        6.5160   11.3320   39.1110 O.co2 682  GLU682     -0.2457
     17  OE2        5.6090    9.4110   39.7690 O.co2 682  GLU682     -0.2457
     18  N          8.8920    8.4350   35.9220 N.am  683  ALA683     -0.1963
     19  CA        10.1230    7.9620   36.5780 C.3   683  ALA683      0.1728
     20  C         10.9760    7.0410   35.6860 C.2   683  ALA683      0.2616
     21  O         10.4920    6.4690   34.7330 O.2   683  ALA683     -0.2715
     22  CB         9.8140    7.2890   37.9810 C.3   683  ALA683      0.0334
     23  N         12.2580    6.9410   36.0810 N.am  684  CYS684     -0.1954
     24  CA        13.1640    5.9830   35.4510 C.3   684  CYS684      0.1843
     25  C         12.6510    4.5230   35.6900 C.2   684  CYS684      0.2625
     26  O         12.1910    4.1940   36.7860 O.2   684  CYS684     -0.2714
     27  CB        14.5660    6.1920   36.0430 C.3   684  CYS684      0.0997
     28  SG        15.8500    5.1340   35.4630 S.3   684  CYS684     -0.0797
     29  N         12.7150    3.6720   34.6640 N.am  685  ALA685     -0.1963
     30  CA        12.3250    2.2330   34.7510 C.3   685  ALA685      0.1728
     31  C         13.1940    1.3440   35.6290 C.2   685  ALA685      0.2617
     32  O         12.8070    0.1790   35.9030 O.2   685  ALA685     -0.2715
     33  CB        12.2520    1.5960   33.3360 C.3   685  ALA685      0.0334
     34  N         14.3640    1.8450   36.0300 N.am  686  PHE686     -0.1938
     35  CA        15.3590    1.0350   36.7750 C.3   686  PHE686      0.2021
     36  C         15.5670    1.5860   38.1800 C.2   686  PHE686      0.3845
     37  O         16.2110    0.8990   38.9710 O.co2 686  PHE686     -0.2437
     38  CB        16.7140    0.9400   36.0490 C.3   686  PHE686      0.0596
     39  CG        16.5790    0.6930   34.5740 C.ar  686  PHE686     -0.0199
     40  CD1       16.1930   -0.5640   34.0630 C.ar  686  PHE686     -0.0042
     41  CD2       16.8160    1.7170   33.6960 C.ar  686  PHE686     -0.0042
     42  CE1       16.0170   -0.7300   32.6650 C.ar  686  PHE686     -0.0003
     43  CE2       16.6630    1.5480   32.3160 C.ar  686  PHE686     -0.0003
     44  CZ        16.2980    0.3570   31.8030 C.ar  686  PHE686     -0.0000
     45  OXT       15.1490    2.6840   38.4810 O.co2 686  PHE686     -0.2437
@<TRIPOS>BOND
     1     8     6    1
     2     5     6    1
     3     5     2    1
     4    44    43   ar
     5    44    42   ar
     6     6     7    1
     7    43    41   ar
     8    42    40   ar
     9     2     1    1
    10     2     3    1
    11    33    30    1
    12    41    39   ar
    13     3     9   am
    14     3     4    2
    15    40    39   ar
    16     9    10    1
    17    39    38    1
    18    29    30    1
    19    29    25   am
    20    21    20    2
    21    30    31    1
    22    10    11    1
    23    10    13    1
    24    24    25    1
    25    24    27    1
    26    24    23    1
    27    28    27    1
    28    11    12    2
    29    11    18   am
    30    31    32    2
    31    31    34   am
    32    20    23   am
    33    20    19    1
    34    25    26    2
    35    18    19    1
    36    34    35    1
    37    38    35    1
    38    13    14    1
    39    19    22    1
    40    35    36    1
    41    14    15    1
    42    36    45   ar
    43    36    37   ar
    44    15    16   ar
    45    15    17   ar
