@<TRIPOS>MOLECULE
3tof_076_A_1.pdb
 38 41 0 0 0
SMALL
GASTEIGER

@<TRIPOS>ATOM
      1  C1        19.1620   35.7270   17.9610 C.2   100  076100      0.2863
      2  O1        18.8090   35.0980   18.9620 O.2   100  076100     -0.2693
      3  C2        19.9070   37.0270   18.2630 C.3   100  076100      0.2911
      4  O2        20.1900   37.5990   16.9230 O.3   100  076100     -0.4656
      5  C3        21.2170   38.4900   16.7330 C.ar  100  076100      0.1393
      6  C4        22.0180   38.9230   17.8040 C.ar  100  076100      0.0369
      7  C5        23.0690   39.8410   17.5420 C.ar  100  076100      0.0031
      8  C6        23.2840   40.3070   16.2320 C.ar  100  076100      0.0002
      9  C7        22.4780   39.8500   15.1800 C.ar  100  076100      0.0031
     10  C8        21.4460   38.9530   15.4270 C.ar  100  076100      0.0369
     11  N1        18.9300   35.3170   16.6770 N.am  100  076100     -0.1946
     12  C9        18.2760   34.0040   16.4070 C.3   100  076100      0.1728
     13  C13       19.3410   33.1680   15.5810 C.2   100  076100      0.2612
     14  O3        19.5330   33.3340   14.3590 O.2   100  076100     -0.2715
     15  C10       16.8790   34.1330   15.7560 C.3   100  076100      0.0290
     16  C11       16.4000   32.6740   15.3790 C.3   100  076100      0.0023
     17  C12       15.8870   34.8280   16.7320 C.3   100  076100      0.0023
     18  C27       18.2850   26.3370   11.8390 C.ar  100  076100     -0.0042
     19  C28       18.2200   25.9870   10.4850 C.ar  100  076100     -0.0003
     20  C29       18.0150   27.0030    9.5510 C.ar  100  076100     -0.0000
     21  C30       17.8980   28.3320    9.9660 C.ar  100  076100     -0.0003
     22  C31       17.9270   28.7000   11.3070 C.ar  100  076100     -0.0042
     23  C26       18.1470   27.6750   12.2360 C.ar  100  076100     -0.0197
     24  C25       18.2020   28.0340   13.7100 C.3   100  076100      0.0585
     25  C24       19.5390   28.4420   13.9730 C.3   100  076100      0.1492
     26  O5        19.8570   29.7100   13.3520 O.3   100  076100     -0.3507
     27  C23       19.6120   29.6900   14.7940 C.3   100  076100      0.1744
     28  C22       20.8590   29.9050   15.5960 C.3   100  076100      0.2014
     29  O4        20.5950   29.4480   16.9590 O.3   100  076100     -0.2186
     30  C14       21.1510   31.4230   15.6570 C.3   100  076100      0.1325
     31  C15       22.4440   31.7370   16.4780 C.3   100  076100      0.0507
     32  C16       22.8350   33.1830   16.2320 C.ar  100  076100     -0.0204
     33  C17       23.3360   33.6690   14.9930 C.ar  100  076100     -0.0042
     34  C18       23.6660   35.0090   14.8450 C.ar  100  076100     -0.0003
     35  C19       23.4670   35.8810   15.9130 C.ar  100  076100     -0.0000
     36  C20       22.9630   35.4040   17.1360 C.ar  100  076100     -0.0003
     37  C21       22.6570   34.0270   17.2990 C.ar  100  076100     -0.0042
     38  N2        20.0260   32.2600   16.2980 N.am  100  076100     -0.2027
@<TRIPOS>BOND
     1    20    21   ar
     2    20    19   ar
     3    21    22   ar
     4    19    18   ar
     5    22    23   ar
     6    18    23   ar
     7    23    24    1
     8    26    25    1
     9    26    27    1
    10    24    25    1
    11    25    27    1
    12    14    13    2
    13    27    28    1
    14    34    33   ar
    15    34    35   ar
    16    33    32   ar
    17     9    10   ar
    18     9     8   ar
    19    16    15    1
    20    10     5   ar
    21    13    38   am
    22    13    12    1
    23    28    30    1
    24    28    29    1
    25    30    38    1
    26    30    31    1
    27    15    12    1
    28    15    17    1
    29    35    36   ar
    30     8     7   ar
    31    32    31    1
    32    32    37   ar
    33    12    11    1
    34    11     1   am
    35     5     4    1
    36     5     6   ar
    37     4     3    1
    38    36    37   ar
    39     7     6   ar
    40     1     3    1
    41     1     2    2
