@<TRIPOS>MOLECULE
3tog_079_A_1.pdb
 39 41 0 0 0
SMALL
GASTEIGER

@<TRIPOS>ATOM
      1  C1        40.3840   -1.1730   33.5720 C.2   101  079101      0.2863
      2  O1        39.8820   -2.0980   34.2130 O.2   101  079101     -0.2693
      3  C2        41.0450   -0.0620   34.3310 C.3   101  079101      0.2911
      4  O2        41.4520    0.9190   33.2780 O.3   101  079101     -0.4656
      5  C3        42.4290    1.8930   33.5080 C.ar  101  079101      0.1393
      6  C4        43.1350    1.8430   34.7250 C.ar  101  079101      0.0369
      7  C5        44.1780    2.7770   34.9520 C.ar  101  079101      0.0031
      8  C6        44.4310    3.7110   33.9600 C.ar  101  079101      0.0002
      9  C7        43.7280    3.8010   32.7580 C.ar  101  079101      0.0031
     10  C8        42.6860    2.8670   32.5030 C.ar  101  079101      0.0369
     11  N1        40.1690   -1.0150   32.2630 N.am  101  079101     -0.1946
     12  C9        39.4430   -2.1060   31.5060 C.3   101  079101      0.1728
     13  C13       40.3320   -2.5970   30.3330 C.2   101  079101      0.2612
     14  O3        40.5680   -1.8890   29.3070 O.2   101  079101     -0.2715
     15  C10       38.0260   -1.6620   30.9900 C.3   101  079101      0.0290
     16  C11       37.4350   -2.7440   30.1220 C.3   101  079101      0.0023
     17  C12       36.9900   -1.4550   32.1060 C.3   101  079101      0.0023
     18  C27       39.3510   -7.0750   24.1280 C.ar  101  079101     -0.0042
     19  C28       39.2050   -6.7130   22.7800 C.ar  101  079101     -0.0003
     20  C29       38.8210   -5.3740   22.5390 C.ar  101  079101     -0.0000
     21  C30       38.5860   -4.4500   23.5810 C.ar  101  079101     -0.0003
     22  C31       38.7280   -4.8570   24.9160 C.ar  101  079101     -0.0042
     23  C26       39.1010   -6.1620   25.1570 C.ar  101  079101     -0.0196
     24  C25       39.2510   -6.6610   26.5450 C.3   101  079101      0.0608
     25  C24       40.6890   -6.5010   27.1150 C.3   101  079101      0.1763
     26  O5        41.7180   -6.2240   26.1500 O.3   101  079101     -0.2211
     27  C23       40.7030   -5.4060   28.1230 C.3   101  079101      0.1543
     28  N3        39.3820   -5.4780   28.7330 N.3   101  079101     -0.1275
     29  C22       41.7960   -5.5650   29.1770 C.3   101  079101      0.1920
     30  O4        41.4240   -6.4560   30.2770 O.3   101  079101     -0.2196
     31  C14       42.1140   -4.1680   29.7130 C.3   101  079101      0.1315
     32  C15       43.4530   -4.2240   30.4430 C.3   101  079101      0.0506
     33  C16       43.8410   -2.8380   30.9210 C.ar  101  079101     -0.0204
     34  C17       44.2690   -1.8650   30.0110 C.ar  101  079101     -0.0042
     35  C18       44.6450   -0.6010   30.4660 C.ar  101  079101     -0.0003
     36  C19       44.5140   -0.3210   31.8220 C.ar  101  079101     -0.0000
     37  C20       44.0660   -1.2460   32.7750 C.ar  101  079101     -0.0003
     38  C21       43.7450   -2.5420   32.2760 C.ar  101  079101     -0.0042
     39  N2        41.0300   -3.6810   30.6170 N.am  101  079101     -0.2027
@<TRIPOS>BOND
     1    20    19   ar
     2    20    21   ar
     3    19    18   ar
     4    21    22   ar
     5    18    23   ar
     6    22    23   ar
     7    23    24    1
     8    26    25    1
     9    24    25    1
    10    25    27    1
    11    27    28    1
    12    27    29    1
    13    29    31    1
    14    29    30    1
    15    14    13    2
    16    31    32    1
    17    31    39    1
    18    34    35   ar
    19    34    33   ar
    20    16    15    1
    21    13    39   am
    22    13    12    1
    23    32    33    1
    24    35    36   ar
    25    33    38   ar
    26    15    12    1
    27    15    17    1
    28    12    11    1
    29    36    37   ar
    30    11     1   am
    31    38    37   ar
    32    10     9   ar
    33    10     5   ar
    34     9     8   ar
    35     4     5    1
    36     4     3    1
    37     5     6   ar
    38     1     2    2
    39     1     3    1
    40     8     7   ar
    41     6     7   ar
