@<TRIPOS>MOLECULE
3toh_079_A_1.pdb
 39 41 0 0 0
SMALL
GASTEIGER

@<TRIPOS>ATOM
      1  C1        19.2100   35.6760   18.1460 C.2   100  079100      0.2863
      2  O1        18.7730   35.0850   19.1320 O.2   100  079100     -0.2693
      3  C2        19.9440   37.0030   18.3800 C.3   100  079100      0.2911
      4  O2        20.2040   37.5810   17.0670 O.3   100  079100     -0.4656
      5  C3        21.2010   38.5050   16.9560 C.ar  100  079100      0.1393
      6  C4        22.0180   38.8710   18.0230 C.ar  100  079100      0.0369
      7  C5        23.0260   39.8210   17.8230 C.ar  100  079100      0.0031
      8  C6        23.2150   40.3960   16.5650 C.ar  100  079100      0.0002
      9  C7        22.4070   40.0300   15.4940 C.ar  100  079100      0.0031
     10  C8        21.4030   39.0840   15.6990 C.ar  100  079100      0.0369
     11  N1        19.0470   35.2270   16.8940 N.am  100  079100     -0.1946
     12  C9        18.3790   33.9620   16.5600 C.3   100  079100      0.1728
     13  C13       19.3590   33.1280   15.7130 C.2   100  079100      0.2612
     14  O3        19.5170   33.3570   14.5000 O.2   100  079100     -0.2715
     15  C10       17.0250   34.1520   15.8820 C.3   100  079100      0.0290
     16  C11       16.3820   32.7730   15.6150 C.3   100  079100      0.0023
     17  C12       16.1010   35.0110   16.7520 C.3   100  079100      0.0023
     18  C27       18.5910   26.5620   11.5980 C.ar  100  079100     -0.0042
     19  C28       18.5820   26.3830   10.2140 C.ar  100  079100     -0.0003
     20  C29       18.2120   27.4430    9.3870 C.ar  100  079100     -0.0000
     21  C30       17.8450   28.6730    9.9420 C.ar  100  079100     -0.0003
     22  C31       17.8450   28.8560   11.3220 C.ar  100  079100     -0.0042
     23  C26       18.2460   27.7960   12.1400 C.ar  100  079100     -0.0196
     24  C25       18.2540   27.9370   13.6310 C.3   100  079100      0.0608
     25  C24       19.6110   28.3030   14.2610 C.3   100  079100      0.1763
     26  O5        20.8240   28.2120   13.4330 O.3   100  079100     -0.2211
     27  C23       19.5220   29.6770   14.8350 C.3   100  079100      0.1543
     28  N3        18.2080   29.9140   15.4730 N.3   100  079100     -0.1275
     29  C22       20.6740   29.8770   15.7870 C.3   100  079100      0.1920
     30  O4        20.4740   29.4140   17.1320 O.3   100  079100     -0.2196
     31  C14       21.0450   31.3410   15.7650 C.3   100  079100      0.1315
     32  C15       22.4010   31.6090   16.4210 C.3   100  079100      0.0506
     33  C16       22.7440   33.0900   16.3530 C.ar  100  079100     -0.0204
     34  C17       23.2180   33.6120   15.1430 C.ar  100  079100     -0.0042
     35  C18       23.5470   34.9630   15.0550 C.ar  100  079100     -0.0003
     36  C19       23.3710   35.7850   16.1680 C.ar  100  079100     -0.0000
     37  C20       22.9030   35.2570   17.3770 C.ar  100  079100     -0.0003
     38  C21       22.5960   33.9030   17.4640 C.ar  100  079100     -0.0042
     39  N2        20.0080   32.1810   16.4160 N.am  100  079100     -0.2027
@<TRIPOS>BOND
     1    20    21   ar
     2    20    19   ar
     3    21    22   ar
     4    19    18   ar
     5    22    23   ar
     6    18    23   ar
     7    23    24    1
     8    26    25    1
     9    24    25    1
    10    25    27    1
    11    14    13    2
    12    27    28    1
    13    27    29    1
    14    35    34   ar
    15    35    36   ar
    16    34    33   ar
    17     9    10   ar
    18     9     8   ar
    19    16    15    1
    20    10     5   ar
    21    13    39   am
    22    13    12    1
    23    31    29    1
    24    31    39    1
    25    31    32    1
    26    29    30    1
    27    15    12    1
    28    15    17    1
    29    36    37   ar
    30    33    32    1
    31    33    38   ar
    32    12    11    1
    33     8     7   ar
    34    11     1   am
    35     5     4    1
    36     5     6   ar
    37     4     3    1
    38    37    38   ar
    39     7     6   ar
    40     1     3    1
    41     1     2    2
