@<TRIPOS>MOLECULE
3tol_HEM_A_1.pdb
 43 50 0 0 0
SMALL
GASTEIGER

@<TRIPOS>ATOM
      1  CHA        4.3470   -2.7510  -28.9140 C.2   150  HEM150      0.0000
      2  CHB        1.6270   -5.4380  -25.9580 C.2   150  HEM150      0.0000
      3  CHC        5.5490   -6.3750  -23.2620 C.2   150  HEM150      0.0000
      4  CHD        8.3290   -3.7920  -26.2400 C.2   150  HEM150      0.0000
      5  C1A        3.2640   -3.4200  -28.3880 C.2   150  HEM150      0.0000
      6  C2A        1.9340   -3.5180  -28.9650 C.2   150  HEM150      0.0000
      7  C3A        1.1840   -4.2620  -28.1370 C.2   150  HEM150      0.0000
      8  C4A        2.0150   -4.6650  -27.0180 C.2   150  HEM150      0.0000
      9  CMA       -0.2970   -4.6520  -28.3240 C.3   150  HEM150      0.0000
     10  CAA        1.4730   -2.8760  -30.3090 C.3   150  HEM150      0.0000
     11  CBA        2.3330   -3.4710  -31.4200 C.3   150  HEM150      0.0000
     12  CGA        1.5230   -4.2770  -32.4020 C.2   150  HEM150      0.0000
     13  O1A        1.3640   -5.4980  -32.1720 O.co2 150  HEM150      0.0000
     14  O2A        1.0470   -3.7130  -33.4330 O.co2 150  HEM150      0.0000
     15  C1B        2.4350   -5.9320  -24.9590 C.ar  150  HEM150      0.0000
     16  C2B        2.0110   -6.7590  -23.8490 C.ar  150  HEM150      0.0000
     17  C3B        3.0990   -7.0300  -23.1090 C.ar  150  HEM150      0.0000
     18  C4B        4.2450   -6.3710  -23.7260 C.ar  150  HEM150      0.0000
     19  CMB        0.5470   -7.2210  -23.6000 C.3   150  HEM150      0.0000
     20  CAB        3.1620   -7.8760  -21.8010 C.2   150  HEM150      0.0000
     21  CBB        2.6900   -9.1470  -21.7620 C.2   150  HEM150      0.0000
     22  C1C        6.6610   -5.7750  -23.8090 C.2   150  HEM150      0.0000
     23  C2C        8.0310   -5.8300  -23.2840 C.2   150  HEM150      0.0000
     24  C3C        8.8160   -5.1190  -24.1130 C.2   150  HEM150      0.0000
     25  C4C        7.9570   -4.5810  -25.1750 C.2   150  HEM150      0.0000
     26  CMC        8.4320   -6.5800  -21.9890 C.3   150  HEM150      0.0000
     27  CAC       10.3550   -4.9000  -23.9910 C.2   150  HEM150      0.0000
     28  CBC       11.1260   -5.7020  -23.2010 C.2   150  HEM150      0.0000
     29  C1D        7.5210   -3.2590  -27.2210 C.ar  150  HEM150      0.0000
     30  C2D        7.9830   -2.3860  -28.2860 C.ar  150  HEM150      0.0000
     31  C3D        6.7400   -2.0700  -29.1170 C.ar  150  HEM150      0.0000
     32  C4D        5.6550   -2.7800  -28.4780 C.ar  150  HEM150      0.0000
     33  CMD        9.4290   -1.8960  -28.5170 C.3   150  HEM150      0.0000
     34  CAD        6.6360   -1.2100  -30.3960 C.3   150  HEM150      0.0000
     35  CBD        6.8570   -2.1710  -31.5620 C.3   150  HEM150      0.0000
     36  CGD        6.8780   -1.4560  -32.8990 C.2   150  HEM150      0.0000
     37  O1D        6.5350   -0.2420  -32.9440 O.co2 150  HEM150      0.0000
     38  O2D        7.2370   -2.1040  -33.9220 O.co2 150  HEM150      0.0000
     39  NA         3.2700   -4.1280  -27.2080 N.2   150  HEM150      0.0000
     40  NB         3.8010   -5.7110  -24.8450 N.ar  150  HEM150      0.0000
     41  NC         6.6780   -5.0140  -24.9480 N.2   150  HEM150      0.0000
     42  ND         6.1530   -3.4600  -27.3670 N.ar  150  HEM150      0.0000
     43 FE          4.9740   -4.5820  -26.0970 Fe    150  HEM150      0.0000
@<TRIPOS>BOND
     1    38    36   ar
     2    14    12   ar
     3    37    36   ar
     4    36    35    1
     5    12    13   ar
     6    12    11    1
     7    35    34    1
     8    11    10    1
     9    34    31    1
    10    10     6    1
    11    31    32   ar
    12    31    30   ar
    13     6     5    1
    14     6     7    2
    15     1    32    2
    16     1     5    1
    17    33    30    1
    18    32    42   ar
    19     5    39    2
    20     9     7    1
    21    30    29   ar
    22     7     8    1
    23    42    29   ar
    24    42    43    1
    25    29     4    2
    26    39     8    1
    27    39    43    1
    28     8     2    2
    29     4    25    1
    30    43    41    1
    31    43    40    1
    32     2    15    1
    33    25    41    2
    34    25    24    1
    35    15    40   ar
    36    15    16   ar
    37    41    22    1
    38    40    18   ar
    39    24    27    1
    40    24    23    2
    41    27    28    2
    42    16    19    1
    43    16    17   ar
    44    22    23    1
    45    22     3    2
    46    18     3    1
    47    18    17   ar
    48    23    26    1
    49    17    20    1
    50    20    21    2
