@<TRIPOS>MOLECULE
3tom_HEM_A_1.pdb
 43 50 0 0 0
SMALL
GASTEIGER

@<TRIPOS>ATOM
      1  CHA       -8.4460   -9.4660   52.2870 C.2   150  HEM150      0.0000
      2  CHB       -6.1460   -5.2310   52.9150 C.2   150  HEM150      0.0000
      3  CHC      -10.3160   -3.2550   54.3970 C.2   150  HEM150      0.0000
      4  CHD      -12.6220   -7.4260   53.8360 C.2   150  HEM150      0.0000
      5  C1A       -7.4290   -8.5390   52.3380 C.ar  150  HEM150      0.0000
      6  C2A       -6.0130   -8.7350   52.0290 C.ar  150  HEM150      0.0000
      7  C3A       -5.3960   -7.5560   52.2110 C.ar  150  HEM150      0.0000
      8  C4A       -6.3710   -6.5730   52.6300 C.ar  150  HEM150      0.0000
      9  CMA       -3.8880   -7.2700   52.0070 C.3   150  HEM150      0.0000
     10  CAA       -5.3260  -10.0430   51.5540 C.3   150  HEM150      0.0000
     11  CBA       -5.7750  -10.3130   50.1030 C.3   150  HEM150      0.0000
     12  CGA       -5.1010  -11.5200   49.4680 C.2   150  HEM150      0.0000
     13  O1A       -4.6410  -11.3850   48.3040 O.co2 150  HEM150      0.0000
     14  O2A       -5.0120  -12.6240   50.0850 O.co2 150  HEM150      0.0000
     15  C1B       -7.1020   -4.3030   53.3530 C.2   150  HEM150      0.0000
     16  C2B       -6.8750   -2.9010   53.6600 C.2   150  HEM150      0.0000
     17  C3B       -8.0370   -2.3660   54.0480 C.2   150  HEM150      0.0000
     18  C4B       -9.0140   -3.4230   54.0290 C.2   150  HEM150      0.0000
     19  CMB       -5.5380   -2.1500   53.5170 C.3   150  HEM150      0.0000
     20  CAB       -8.3980   -0.9090   54.4650 C.2   150  HEM150      0.0000
     21  CBB       -7.6530    0.1760   54.1760 C.2   150  HEM150      0.0000
     22  C1C      -11.2940   -4.2120   54.3680 C.ar  150  HEM150      0.0000
     23  C2C      -12.6860   -3.9700   54.7180 C.ar  150  HEM150      0.0000
     24  C3C      -13.3530   -5.1270   54.5550 C.ar  150  HEM150      0.0000
     25  C4C      -12.3730   -6.1120   54.1230 C.ar  150  HEM150      0.0000
     26  CMC      -13.2200   -2.5920   55.2050 C.3   150  HEM150      0.0000
     27  CAC      -14.8730   -5.3770   54.7880 C.2   150  HEM150      0.0000
     28  CBC      -15.7760   -4.3740   54.8370 C.2   150  HEM150      0.0000
     29  C1D      -11.7230   -8.3430   53.3580 C.2   150  HEM150      0.0000
     30  C2D      -12.1020   -9.6850   52.9680 C.2   150  HEM150      0.0000
     31  C3D      -10.8080  -10.3220   52.4730 C.2   150  HEM150      0.0000
     32  C4D       -9.7740   -9.3000   52.6200 C.2   150  HEM150      0.0000
     33  CMD      -13.5220  -10.2960   53.0340 C.3   150  HEM150      0.0000
     34  CAD      -10.6600  -11.7570   51.9230 C.3   150  HEM150      0.0000
     35  CBD      -10.6820  -11.6530   50.3970 C.3   150  HEM150      0.0000
     36  CGD      -10.2180  -12.9360   49.7950 C.2   150  HEM150      0.0000
     37  O1D      -10.8550  -13.3780   48.7930 O.co2 150  HEM150      0.0000
     38  O2D       -9.2160  -13.5160   50.3090 O.co2 150  HEM150      0.0000
     39  NA        -7.5970   -7.2160   52.6900 N.ar  150  HEM150      0.0000
     40  NB        -8.4380   -4.5790   53.6040 N.2   150  HEM150      0.0000
     41  NC       -11.1400   -5.5150   54.0020 N.ar  150  HEM150      0.0000
     42  ND       -10.3620   -8.1430   53.1380 N.2   150  HEM150      0.0000
     43 FE         -9.4220   -6.3260   53.3550 Fe    150  HEM150      0.0000
@<TRIPOS>BOND
     1    13    12   ar
     2    37    36   ar
     3    12    14   ar
     4    12    11    1
     5    36    38   ar
     6    36    35    1
     7    11    10    1
     8    35    34    1
     9    10     6    1
    10    34    31    1
    11     9     7    1
    12     6     7   ar
    13     6     5   ar
    14     7     8   ar
    15     1     5    2
    16     1    32    1
    17     5    39   ar
    18    31    32    1
    19    31    30    2
    20    32    42    2
    21     8    39   ar
    22     8     2    2
    23    39    43    1
    24     2    15    1
    25    30    33    1
    26    30    29    1
    27    42    43    1
    28    42    29    1
    29    15    40    2
    30    15    16    1
    31    43    40    1
    32    43    41    1
    33    29     4    2
    34    19    16    1
    35    40    18    1
    36    16    17    2
    37     4    25    1
    38    41    25   ar
    39    41    22   ar
    40    18    17    1
    41    18     3    2
    42    17    20    1
    43    25    24   ar
    44    21    20    2
    45    22     3    1
    46    22    23   ar
    47    24    23   ar
    48    24    27    1
    49    23    26    1
    50    27    28    2
