@<TRIPOS>MOLECULE
3top_ACR_A_1.pdb
 44 47 0 0 0
SMALL
GASTEIGER

@<TRIPOS>ATOM
      1  C1A      -31.7350   30.9460   28.4860 C.3     1  ACR1        0.1273
      2  C2A      -32.9890   30.1310   28.2740 C.3     1  ACR1        0.2049
      3  C3A      -34.0510   30.6360   29.2270 C.3     1  ACR1        0.2179
      4  C4A      -33.6540   30.3090   30.6080 C.3     1  ACR1        0.2053
      5  C5A      -32.3340   30.9090   30.9190 C.2     1  ACR1        0.0180
      6  C6A      -31.8000   30.7390   32.3070 C.3     1  ACR1        0.2066
      7  C7A      -31.4060   31.0970   29.9270 C.2     1  ACR1       -0.0100
      8  O2A      -33.4330   30.2690   26.9760 O.3     1  ACR1       -0.2184
      9  O3A      -35.2640   30.0540   28.9480 O.3     1  ACR1       -0.2172
     10  O4A      -34.6280   30.8420   31.4130 O.3     1  ACR1       -0.2157
     11  O6A      -31.1800   29.5030   32.3800 O.3     1  ACR1       -0.2155
     12  C1B      -28.7190   35.0470   27.7220 C.3     1  ACR1        0.2694
     13  C2B      -28.4590   33.6640   27.2200 C.3     1  ACR1        0.2394
     14  C3B      -29.7740   33.0190   26.8540 C.3     1  ACR1        0.2054
     15  C4B      -30.6250   33.0020   28.0600 C.3     1  ACR1        0.1333
     16  C5B      -30.8410   34.4230   28.4330 C.3     1  ACR1        0.1364
     17  C6B      -31.7620   34.4740   29.5930 C.3     1  ACR1        0.0337
     18  N4B      -31.8710   32.2800   27.8580 N.3     1  ACR1       -0.2087
     19  O2B      -27.7010   33.6890   26.0860 O.3     1  ACR1       -0.2149
     20  O3B      -29.5080   31.6890   26.2740 O.3     1  ACR1       -0.2186
     21  O5B      -29.6280   35.0210   28.7990 O.3     1  ACR1       -0.3295
     22  C1C      -27.9330   38.7630   24.1780 C.3     1  ACR1        0.2695
     23  C2C      -28.1270   37.3950   23.5890 C.3     1  ACR1        0.2404
     24  C3C      -28.4530   36.2560   24.5410 C.3     1  ACR1        0.2167
     25  C4C      -28.3730   36.5950   25.9970 C.3     1  ACR1        0.1804
     26  C5C      -28.7680   38.0020   26.2470 C.3     1  ACR1        0.1803
     27  C6C      -28.5050   38.3310   27.6750 C.3     1  ACR1        0.2141
     28  O2C      -29.0970   37.4320   22.6070 O.3     1  ACR1       -0.2149
     29  O3C      -27.5870   35.2440   24.2290 O.3     1  ACR1       -0.2175
     30  O4C      -29.2930   35.7620   26.6570 O.3     1  ACR1       -0.3257
     31  O5C      -28.0180   38.9170   25.5500 O.3     1  ACR1       -0.3257
     32  O6C      -29.7220   38.3810   28.3170 O.3     1  ACR1       -0.2176
     33  C1D      -32.7620   40.6780   22.9170 C.3     1  ACR1        0.3023
     34  C2D      -32.1070   40.6470   24.3160 C.3     1  ACR1        0.2433
     35  C3D      -30.5970   40.4870   24.5500 C.3     1  ACR1        0.2168
     36  C4D      -30.0390   39.6830   23.4660 C.3     1  ACR1        0.1804
     37  C5D      -30.4880   40.3720   22.1540 C.3     1  ACR1        0.1804
     38  C6D      -29.8990   39.6010   20.8910 C.3     1  ACR1        0.2141
     39  O1D      -33.6430   41.7430   22.8240 O.3     1  ACR1       -0.1869
     40  O2D      -32.5170   41.8960   25.0290 O.3     1  ACR1       -0.2148
     41  O3D      -30.3400   39.9620   25.7990 O.3     1  ACR1       -0.2175
     42  O4D      -28.6530   39.7670   23.5040 O.3     1  ACR1       -0.3257
     43  O5D      -31.8560   40.7060   21.8570 O.3     1  ACR1       -0.3237
     44  O6D      -28.9470   40.4200   20.2680 O.3     1  ACR1       -0.2176
@<TRIPOS>BOND
     1    44    38    1
     2    38    37    1
     3    43    37    1
     4    43    33    1
     5    37    36    1
     6    28    23    1
     7    39    33    1
     8    33    34    1
     9    36    42    1
    10    36    35    1
    11    42    22    1
    12    23    22    1
    13    23    24    1
    14    22    31    1
    15    29    24    1
    16    34    35    1
    17    34    40    1
    18    24    25    1
    19    35    41    1
    20    31    26    1
    21    25    26    1
    22    25    30    1
    23    19    13    1
    24    26    27    1
    25    20    14    1
    26    30    12    1
    27    14    13    1
    28    14    15    1
    29     8     2    1
    30    13    12    1
    31    27    32    1
    32    12    21    1
    33    18    15    1
    34    18     1    1
    35    15    16    1
    36     2     1    1
    37     2     3    1
    38    16    21    1
    39    16    17    1
    40     1     7    1
    41     9     3    1
    42     3     4    1
    43     7     5    2
    44     4     5    1
    45     4    10    1
    46     5     6    1
    47     6    11    1
