@<TRIPOS>MOLECULE
3tor_HEC_A_1.pdb
 43 50 0 0 0
SMALL
GASTEIGER

@<TRIPOS>ATOM
      1 FE        -19.1340    6.6180  -31.7560 Fe      3  HEC3        0.0000
      2  CHA      -16.1360    4.9330  -32.0760 C.2     3  HEC3        0.0000
      3  CHB      -17.5710    9.5840  -32.4720 C.2     3  HEC3        0.0000
      4  CHC      -22.2040    8.1360  -32.0210 C.2     3  HEC3        0.0000
      5  CHD      -20.6420    3.7020  -30.8430 C.2     3  HEC3        0.0000
      6  NA       -17.1750    7.1500  -32.1390 N.ar    3  HEC3        0.0000
      7  C1A      -16.1270    6.3220  -32.2300 C.ar    3  HEC3        0.0000
      8  C2A      -14.9340    7.1720  -32.4650 C.ar    3  HEC3        0.0000
      9  C3A      -15.3420    8.4310  -32.5990 C.ar    3  HEC3        0.0000
     10  C4A      -16.7740    8.4540  -32.4150 C.ar    3  HEC3        0.0000
     11  CMA      -14.4990    9.6910  -32.9030 C.3     3  HEC3        0.0000
     12  CAA      -13.4510    6.6290  -32.6070 C.3     3  HEC3        0.0000
     13  CBA      -13.3110    6.0120  -34.0230 C.3     3  HEC3        0.0000
     14  CGA      -13.4920    7.0730  -35.1110 C.2     3  HEC3        0.0000
     15  O1A      -12.5470    7.9200  -35.2820 O.co2   3  HEC3        0.0000
     16  O2A      -14.5830    7.0740  -35.7870 O.co2   3  HEC3        0.0000
     17  NB       -19.8010    8.5050  -32.1330 N.2     3  HEC3        0.0000
     18  C1B      -18.9590    9.5640  -32.5140 C.2     3  HEC3        0.0000
     19  C2B      -19.7710   10.6800  -32.9370 C.2     3  HEC3        0.0000
     20  C3B      -21.0670   10.3030  -32.8160 C.2     3  HEC3        0.0000
     21  C4B      -21.0770    8.9190  -32.3300 C.2     3  HEC3        0.0000
     22  CMB      -19.1130   12.0150  -33.3690 C.3     3  HEC3        0.0000
     23  CAB      -22.3450   11.0990  -33.2190 C.3     3  HEC3        0.0000
     24  CBB      -22.5740   11.1750  -34.7940 C.3     3  HEC3        0.0000
     25  NC       -21.1190    6.0200  -31.4780 N.ar    3  HEC3        0.0000
     26  C1C      -22.1990    6.8200  -31.5920 C.ar    3  HEC3        0.0000
     27  C2C      -23.3470    6.0350  -31.1110 C.ar    3  HEC3        0.0000
     28  C3C      -22.8830    4.7940  -30.8680 C.ar    3  HEC3        0.0000
     29  C4C      -21.4560    4.7740  -31.0710 C.ar    3  HEC3        0.0000
     30  CMC      -24.7980    6.5910  -31.1500 C.3     3  HEC3        0.0000
     31  CAC      -23.5730    3.5260  -30.3710 C.3     3  HEC3        0.0000
     32  CBC      -25.0920    3.5620  -30.6970 C.3     3  HEC3        0.0000
     33  ND       -18.5000    4.7290  -31.4930 N.2     3  HEC3        0.0000
     34  C1D      -19.3120    3.6440  -31.1360 C.2     3  HEC3        0.0000
     35  C2D      -18.5650    2.4080  -31.1870 C.2     3  HEC3        0.0000
     36  C3D      -17.1700    2.7590  -31.6080 C.2     3  HEC3        0.0000
     37  C4D      -17.2040    4.1950  -31.7990 C.2     3  HEC3        0.0000
     38  CMD      -19.0630    0.9730  -30.8750 C.3     3  HEC3        0.0000
     39  CAD      -16.0450    1.7270  -31.7630 C.3     3  HEC3        0.0000
     40  CBD      -16.1800    0.9430  -33.0700 C.3     3  HEC3        0.0000
     41  CGD      -15.9230    1.6510  -34.4200 C.2     3  HEC3        0.0000
     42  O1D      -15.5840    2.8800  -34.5050 O.co2   3  HEC3        0.0000
     43  O2D      -16.0720    0.9760  -35.5080 O.co2   3  HEC3        0.0000
@<TRIPOS>BOND
     1    16    14   ar
     2    43    41   ar
     3    15    14   ar
     4    14    13    1
     5    24    23    1
     6    42    41   ar
     7    41    40    1
     8    13    12    1
     9    22    19    1
    10    23    20    1
    11    40    39    1
    12    19    20    2
    13    19    18    1
    14    11     9    1
    15    20    21    1
    16    12     8    1
    17     9     8   ar
    18     9    10   ar
    19    18     3    1
    20    18    17    2
    21     3    10    2
    22     8     7   ar
    23    10     6   ar
    24    21    17    1
    25    21     4    2
    26     7     6   ar
    27     7     2    2
    28     6     1    1
    29    17     1    1
    30     2    37    1
    31     4    26    1
    32    37    36    1
    33    37    33    2
    34    39    36    1
    35     1    33    1
    36     1    25    1
    37    36    35    2
    38    26    25   ar
    39    26    27   ar
    40    33    34    1
    41    25    29   ar
    42    35    34    1
    43    35    38    1
    44    30    27    1
    45    34     5    2
    46    27    28   ar
    47    29    28   ar
    48    29     5    1
    49    28    31    1
    50    32    31    1
