@<TRIPOS>MOLECULE
3tos_GLU_A_1.pdb
 10 9 0 0 0
SMALL
GASTEIGER

@<TRIPOS>ATOM
      1  N        -13.6240  -46.6990  -42.5100 N.3   259  GLU259     -0.1208
      2  CA       -12.6090  -47.6050  -43.1550 C.3   259  GLU259      0.1949
      3  C        -11.4720  -46.7540  -43.8200 C.2   259  GLU259      0.3819
      4  O        -10.5210  -47.2820  -44.4090 O.co2 259  GLU259     -0.2441
      5  CB       -13.2940  -48.5330  -44.1920 C.3   259  GLU259      0.0424
      6  CG       -13.8870  -47.7710  -45.4350 C.3   259  GLU259      0.1161
      7  CD       -14.4970  -48.7160  -46.4780 C.2   259  GLU259      0.3649
      8  OE1      -14.0160  -49.8730  -46.6290 O.co2 259  GLU259     -0.2457
      9  OE2      -15.4820  -48.3200  -47.1440 O.co2 259  GLU259     -0.2457
     10  OXT      -11.4620  -45.5010  -43.7760 O.co2 259  GLU259     -0.2441
@<TRIPOS>BOND
     1     9     7   ar
     2     8     7   ar
     3     7     6    1
     4     6     5    1
     5     4     3   ar
     6     5     2    1
     7     3    10   ar
     8     3     2    1
     9     2     1    1
