@<TRIPOS>MOLECULE
3tos_SAH_A_1.pdb
 26 28 0 0 0
SMALL
GASTEIGER

@<TRIPOS>ATOM
      1  N        -11.1670  -49.5540  -37.0070 N.3   258  SAH258     -0.1208
      2  CA       -10.7240  -50.5140  -38.1100 C.3   258  SAH258      0.1952
      3  CB       -11.8150  -50.6310  -39.1710 C.3   258  SAH258      0.0422
      4  CG       -13.1580  -51.1900  -38.6350 C.3   258  SAH258      0.0597
      5  SD       -14.1150  -51.8900  -39.9760 S.3   258  SAH258     -0.1375
      6  C         -9.4470  -49.9990  -38.7170 C.2   258  SAH258      0.3819
      7  O         -8.8370  -50.6080  -39.6020 O.co2 258  SAH258     -0.2441
      8  OXT       -8.9540  -48.9550  -38.2940 O.co2 258  SAH258     -0.2441
      9  C5'      -15.7710  -51.8910  -39.3110 C.3   258  SAH258      0.0899
     10  C4'      -15.9830  -52.9490  -38.2060 C.3   258  SAH258      0.1630
     11  O4'      -17.2130  -52.6760  -37.5470 O.3   258  SAH258     -0.3153
     12  C3'      -16.0270  -54.3890  -38.7460 C.3   258  SAH258      0.2168
     13  O3'      -14.9110  -55.1140  -38.1980 O.3   258  SAH258     -0.2175
     14  C2'      -17.3740  -54.8530  -38.2090 C.3   258  SAH258      0.2569
     15  O2'      -17.4530  -56.2560  -37.8750 O.3   258  SAH258     -0.2130
     16  C1'      -17.6490  -53.9320  -37.0110 C.3   258  SAH258      0.3185
     17  N9       -19.0720  -53.8550  -36.7210 N.pl3 258  SAH258     -0.1439
     18  C8       -20.0400  -53.3030  -37.4960 C.3   258  SAH258      0.3377
     19  N7       -21.2490  -53.4550  -36.9030 N.2   258  SAH258     -0.2095
     20  C5       -21.0470  -54.1270  -35.7320 C.2   258  SAH258      0.2526
     21  C6       -21.8810  -54.6200  -34.6500 C.2   258  SAH258      0.4393
     22  N6       -23.2280  -54.4180  -34.6980 N.pl3 258  SAH258      0.2180
     23  N1       -21.2410  -55.1780  -33.5860 N.2   258  SAH258      0.0021
     24  C2       -19.8980  -55.4010  -33.5310 C.3   258  SAH258      0.5254
     25  N3       -19.0760  -55.0050  -34.5240 N.2   258  SAH258     -0.0055
     26  C4       -19.6070  -54.3670  -35.6090 C.2   258  SAH258      0.3518
@<TRIPOS>BOND
     1     5     9    1
     2     5     4    1
     3     7     6   ar
     4     9    10    1
     5     3     4    1
     6     3     2    1
     7    12    14    1
     8    12    10    1
     9    12    13    1
    10     6     8   ar
    11     6     2    1
    12    14    15    1
    13    14    16    1
    14    10    11    1
    15     2     1    1
    16    11    16    1
    17    18    19    1
    18    18    17    1
    19    16    17    1
    20    19    20    2
    21    17    26    1
    22    20    26    1
    23    20    21    1
    24    26    25    2
    25    22    21    1
    26    21    23    2
    27    25    24    1
    28    23    24    1
