@<TRIPOS>MOLECULE
3tou_GSH_A_1.pdb
 20 19 0 0 0
SMALL
GASTEIGER

@<TRIPOS>ATOM
      1  N1        25.1820   23.8690   30.6950 N.3   227  GSH227     -0.1208
      2  CA1       26.0970   24.8930   30.1720 C.3   227  GSH227      0.1948
      3  C1        27.0180   24.3290   29.1160 C.2   227  GSH227      0.3819
      4  O11       27.3960   25.0670   28.1710 O.co2 227  GSH227     -0.2441
      5  O12       27.3840   23.1360   29.1430 O.co2 227  GSH227     -0.2441
      6  CB1       26.8940   25.5660   31.2910 C.3   227  GSH227      0.0402
      7  CG1       27.4550   26.9130   30.8040 C.3   227  GSH227      0.0889
      8  CD1       27.9070   27.8170   31.9330 C.2   227  GSH227      0.2418
      9  OE1       27.3980   27.6470   33.2340 O.2   227  GSH227     -0.2733
     10  N2        28.7800   28.7770   31.6210 N.am  227  GSH227     -0.1968
     11  CA2       29.1380   29.8240   32.5740 C.3   227  GSH227      0.1843
     12  C2        28.1300   30.9200   32.5090 C.2   227  GSH227      0.2627
     13  O2        27.9800   31.4550   31.2420 O.2   227  GSH227     -0.2714
     14  CB2       30.4750   30.4730   32.2050 C.3   227  GSH227      0.0997
     15  SG2       31.8200   29.2820   32.3980 S.3   227  GSH227     -0.0797
     16  N3        27.4580   31.3300   33.5880 N.am  227  GSH227     -0.1917
     17  CA3       26.7510   32.6060   33.5960 C.3   227  GSH227      0.2285
     18  C3        25.4440   32.5690   34.3410 C.2   227  GSH227      0.3865
     19  O31       24.7700   33.6040   34.5170 O.co2 227  GSH227     -0.2437
     20  O32       25.0210   31.5080   34.8040 O.co2 227  GSH227     -0.2437
@<TRIPOS>BOND
     1     4     3   ar
     2     3     5   ar
     3     3     2    1
     4     2     1    1
     5     2     6    1
     6     7     6    1
     7     7     8    1
     8    13    12    2
     9    10     8   am
    10    10    11    1
    11     8     9    2
    12    14    15    1
    13    14    11    1
    14    12    11    1
    15    12    16   am
    16    16    17    1
    17    17    18    1
    18    18    19   ar
    19    18    20   ar
