@<TRIPOS>MOLECULE
3tox_NAP_A_1.pdb
 48 52 0 0 0
SMALL
GASTEIGER

@<TRIPOS>ATOM
      1  PA        41.5200  -51.8580   -2.5090 P.3   601  NAP601      0.2189
      2  O1A       42.0080  -50.7860   -3.3900 O.2   601  NAP601     -0.5170
      3  O2A       40.0730  -52.3000   -2.5570 O.3   601  NAP601     -0.4371
      4  O5B       41.9240  -51.4010   -1.0670 O.3   601  NAP601     -0.3112
      5  C5B       43.1390  -50.6290   -0.8520 C.3   601  NAP601      0.1813
      6  C4B       42.9120  -49.8230    0.4260 C.3   601  NAP601      0.1820
      7  O4B       44.1220  -49.1610    0.8240 O.3   601  NAP601     -0.3136
      8  C3B       41.8430  -48.7960    0.2810 C.3   601  NAP601      0.2157
      9  O3B       41.1180  -48.7510    1.5740 O.3   601  NAP601     -0.2175
     10  C2B       42.6440  -47.4930    0.1350 C.3   601  NAP601      0.2314
     11  O2B       41.8840  -46.4750    0.7620 O.3   601  NAP601     -0.2630
     12  C1B       43.8600  -47.7620    1.0150 C.3   601  NAP601      0.3158
     13  N9A       45.0190  -46.8400    0.5670 N.pl3 601  NAP601     -0.1439
     14  C8A       45.6870  -46.7840   -0.6040 C.3   601  NAP601      0.3377
     15  N7A       46.5550  -45.7780   -0.5920 N.2   601  NAP601     -0.2095
     16  C5A       46.4020  -45.1570    0.6080 C.2   601  NAP601      0.2526
     17  C6A       47.0540  -44.1480    1.2190 C.2   601  NAP601      0.4393
     18  N6A       48.0130  -43.4940    0.5670 N.pl3 601  NAP601      0.2180
     19  N1A       46.7040  -43.6680    2.4080 N.2   601  NAP601      0.0021
     20  C2A       45.7170  -44.3960    3.2750 C.3   601  NAP601      0.5254
     21  N3A       45.1020  -45.5480    2.5690 N.2   601  NAP601     -0.0055
     22  C4A       45.4830  -45.8710    1.3280 C.2   601  NAP601      0.3518
     23  O3        42.3020  -53.2140   -2.8530 O.3   601  NAP601     -0.2703
     24  PN        42.6200  -54.5130   -1.8320 P.3   601  NAP601      0.2189
     25  O1N       42.7810  -55.6240   -2.7970 O.2   601  NAP601     -0.5170
     26  O2N       41.5570  -54.5850   -0.7480 O.3   601  NAP601     -0.4371
     27  O5D       44.0400  -54.0620   -1.0490 O.3   601  NAP601     -0.3112
     28  C5D       44.3380  -54.5580    0.2900 C.3   601  NAP601      0.1813
     29  C4D       45.8290  -55.0150    0.3380 C.3   601  NAP601      0.1799
     30  O4D       45.8440  -56.1540   -0.5040 O.3   601  NAP601     -0.3327
     31  C3D       46.7520  -53.9290   -0.3690 C.3   601  NAP601      0.2158
     32  O3D       48.0130  -53.8610    0.3330 O.3   601  NAP601     -0.2175
     33  C2D       46.9670  -54.5910   -1.7660 C.3   601  NAP601      0.2309
     34  O2D       48.1810  -54.1770   -2.3380 O.3   601  NAP601     -0.2158
     35  C1D       47.0120  -56.0780   -1.2960 C.3   601  NAP601      0.2263
     36  N1N       46.8870  -57.1570   -2.3540 N.pl3 601  NAP601     -0.2787
     37  C2N       45.7420  -57.2040   -3.2010 C.3   601  NAP601      0.1244
     38  C3N       45.5940  -58.2050   -4.1770 C.2   601  NAP601      0.0544
     39  C7N       44.4060  -58.2640   -4.9800 C.2   601  NAP601      0.2818
     40  O7N       44.3020  -59.0400   -5.9270 O.2   601  NAP601     -0.2670
     41  N7N       43.4500  -57.3350   -4.7380 N.am  601  NAP601     -0.0839
     42  C4N       46.6430  -59.1160   -4.3110 C.2   601  NAP601      0.0033
     43  C5N       47.7710  -59.1430   -3.4540 C.2   601  NAP601      0.0157
     44  C6N       47.9190  -58.1210   -2.4690 C.2   601  NAP601      0.0633
     45  P2B       41.6580  -44.9080    0.2110 P.3   601  NAP601      0.5328
     46  O1X       41.8350  -44.8680   -1.2600 O.2   601  NAP601     -0.2224
     47  O2X       42.6850  -44.2760    1.0400 O.3   601  NAP601     -0.1145
     48  O3X       40.2490  -44.6700    0.6300 O.3   601  NAP601     -0.1145
@<TRIPOS>BOND
     1    40    39    2
     2    39    41   am
     3    39    38    1
     4    42    38    2
     5    42    43    1
     6    38    37    1
     7    43    44    2
     8     2     1    2
     9    37    36    1
    10    23     1    1
    11    23    24    1
    12    25    24    2
    13     3     1    1
    14     1     4    1
    15    44    36    1
    16    36    35    1
    17    34    33    1
    18    24    27    1
    19    24    26    1
    20    33    35    1
    21    33    31    1
    22    35    30    1
    23    46    45    2
    24     4     5    1
    25    27    28    1
    26     5     6    1
    27    14    15    1
    28    14    13    1
    29    15    16    2
    30    30    29    1
    31    31    32    1
    32    31    29    1
    33    10     8    1
    34    10    11    1
    35    10    12    1
    36    45    48    1
    37    45    11    1
    38    45    47    1
    39     8     6    1
    40     8     9    1
    41    28    29    1
    42     6     7    1
    43    13    12    1
    44    13    22    1
    45    18    17    1
    46    16    17    1
    47    16    22    1
    48     7    12    1
    49    17    19    2
    50    22    21    2
    51    19    20    1
    52    21    20    1
