@<TRIPOS>MOLECULE
3toz_NAD_A_1.pdb
 44 48 0 0 0
SMALL
GASTEIGER

@<TRIPOS>ATOM
      1  PA        19.1920   -4.6020   63.3900 P.3   292  NAD292      0.2189
      2  O1A       20.5130   -4.6920   64.1130 O.3   292  NAD292     -0.4371
      3  O2A       18.0450   -5.4930   63.8110 O.2   292  NAD292     -0.5170
      4  O5B       19.4480   -4.8800   61.8350 O.3   292  NAD292     -0.3112
      5  C5B       20.5310   -4.2720   61.1650 C.3   292  NAD292      0.1813
      6  C4B       20.1750   -4.1810   59.6990 C.3   292  NAD292      0.1821
      7  O4B       21.0350   -3.2060   59.1260 O.3   292  NAD292     -0.3135
      8  C3B       20.4060   -5.4760   58.9330 C.3   292  NAD292      0.2184
      9  O3B       19.3840   -5.6710   57.9430 O.3   292  NAD292     -0.2174
     10  C2B       21.7750   -5.2970   58.2910 C.3   292  NAD292      0.2570
     11  O2B       21.9380   -5.9690   57.0280 O.3   292  NAD292     -0.2130
     12  C1B       21.8490   -3.7980   58.1170 C.3   292  NAD292      0.3186
     13  N9A       23.2190   -3.2560   58.2290 N.pl3 292  NAD292     -0.1439
     14  C8A       23.8730   -2.8880   59.3550 C.3   292  NAD292      0.3377
     15  N7A       25.1050   -2.4130   59.0360 N.2   292  NAD292     -0.2095
     16  C5A       25.2430   -2.4670   57.6950 C.2   292  NAD292      0.2526
     17  C6A       26.2280   -2.1390   56.7710 C.2   292  NAD292      0.4393
     18  N6A       27.4050   -1.6250   57.1820 N.pl3 292  NAD292      0.2180
     19  N1A       25.9890   -2.3440   55.4490 N.2   292  NAD292      0.0021
     20  C2A       24.8310   -2.8560   54.9930 C.3   292  NAD292      0.5254
     21  N3A       23.8340   -3.1900   55.8300 N.2   292  NAD292     -0.0055
     22  C4A       23.9880   -3.0170   57.1690 C.2   292  NAD292      0.3518
     23  O3        18.7760   -3.0530   63.4190 O.3   292  NAD292     -0.2703
     24  PN        17.2530   -2.5700   63.5940 P.3   292  NAD292      0.2189
     25  O1N       16.8220   -2.7690   65.0290 O.3   292  NAD292     -0.4371
     26  O2N       16.4340   -3.2400   62.5110 O.2   292  NAD292     -0.5170
     27  O5D       17.3790   -0.9930   63.3080 O.3   292  NAD292     -0.3112
     28  C5D       18.1320   -0.4470   62.2140 C.3   292  NAD292      0.1813
     29  C4D       18.2660    1.0850   62.3280 C.3   292  NAD292      0.1799
     30  O4D       16.9940    1.7180   62.5660 O.3   292  NAD292     -0.3327
     31  C3D       19.1650    1.5470   63.4710 C.3   292  NAD292      0.2158
     32  O3D       19.9820    2.6300   63.0170 O.3   292  NAD292     -0.2175
     33  C2D       18.2090    2.0060   64.5650 C.3   292  NAD292      0.2309
     34  O2D       18.7940    2.9770   65.4510 O.3   292  NAD292     -0.2158
     35  C1D       17.0280    2.5390   63.7470 C.3   292  NAD292      0.2263
     36  N1N       15.6930    2.4750   64.3750 N.pl3 292  NAD292     -0.2787
     37  C2N       14.9440    3.5900   64.4120 C.3   292  NAD292      0.1244
     38  C3N       13.6660    3.5670   64.9680 C.2   292  NAD292      0.0544
     39  C7N       12.8250    4.8110   65.0140 C.2   292  NAD292      0.2818
     40  O7N       12.0400    4.9680   65.9310 O.2   292  NAD292     -0.2670
     41  N7N       12.9330    5.7120   64.0430 N.am  292  NAD292     -0.0839
     42  C4N       13.1640    2.3750   65.4840 C.2   292  NAD292      0.0033
     43  C5N       13.9490    1.2290   65.4280 C.2   292  NAD292      0.0157
     44  C6N       15.2190    1.3060   64.8620 C.2   292  NAD292      0.0633
@<TRIPOS>BOND
     1    20    19    1
     2    20    21    1
     3    19    17    2
     4    21    22    2
     5    17    18    1
     6    17    16    1
     7    11    10    1
     8    22    16    1
     9    22    13    1
    10    16    15    2
    11     9     8    1
    12    12    13    1
    13    12    10    1
    14    12     7    1
    15    13    14    1
    16    10     8    1
    17     8     6    1
    18    15    14    1
    19     7     6    1
    20     6     5    1
    21     5     4    1
    22     4     1    1
    23    28    29    1
    24    28    27    1
    25    29    30    1
    26    29    31    1
    27    26    24    2
    28    30    35    1
    29    32    31    1
    30    27    24    1
    31     1    23    1
    32     1     3    2
    33     1     2    1
    34    23    24    1
    35    31    33    1
    36    24    25    1
    37    35    36    1
    38    35    33    1
    39    41    39   am
    40    36    37    1
    41    36    44    1
    42    37    38    1
    43    33    34    1
    44    44    43    2
    45    38    39    1
    46    38    42    2
    47    39    40    2
    48    43    42    1
