@<TRIPOS>MOLECULE
3tp0_FO5_A_1.pdb
 21 23 0 0 0
SMALL
GASTEIGER

@<TRIPOS>ATOM
      1  C        -11.8690  -27.0950    1.9200 C.2   217  FO5217      0.2411
      2  N        -14.9250  -28.4030    1.1810 N.1   217  FO5217     -0.1954
      3  O        -12.0980  -26.7400    0.7250 O.2   217  FO5217     -0.2737
      4  S         -3.1370  -26.2080    2.8490 S.2   217  FO5217     -0.0753
      5  C1       -12.8520  -27.9390    2.7210 C.3   217  FO5217      0.1901
      6  N1       -10.7660  -26.7150    2.6040 N.am  217  FO5217     -0.2786
      7  O1        -6.8460  -25.8500    5.8070 O.2   217  FO5217     -0.3156
      8  C2       -14.0120  -28.1990    1.8640 C.1   217  FO5217      0.0830
      9  N2        -5.4720  -25.9370    6.0600 N.2   217  FO5217     -0.0067
     10  C3        -9.8360  -25.8680    1.9090 C.3   217  FO5217      0.0940
     11  N3        -5.8580  -26.0600    3.8570 N.2   217  FO5217     -0.3122
     12  C4        -8.4520  -26.1020    2.4650 C.3   217  FO5217      0.0320
     13  C5        -8.4430  -25.8920    3.9680 C.3   217  FO5217      0.0960
     14  C6        -9.0890  -27.1420    4.4750 C.3   217  FO5217      0.0320
     15  C7       -10.5460  -27.1000    4.0100 C.3   217  FO5217      0.0940
     16  C8        -7.0560  -25.9320    4.4650 C.2   217  FO5217      0.2934
     17  C9        -4.9330  -26.0450    4.8350 C.1   217  FO5217      0.1329
     18  C10       -3.5750  -26.1490    4.4930 C.ar  217  FO5217      0.1063
     19  C11       -2.4260  -26.2230    5.2830 C.ar  217  FO5217      0.0182
     20  C12       -1.2260  -26.3250    4.5370 C.ar  217  FO5217      0.0082
     21  C13       -1.3970  -26.3700    3.1520 C.ar  217  FO5217      0.0362
@<TRIPOS>BOND
     1     3     1    2
     2     2     8    3
     3     8     5    1
     4    10    12    1
     5    10     6    1
     6     1     6   am
     7     1     5    1
     8    12    13    1
     9     6    15    1
    10     4    21   ar
    11     4    18   ar
    12    21    20   ar
    13    11    16    2
    14    11    17    2
    15    13    16    1
    16    13    14    1
    17    15    14    1
    18    16     7    1
    19    18    17    1
    20    18    19   ar
    21    20    19   ar
    22    17     9    2
    23     7     9    1
