@<TRIPOS>MOLECULE
3tp1_DUP_A_1.pdb
 28 29 0 0 0
SMALL
GASTEIGER

@<TRIPOS>ATOM
      1  O4        -2.2600   59.6070   28.9200 O.2   777  DUP777     -0.2085
      2  C4        -3.1930   59.0380   29.5100 C.1   777  DUP777      0.2182
      3  C5        -4.3850   59.5800   29.9870 C.2   777  DUP777      0.1242
      4  C6        -5.3430   58.8030   30.6660 C.2   777  DUP777      0.0928
      5  N3        -2.9910   57.7280   29.7060 N.2   777  DUP777     -0.2452
      6  C2        -3.8820   56.9180   30.3750 C.1   777  DUP777      0.2844
      7  O2        -3.5640   55.7290   30.4780 O.2   777  DUP777     -0.1918
      8  N1        -5.0760   57.4400   30.8250 N.am  777  DUP777     -0.1790
      9  C1'       -6.0050   56.5540   31.5500 C.3   777  DUP777      0.2090
     10  C2'       -5.8120   56.7820   33.0690 C.3   777  DUP777      0.0874
     11  C3'       -7.0230   57.6070   33.4730 C.3   777  DUP777      0.1857
     12  O3'       -7.4780   57.4390   34.8030 O.3   777  DUP777     -0.2203
     13  O4'       -7.3740   56.8820   31.2430 O.3   777  DUP777     -0.3339
     14  C4'       -8.0640   57.1490   32.4420 C.3   777  DUP777      0.1774
     15  C5'       -9.1960   58.1330   32.1400 C.3   777  DUP777      0.1848
     16  O5'       -8.5910   59.3440   31.6650 O.3   777  DUP777     -0.2775
     17  PA        -9.4870   60.6450   31.3880 P.3   777  DUP777      0.4623
     18  O1A      -10.6360   61.0980   32.4260 O.3   777  DUP777     -0.1255
     19  O2A       -8.5330   61.7140   30.8940 O.2   777  DUP777     -0.2354
     20  N3A      -10.2260   59.9650   30.0900 N.3   777  DUP777     -0.0179
     21  PB       -11.8720   59.9560   29.7220 P.3   777  DUP777      0.4700
     22  O1B      -12.6050   61.1760   30.3210 O.3   777  DUP777     -0.1252
     23  O2B      -11.9450   59.7840   28.2260 O.2   777  DUP777     -0.2350
     24  O3B      -12.3530   58.5540   30.4050 O.3   777  DUP777     -0.1901
     25  PG       -13.3520   58.3730   31.6650 P.3   777  DUP777      0.5397
     26  O2G      -13.0290   59.3090   32.8230 O.3   777  DUP777     -0.1143
     27  O1G      -14.7480   58.7630   31.1850 O.2   777  DUP777     -0.2220
     28  O3G      -13.1590   56.9200   32.1080 O.3   777  DUP777     -0.1143
@<TRIPOS>BOND
     1    23    21    2
     2     1     2    2
     3     2     5    2
     4     2     3    1
     5     5     6    2
     6    21    20    1
     7    21    22    1
     8    21    24    1
     9     3     4    2
    10    20    17    1
    11     6     7    2
    12     6     8   am
    13    24    25    1
    14     4     8    1
    15     8     9    1
    16    19    17    2
    17    27    25    2
    18    13     9    1
    19    13    14    1
    20    17    16    1
    21    17    18    1
    22     9    10    1
    23    25    28    1
    24    25    26    1
    25    16    15    1
    26    15    14    1
    27    14    11    1
    28    10    11    1
    29    11    12    1
