@<TRIPOS>MOLECULE
3tp5_THP_A_1.pdb
 25 26 0 0 0
SMALL
GASTEIGER

@<TRIPOS>ATOM
      1  P2        17.9160   -3.7050  -15.2940 P.3   150  THP150      0.5327
      2  O4P       17.9310   -5.1850  -14.9880 O.2   150  THP150     -0.2224
      3  O5P       16.6300   -2.8870  -14.8120 O.3   150  THP150     -0.1145
      4  O6P       19.2250   -2.9560  -14.7290 O.3   150  THP150     -0.1145
      5  P1        21.1040   -0.2230  -19.5710 P.3   150  THP150      0.5326
      6  O1P       22.1000    0.2740  -20.5460 O.2   150  THP150     -0.2224
      7  O2P       21.7400   -1.1570  -18.4710 O.3   150  THP150     -0.1145
      8  O3P       20.4890    0.8870  -18.6580 O.3   150  THP150     -0.1145
      9  O5'       17.9630   -3.7320  -16.9170 O.3   150  THP150     -0.2675
     10  C5'       17.9670   -2.4740  -17.5730 C.3   150  THP150      0.1857
     11  C4'       18.8790   -2.6200  -18.7930 C.3   150  THP150      0.1748
     12  O4'       18.3420   -3.7430  -19.5160 O.3   150  THP150     -0.3340
     13  C3'       18.8280   -1.3710  -19.7080 C.3   150  THP150      0.1600
     14  O3'       20.0730   -1.1480  -20.3900 O.3   150  THP150     -0.2700
     15  C2'       17.8610   -1.9330  -20.8240 C.3   150  THP150      0.0847
     16  C1'       18.0500   -3.4510  -20.8680 C.3   150  THP150      0.2089
     17  N1        16.7630   -4.0560  -21.2350 N.am  150  THP150     -0.1794
     18  C2        16.5200   -4.2820  -22.5580 C.1   150  THP150      0.2844
     19  O2        17.3840   -4.0500  -23.4430 O.2   150  THP150     -0.1918
     20  N3        15.3050   -4.8020  -22.9390 N.2   150  THP150     -0.2455
     21  C4        14.3060   -4.9770  -22.0520 C.1   150  THP150      0.2134
     22  O4        13.2590   -5.4090  -22.4850 O.2   150  THP150     -0.2088
     23  C5        14.5450   -4.7480  -20.6540 C.2   150  THP150      0.0891
     24  C5M       13.4690   -4.9760  -19.6050 C.3   150  THP150      0.0462
     25  C6        15.7730   -4.2410  -20.2570 C.2   150  THP150      0.0877
@<TRIPOS>BOND
     1    19    18    2
     2    20    18    2
     3    20    21    2
     4    18    17   am
     5    22    21    2
     6    21    23    1
     7    17    16    1
     8    17    25    1
     9    16    15    1
    10    16    12    1
    11    15    13    1
    12    23    25    2
    13    23    24    1
    14     6     5    2
    15    14    13    1
    16    14     5    1
    17    13    11    1
    18     5     8    1
    19     5     7    1
    20    12    11    1
    21    11    10    1
    22    10     9    1
    23     9     1    1
    24     1     2    2
    25     1     3    1
    26     1     4    1
