@<TRIPOS>MOLECULE
3tp6_THP_A_1.pdb
 25 26 0 0 0
SMALL
GASTEIGER

@<TRIPOS>ATOM
      1  P2        17.9540   10.8770    4.6750 P.3   151  THP151      0.5327
      2  O4P       18.0220    9.4420    5.0510 O.2   151  THP151     -0.2224
      3  O5P       16.6980   11.6380    5.3050 O.3   151  THP151     -0.1145
      4  O6P       19.1950   11.6570    5.2690 O.3   151  THP151     -0.1145
      5  P1        21.2180   14.3130    0.8890 P.3   151  THP151      0.5326
      6  O1P       22.1550   14.9570   -0.0600 O.2   151  THP151     -0.2224
      7  O2P       21.9590   13.1640    1.6900 O.3   151  THP151     -0.1145
      8  O3P       20.5540   15.3220    1.9190 O.3   151  THP151     -0.1145
      9  O5'       17.8800   11.0010    3.0710 O.3   151  THP151     -0.2675
     10  C5'       17.9950   12.3300    2.5600 C.3   151  THP151      0.1857
     11  C4'       18.9250   12.1850    1.3400 C.3   151  THP151      0.1748
     12  O4'       18.4830   11.0420    0.6050 O.3   151  THP151     -0.3340
     13  C3'       18.8310   13.4250    0.3890 C.3   151  THP151      0.1600
     14  O3'       20.1310   13.7200   -0.1750 O.3   151  THP151     -0.2700
     15  C2'       17.9380   12.8980   -0.7450 C.3   151  THP151      0.0847
     16  C1'       18.2390   11.3710   -0.7780 C.3   151  THP151      0.2089
     17  N1        16.9620   10.7460   -1.1860 N.am  151  THP151     -0.1794
     18  C2        16.6900   10.5220   -2.5110 C.1   151  THP151      0.2844
     19  O2        17.5090   10.8140   -3.3960 O.2   151  THP151     -0.1918
     20  N3        15.4900   10.0360   -2.9200 N.2   151  THP151     -0.2455
     21  C4        14.5370    9.7060   -2.0030 C.1   151  THP151      0.2134
     22  O4        13.4450    9.3070   -2.4080 O.2   151  THP151     -0.2088
     23  C5        14.7850    9.9770   -0.6180 C.2   151  THP151      0.0891
     24  C5M       13.7560    9.5850    0.4300 C.3   151  THP151      0.0462
     25  C6        16.0130   10.4490   -0.2320 C.2   151  THP151      0.0877
@<TRIPOS>BOND
     1    19    18    2
     2    20    18    2
     3    20    21    2
     4    18    17   am
     5    22    21    2
     6    21    23    1
     7    17    16    1
     8    17    25    1
     9    16    15    1
    10    16    12    1
    11    15    13    1
    12    23    25    2
    13    23    24    1
    14    14    13    1
    15    14     5    1
    16     6     5    2
    17    13    11    1
    18    12    11    1
    19     5     7    1
    20     5     8    1
    21    11    10    1
    22    10     9    1
    23     9     1    1
    24     1     2    2
    25     1     4    1
    26     1     3    1
