@<TRIPOS>MOLECULE
3tp7_THP_A_1.pdb
 25 26 0 0 0
SMALL
GASTEIGER

@<TRIPOS>ATOM
      1  P2        13.1940    5.7610   -4.7000 P.3   151  THP151      0.5327
      2  O4P       11.8790    6.4300   -5.2400 O.2   151  THP151     -0.2224
      3  O5P       14.5010    6.5040   -5.2370 O.3   151  THP151     -0.1145
      4  O6P       13.1860    4.3200   -5.0600 O.3   151  THP151     -0.1145
      5  P1         9.9430    9.1500   -0.8150 P.3   151  THP151      0.5326
      6  O1P       10.5600   10.2020   -1.8480 O.2   151  THP151     -0.2224
      7  O2P        9.2560    7.9810   -1.6580 O.3   151  THP151     -0.1145
      8  O3P        8.9370    9.7450    0.0830 O.3   151  THP151     -0.1145
      9  O5'       13.1430    5.7510   -3.0840 O.3   151  THP151     -0.2675
     10  C5'       13.1690    7.0840   -2.5770 C.3   151  THP151      0.1857
     11  C4'       12.2620    6.9990   -1.3320 C.3   151  THP151      0.1748
     12  O4'       12.6450    5.8180   -0.6320 O.3   151  THP151     -0.3340
     13  C3'       12.3120    8.2140   -0.3470 C.3   151  THP151      0.1600
     14  O3'       11.0240    8.5750    0.2340 O.3   151  THP151     -0.2700
     15  C2'       13.1900    7.6380    0.7980 C.3   151  THP151      0.0847
     16  C1'       12.9300    6.1110    0.7530 C.3   151  THP151      0.2089
     17  N1        14.2230    5.4900    1.1170 N.am  151  THP151     -0.1794
     18  C2        14.4890    5.3190    2.4470 C.1   151  THP151      0.2844
     19  O2        13.6340    5.6300    3.2820 O.2   151  THP151     -0.1918
     20  N3        15.6440    4.7880    2.8880 N.2   151  THP151     -0.2455
     21  C4        16.6370    4.5310    2.0010 C.1   151  THP151      0.2134
     22  O4        17.6690    4.0860    2.4680 O.2   151  THP151     -0.2088
     23  C5        16.4110    4.7030    0.6040 C.2   151  THP151      0.0891
     24  C5M       17.4870    4.4100   -0.4190 C.3   151  THP151      0.0462
     25  C6        15.2010    5.2080    0.1900 C.2   151  THP151      0.0877
@<TRIPOS>BOND
     1     2     1    2
     2     3     1    1
     3     4     1    1
     4     1     9    1
     5     9    10    1
     6    10    11    1
     7     6     5    2
     8     7     5    1
     9    11    12    1
    10    11    13    1
    11     5     8    1
    12     5    14    1
    13    12    16    1
    14    24    23    1
    15    13    14    1
    16    13    15    1
    17    25    23    2
    18    25    17    1
    19    23    21    1
    20    16    15    1
    21    16    17    1
    22    17    18   am
    23    21    22    2
    24    21    20    2
    25    18    20    2
    26    18    19    2
