@<TRIPOS>MOLECULE
3tp8_THP_A_1.pdb
 25 26 0 0 0
SMALL
GASTEIGER

@<TRIPOS>ATOM
      1  P2        18.0390   -7.4440    4.5940 P.3   151  THP151      0.5327
      2  O4P       18.0010   -8.8730    5.0030 O.2   151  THP151     -0.2224
      3  O5P       16.7880   -6.6300    5.0830 O.3   151  THP151     -0.1145
      4  O6P       19.3280   -6.7030    5.1280 O.3   151  THP151     -0.1145
      5  P1        21.2400   -3.9780    0.7300 P.3   151  THP151      0.5326
      6  O1P       22.1950   -3.3520   -0.2470 O.2   151  THP151     -0.2224
      7  O2P       22.0090   -5.1480    1.4440 O.3   151  THP151     -0.1145
      8  O3P       20.6260   -3.0270    1.8110 O.3   151  THP151     -0.1145
      9  O5'       17.9570   -7.4110    3.0260 O.3   151  THP151     -0.2675
     10  C5'       17.9490   -6.1330    2.3480 C.3   151  THP151      0.1857
     11  C4'       18.9550   -6.2600    1.2150 C.3   151  THP151      0.1748
     12  O4'       18.5680   -7.3950    0.4010 O.3   151  THP151     -0.3340
     13  C3'       18.9160   -4.9740    0.2900 C.3   151  THP151      0.1600
     14  O3'       20.2290   -4.6610   -0.3010 O.3   151  THP151     -0.2700
     15  C2'       17.9940   -5.4700   -0.8170 C.3   151  THP151      0.0847
     16  C1'       18.2010   -7.0110   -0.8790 C.3   151  THP151      0.2089
     17  N1        16.9170   -7.6190   -1.3040 N.am  151  THP151     -0.1794
     18  C2        16.6430   -7.8670   -2.5990 C.1   151  THP151      0.2844
     19  O2        17.5250   -7.6100   -3.4910 O.2   151  THP151     -0.1918
     20  N3        15.4580   -8.3750   -3.0520 N.2   151  THP151     -0.2455
     21  C4        14.4170   -8.5980   -2.2120 C.1   151  THP151      0.2134
     22  O4        13.3850   -9.0510   -2.6120 O.2   151  THP151     -0.2088
     23  C5        14.6880   -8.4170   -0.8380 C.2   151  THP151      0.0891
     24  C5M       13.7010   -8.6940    0.3850 C.3   151  THP151      0.0462
     25  C6        15.8980   -7.9020   -0.3950 C.2   151  THP151      0.0877
@<TRIPOS>BOND
     1    19    18    2
     2    20    18    2
     3    20    21    2
     4    22    21    2
     5    18    17   am
     6    21    23    1
     7    17    16    1
     8    17    25    1
     9    16    15    1
    10    16    12    1
    11    23    25    2
    12    23    24    1
    13    15    13    1
    14    14    13    1
    15    14     5    1
    16     6     5    2
    17    13    11    1
    18    12    11    1
    19     5     7    1
    20     5     8    1
    21    11    10    1
    22    10     9    1
    23     9     1    1
    24     1     2    2
    25     1     3    1
    26     1     4    1
