@<TRIPOS>MOLECULE
3tpm_III_B_1.pdb
 37 36 0 0 0
SMALL
GASTEIGER

@<TRIPOS>ATOM
      1  N         -4.1070    5.5650   10.4530 N.3   118  LEU118     -0.1231
      2  CA        -3.5310    6.7020   11.2010 C.3   118  LEU118      0.1693
      3  C         -2.8240    7.7550   10.3230 C.2   118  LEU118      0.2592
      4  O         -1.9910    8.5100   10.8570 O.2   118  LEU118     -0.2718
      5  CB        -2.5450    6.1930   12.2730 C.3   118  LEU118      0.0284
      6  CG        -2.7470    4.8540   12.9960 C.3   118  LEU118      0.0019
      7  CD1       -1.4520    4.0520   12.8650 C.3   118  LEU118      0.0001
      8  CD2       -3.2510    4.9920   14.4470 C.3   118  LEU118      0.0001
      9  N         -3.1230    7.8380    9.0060 N.am  119  LYS119     -0.1966
     10  CA        -2.4770    8.8880    8.1280 C.3   119  LYS119      0.1728
     11  C         -2.9980   10.2570    8.5820 C.2   119  LYS119      0.2616
     12  O         -4.1370   10.3280    9.1050 O.2   119  LYS119     -0.2715
     13  CB        -2.7600    8.7190    6.6210 C.3   119  LYS119      0.0311
     14  CG        -2.5990    7.3310    6.0350 C.3   119  LYS119      0.0038
     15  CD        -1.2260    7.1060    5.4520 C.3   119  LYS119      0.0206
     16  CE        -1.2970    6.2140    4.2280 C.3   119  LYS119      0.1093
     17  NZ         0.0560    5.9640    3.6720 N.3   119  LYS119     -0.1314
     18  N         -2.1940   11.3150    8.4220 N.am  120  ARG120     -0.1963
     19  CA        -2.5310   12.6840    8.9250 C.3   120  ARG120      0.1729
     20  C         -2.3030   13.7950    7.8450 C.2   120  ARG120      0.2616
     21  O         -1.1360   14.1910    7.6190 O.2   120  ARG120     -0.2715
     22  CB        -1.7040   13.0290   10.1660 C.3   120  ARG120      0.0348
     23  CG        -2.0640   12.3480   11.4640 C.3   120  ARG120      0.0492
     24  CD        -1.1850   12.8610   12.5810 C.3   120  ARG120      0.2205
     25  NE         0.1830   12.7930   12.1110 N.pl3 120  ARG120     -0.0865
     26  CZ         1.0800   13.7740   12.1480 C.cat 120  ARG120      0.5346
     27  NH1        0.8320   14.9390   12.7350 N.pl3 120  ARG120      0.1354
     28  NH2        2.2700   13.5570   11.6300 N.pl3 120  ARG120      0.1354
     29  N         -3.4070   14.3010    7.2350 N.am  121  LYS121     -0.1977
     30  CA        -3.4000   15.2140    6.0340 C.3   121  LYS121      0.1596
     31  C         -3.0190   16.6950    6.2400 C.2   121  LYS121      0.2287
     32  O         -2.8660   17.1590    7.3790 O.2   121  LYS121     -0.2864
     33  CB        -4.7380   15.1200    5.2870 C.3   121  LYS121      0.0298
     34  CG        -5.0440   13.7240    4.7900 C.3   121  LYS121      0.0038
     35  CD        -6.2940   13.6070    3.9420 C.3   121  LYS121      0.0206
     36  CE        -6.1660   12.4160    2.9830 C.3   121  LYS121      0.1093
     37  NZ        -5.3090   12.7600    1.8620 N.3   121  LYS121     -0.1314
@<TRIPOS>BOND
     1    37    36    1
     2    36    35    1
     3    17    16    1
     4    35    34    1
     5    16    15    1
     6    34    33    1
     7    33    30    1
     8    15    14    1
     9    30    31    1
    10    30    29    1
    11    14    13    1
    12    31    32    2
    13    13    10    1
    14    29    20   am
    15    21    20    2
    16    20    19    1
    17    10    11    1
    18    10     9    1
    19    18    11   am
    20    18    19    1
    21    11    12    2
    22    19    22    1
    23     9     3   am
    24    22    23    1
    25     3     4    2
    26     3     2    1
    27     1     2    1
    28     2     5    1
    29    23    24    1
    30    28    26    1
    31    25    26    2
    32    25    24    1
    33    26    27    1
    34     5     6    1
    35     7     6    1
    36     6     8    1
