@<TRIPOS>MOLECULE
3tpn_DUP_A_1.pdb
 28 29 0 0 0
SMALL
GASTEIGER

@<TRIPOS>ATOM
      1  O4        -2.4660   59.4930   29.1870 O.2   777  DUP777     -0.2085
      2  C4        -3.3040   58.8120   29.7650 C.1   777  DUP777      0.2182
      3  C5        -4.5470   59.3120   30.2140 C.2   777  DUP777      0.1242
      4  C6        -5.3970   58.4400   30.8690 C.2   777  DUP777      0.0928
      5  N3        -2.9330   57.5020   29.9770 N.2   777  DUP777     -0.2452
      6  C2        -3.7850   56.6700   30.6390 C.1   777  DUP777      0.2844
      7  O2        -3.4620   55.4740   30.8050 O.2   777  DUP777     -0.1918
      8  N1        -4.9810   57.1330   31.0830 N.am  777  DUP777     -0.1790
      9  C1'       -5.9200   56.2250   31.7960 C.3   777  DUP777      0.2090
     10  C2'       -5.7660   56.3690   33.3450 C.3   777  DUP777      0.0874
     11  C3'       -6.8930   57.2950   33.7290 C.3   777  DUP777      0.1857
     12  O3'       -7.3270   57.0400   35.0570 O.3   777  DUP777     -0.2203
     13  O4'       -7.2630   56.6190   31.4990 O.3   777  DUP777     -0.3339
     14  C4'       -7.9620   56.8460   32.7270 C.3   777  DUP777      0.1774
     15  C5'       -9.1550   57.7690   32.4210 C.3   777  DUP777      0.1848
     16  O5'       -8.6000   59.0290   32.0690 O.3   777  DUP777     -0.2775
     17  PA        -9.5440   60.2370   31.6550 P.3   777  DUP777      0.4623
     18  O1A       -8.6330   61.2910   31.1420 O.2   777  DUP777     -0.2354
     19  O2A      -10.5770   60.5690   32.6580 O.3   777  DUP777     -0.1255
     20  N3A      -10.2950   59.5500   30.3300 N.3   777  DUP777     -0.0179
     21  PB       -11.8930   59.4950   30.0000 P.3   777  DUP777      0.4700
     22  O1B      -12.0740   59.3690   28.4960 O.2   777  DUP777     -0.2350
     23  O2B      -12.6240   60.5880   30.6870 O.3   777  DUP777     -0.1252
     24  O3B      -12.4180   58.0990   30.6120 O.3   777  DUP777     -0.1901
     25  PG       -13.3140   57.8140   31.9030 P.3   777  DUP777      0.5397
     26  O2G      -14.6720   58.1050   31.3780 O.2   777  DUP777     -0.2220
     27  O1G      -13.0150   58.8230   33.0150 O.3   777  DUP777     -0.1143
     28  O3G      -12.9980   56.3750   32.3020 O.3   777  DUP777     -0.1143
@<TRIPOS>BOND
     1    22    21    2
     2     1     2    2
     3     2     5    2
     4     2     3    1
     5     5     6    2
     6    21    20    1
     7    21    24    1
     8    21    23    1
     9     3     4    2
    10    20    17    1
    11    24    25    1
    12     6     7    2
    13     6     8   am
    14     4     8    1
    15     8     9    1
    16    18    17    2
    17    26    25    2
    18    13     9    1
    19    13    14    1
    20    17    16    1
    21    17    19    1
    22     9    10    1
    23    25    28    1
    24    25    27    1
    25    16    15    1
    26    15    14    1
    27    14    11    1
    28    10    11    1
    29    11    12    1
