@<TRIPOS>MOLECULE
3tpp_5HA_A_1.pdb
 41 44 0 0 0
SMALL
GASTEIGER

@<TRIPOS>ATOM
      1  C1        26.3450   36.1600    2.4520 C.3   999  5HA999      0.0188
      2  C2        27.6890   35.5430    2.2710 C.3   999  5HA999      0.0730
      3  C3        26.7370   34.7200    3.0660 C.3   999  5HA999      0.0188
      4  N1        28.7400   36.1130    3.0810 N.3   999  5HA999     -0.2167
      5  C4        29.4950   37.0920    2.2420 C.3   999  5HA999      0.1232
      6  C5        30.8220   37.4050    2.9060 C.3   999  5HA999      0.1894
      7  C6        31.5150   38.3460    1.9300 C.3   999  5HA999      0.1316
      8  N2        31.0010   39.7030    1.7940 N.am  999  5HA999     -0.2004
      9  C7        30.1900   40.0840    0.7690 C.2   999  5HA999      0.2649
     10  O2        29.9240   39.3110   -0.1310 O.2   999  5HA999     -0.2684
     11  O3        31.5100   36.1420    3.0210 O.3   999  5HA999     -0.2197
     12  C8        33.0390   38.5410    2.3710 C.3   999  5HA999      0.0507
     13  C9        29.7870   41.5160    0.8260 C.ar  999  5HA999      0.0565
     14  C10       30.7350   42.4270    1.3270 C.ar  999  5HA999      0.0092
     15  C11       30.3550   43.7710    1.4300 C.ar  999  5HA999      0.0565
     16  C12       29.0860   44.2090    0.9470 C.ar  999  5HA999      0.0207
     17  C13       28.1500   43.2680    0.5480 C.ar  999  5HA999      0.0688
     18  C14       28.4700   41.9470    0.4230 C.ar  999  5HA999      0.0207
     19  C15       31.3150   44.8100    1.9260 C.2   999  5HA999      0.2651
     20  N3        26.8170   43.5970    0.1170 N.pl3 999  5HA999     -0.1925
     21  O4        31.4640   45.9420    1.4200 O.2   999  5HA999     -0.2684
     22  C16       26.1550   42.8100   -0.9810 C.3   999  5HA999      0.1388
     23  S1        25.9860   44.7960    0.7960 S.O2  999  5HA999      0.0588
     24  C23       26.3030   46.2370   -0.1690 C.3   999  5HA999      0.1999
     25  O5        24.5950   44.4440    0.7080 O.2   999  5HA999     -0.1542
     26  O6        26.5450   45.0600    2.1220 O.2   999  5HA999     -0.1542
     27  C24       33.5910   39.7890    0.2230 C.ar  999  5HA999     -0.0042
     28  C25       34.2860   40.7690   -0.4490 C.ar  999  5HA999     -0.0003
     29  C26       35.1450   41.6850    0.2020 C.ar  999  5HA999     -0.0000
     30  C27       35.3230   41.5390    1.5960 C.ar  999  5HA999     -0.0003
     31  C28       34.5870   40.5130    2.2660 C.ar  999  5HA999     -0.0042
     32  C29       33.7960   39.6420    1.5800 C.ar  999  5HA999     -0.0204
     33  N4        32.0780   44.3060    2.9780 N.am  999  5HA999     -0.1989
     34  C17       33.0830   45.1870    3.5950 C.3   999  5HA999      0.1178
     35  C18       34.4230   44.4130    3.7510 C.3   999  5HA999      0.0283
     36  C30       32.6190   45.5730    4.9960 C.ar  999  5HA999     -0.0026
     37  C31       32.1930   44.5870    5.9230 C.ar  999  5HA999     -0.0026
     38  C32       31.7960   45.0120    7.2010 C.ar  999  5HA999     -0.0003
     39  C33       31.6650   46.3500    7.5640 C.ar  999  5HA999     -0.0000
     40  C34       32.0410   47.2890    6.6000 C.ar  999  5HA999     -0.0003
     41  C35       32.4990   46.8990    5.3430 C.ar  999  5HA999     -0.0026
@<TRIPOS>BOND
     1    22    20    1
     2    28    29   ar
     3    28    27   ar
     4    24    23    1
     5    10     9    2
     6    20    17    1
     7    20    23    1
     8    29    30   ar
     9    27    32   ar
    10    18    17   ar
    11    18    13   ar
    12    17    16   ar
    13    25    23    2
    14     9    13    1
    15     9     8   am
    16    23    26    2
    17    13    14   ar
    18    16    15   ar
    19    14    15   ar
    20    21    19    2
    21    15    19    1
    22    32    31   ar
    23    32    12    1
    24    30    31   ar
    25     8     7    1
    26    19    33   am
    27     7    12    1
    28     7     6    1
    29     5     6    1
    30     5     4    1
    31     2     1    1
    32     2     3    1
    33     2     4    1
    34     1     3    1
    35     6    11    1
    36    33    34    1
    37    34    35    1
    38    34    36    1
    39    36    41   ar
    40    36    37   ar
    41    41    40   ar
    42    37    38   ar
    43    40    39   ar
    44    38    39   ar
