@<TRIPOS>MOLECULE
3tpq_ATP_A_1.pdb
 31 33 0 0 0
SMALL
GASTEIGER

@<TRIPOS>ATOM
      1  PG         8.0360  -65.0650   15.7640 P.3   1377  ATP1377     0.5373
      2  O1G        8.2440  -64.2460   14.4890 O.2   1377  ATP1377    -0.2221
      3  O2G        9.0780  -64.9770   16.8490 O.3   1377  ATP1377    -0.1143
      4  O3G        7.6860  -66.4770   15.3860 O.3   1377  ATP1377    -0.1143
      5  PB         5.4890  -63.6860   15.9880 P.3   1377  ATP1377     0.2277
      6  O1B        5.5480  -63.3980   14.4990 O.2   1377  ATP1377    -0.5168
      7  O2B        4.1900  -64.3530   16.3250 O.3   1377  ATP1377    -0.4368
      8  O3B        6.7560  -64.5070   16.5760 O.3   1377  ATP1377    -0.2258
      9  PA         5.1670  -60.9670   16.4980 P.3   1377  ATP1377     0.2189
     10  O1A        3.6920  -60.9880   16.0960 O.3   1377  ATP1377    -0.4371
     11  O2A        6.1340  -60.3210   15.5280 O.2   1377  ATP1377    -0.5170
     12  O3A        5.7820  -62.3940   16.9100 O.3   1377  ATP1377    -0.2700
     13  O5'        5.4020  -60.1420   17.8530 O.3   1377  ATP1377    -0.3112
     14  C5'        4.9440  -60.5780   19.1400 C.3   1377  ATP1377     0.1813
     15  C4'        5.9380  -60.2030   20.2570 C.3   1377  ATP1377     0.1821
     16  O4'        6.1740  -58.7930   20.2140 O.3   1377  ATP1377    -0.3135
     17  C3'        5.4810  -60.4690   21.6950 C.3   1377  ATP1377     0.2184
     18  O3'        6.5970  -60.9360   22.4690 O.3   1377  ATP1377    -0.2174
     19  C2'        4.9920  -59.1060   22.1860 C.3   1377  ATP1377     0.2570
     20  O2'        5.0270  -58.8810   23.6040 O.3   1377  ATP1377    -0.2130
     21  C1'        6.0010  -58.2260   21.5080 C.3   1377  ATP1377     0.3186
     22  N9         5.4660  -56.8720   21.4150 N.pl3 1377  ATP1377    -0.1439
     23  C8         4.3150  -56.4730   20.8240 C.3   1377  ATP1377     0.3377
     24  N7         4.1930  -55.1210   20.9530 N.2   1377  ATP1377    -0.2095
     25  C5         5.2790  -54.6890   21.6360 C.2   1377  ATP1377     0.2526
     26  C6         5.7700  -53.3900   22.1260 C.2   1377  ATP1377     0.4393
     27  N6         5.0060  -52.2930   21.8620 N.pl3 1377  ATP1377     0.2180
     28  N1         6.9660  -53.3750   22.8090 N.2   1377  ATP1377     0.0021
     29  C2         7.6900  -54.4950   23.0550 C.3   1377  ATP1377     0.5254
     30  N3         7.3080  -55.7120   22.6290 N.2   1377  ATP1377    -0.0055
     31  C4         6.1310  -55.8510   21.9430 C.2   1377  ATP1377     0.3518
@<TRIPOS>BOND
     1     2     1    2
     2     6     5    2
     3     4     1    1
     4    11     9    2
     5     1     8    1
     6     1     3    1
     7     5     7    1
     8     5     8    1
     9     5    12    1
    10    10     9    1
    11     9    12    1
    12     9    13    1
    13    13    14    1
    14    14    15    1
    15    16    15    1
    16    16    21    1
    17    15    17    1
    18    23    24    1
    19    23    22    1
    20    24    25    2
    21    22    21    1
    22    22    31    1
    23    21    19    1
    24    25    31    1
    25    25    26    1
    26    17    19    1
    27    17    18    1
    28    27    26    1
    29    31    30    2
    30    26    28    2
    31    19    20    1
    32    30    29    1
    33    28    29    1
