@<TRIPOS>MOLECULE
3tpr_5HA_A_1.pdb
 41 44 0 0 0
SMALL
GASTEIGER

@<TRIPOS>ATOM
      1  C1        62.4840   47.5100    8.8550 C.3   400  5HA400      0.0188
      2  C2        63.9690   47.2340    8.8690 C.3   400  5HA400      0.0730
      3  C3        63.2960   47.9270   10.0700 C.3   400  5HA400      0.0188
      4  N1        64.7250   48.1590    7.9970 N.3   400  5HA400     -0.2167
      5  C4        66.1490   47.9030    8.1500 C.3   400  5HA400      0.1232
      6  C5        66.9020   49.0400    7.4850 C.3   400  5HA400      0.1894
      7  C6        68.3160   48.9290    7.9120 C.3   400  5HA400      0.1316
      8  N2        68.9510   47.6670    7.4500 N.am  400  5HA400     -0.2004
      9  C7        69.0490   46.6130    8.2860 C.2   400  5HA400      0.2649
     10  O2        68.4160   46.5130    9.3430 O.2   400  5HA400     -0.2684
     11  O3        66.4040   50.3210    7.8760 O.3   400  5HA400     -0.2197
     12  C8        69.1060   50.0840    7.3980 C.3   400  5HA400      0.0507
     13  C9        69.7340   45.3860    7.6610 C.ar  400  5HA400      0.0565
     14  C10       70.8140   45.5120    6.7860 C.ar  400  5HA400      0.0092
     15  C11       71.3810   44.3950    6.1890 C.ar  400  5HA400      0.0565
     16  C12       70.8670   43.1050    6.4020 C.ar  400  5HA400      0.0207
     17  C13       69.7930   42.9850    7.3240 C.ar  400  5HA400      0.0688
     18  C14       69.2210   44.1290    7.9310 C.ar  400  5HA400      0.0207
     19  C15       72.4900   44.6600    5.2300 C.2   400  5HA400      0.2651
     20  N3        69.1290   41.8320    7.5980 N.pl3 400  5HA400     -0.1925
     21  O4        73.2230   43.8380    4.7480 O.2   400  5HA400     -0.2684
     22  C16       68.8930   41.4820    9.0270 C.3   400  5HA400      0.1388
     23  S1        69.4040   40.4940    6.6800 S.O2  400  5HA400      0.0588
     24  C23       70.8840   39.6150    7.2220 C.3   400  5HA400      0.1999
     25  O5        68.1800   39.6600    7.0080 O.2   400  5HA400     -0.1542
     26  O6        69.6080   40.7220    5.1880 O.2   400  5HA400     -0.1542
     27  C24       71.1640   49.8310    8.9030 C.ar  400  5HA400     -0.0042
     28  C25       72.5400   49.6690    9.0700 C.ar  400  5HA400     -0.0003
     29  C26       73.4090   49.5370    8.0020 C.ar  400  5HA400     -0.0000
     30  C27       72.8550   49.5970    6.7460 C.ar  400  5HA400     -0.0003
     31  C28       71.4890   49.7530    6.5610 C.ar  400  5HA400     -0.0042
     32  C29       70.6300   49.8740    7.6230 C.ar  400  5HA400     -0.0204
     33  N4        72.4590   45.8200    4.6560 N.am  400  5HA400     -0.1989
     34  C17       73.5010   46.0490    3.7000 C.3   400  5HA400      0.1178
     35  C18       74.1180   47.3720    4.1460 C.3   400  5HA400      0.0283
     36  C30       72.9050   46.0870    2.2980 C.ar  400  5HA400     -0.0026
     37  C31       71.7060   46.7360    2.0440 C.ar  400  5HA400     -0.0026
     38  C32       71.2190   46.7490    0.7050 C.ar  400  5HA400     -0.0003
     39  C33       71.8930   46.1320   -0.3330 C.ar  400  5HA400     -0.0000
     40  C34       73.0930   45.4900   -0.0540 C.ar  400  5HA400     -0.0003
     41  C35       73.6030   45.4760    1.2530 C.ar  400  5HA400     -0.0026
@<TRIPOS>BOND
     1    39    40   ar
     2    39    38   ar
     3    40    41   ar
     4    38    37   ar
     5    41    36   ar
     6    37    36   ar
     7    36    34    1
     8    34    35    1
     9    34    33    1
    10    33    19   am
    11    21    19    2
    12    26    23    2
    13    19    15    1
    14    15    16   ar
    15    15    14   ar
    16    16    17   ar
    17    31    30   ar
    18    31    32   ar
    19    23    25    2
    20    23    24    1
    21    23    20    1
    22    30    29   ar
    23    14    13   ar
    24    17    20    1
    25    17    18   ar
    26    12    32    1
    27    12     7    1
    28     8     7    1
    29     8     9   am
    30     6    11    1
    31     6     7    1
    32     6     5    1
    33    20    22    1
    34    32    27   ar
    35    13    18   ar
    36    13     9    1
    37     4     5    1
    38     4     2    1
    39    29    28   ar
    40     9    10    2
    41     1     2    1
    42     1     3    1
    43     2     3    1
    44    27    28   ar
