@<TRIPOS>MOLECULE
3tps_DUP_A_1.pdb
 28 29 0 0 0
SMALL
GASTEIGER

@<TRIPOS>ATOM
      1  O4        10.0950   73.1510   29.1010 O.2   777  DUP777     -0.2085
      2  C4        11.1240   72.7990   29.7250 C.1   777  DUP777      0.2182
      3  C5        11.3150   71.4730   30.1770 C.2   777  DUP777      0.1242
      4  C6        12.5100   71.1750   30.8540 C.2   777  DUP777      0.0928
      5  N3        12.1110   73.7250   29.8920 N.2   777  DUP777     -0.2452
      6  C2        13.2930   73.4310   30.5710 C.1   777  DUP777      0.2844
      7  O2        14.1160   74.3330   30.7210 O.2   777  DUP777     -0.1918
      8  N1        13.4910   72.1500   31.0260 N.am  777  DUP777     -0.1790
      9  C1'       14.7050   71.7540   31.7680 C.3   777  DUP777      0.2090
     10  C2'       14.4270   71.7610   33.2970 C.3   777  DUP777      0.0874
     11  C3'       14.2550   70.2820   33.5850 C.3   777  DUP777      0.1857
     12  O3'       14.6300   69.9940   34.9110 O.3   777  DUP777     -0.2203
     13  O4'       15.1310   70.4340   31.4180 O.3   777  DUP777     -0.3339
     14  C4'       15.2280   69.6680   32.6130 C.3   777  DUP777      0.1774
     15  C5'       14.9570   68.1960   32.3320 C.3   777  DUP777      0.1848
     16  O5'       13.7140   68.0750   31.6800 O.3   777  DUP777     -0.2775
     17  PA        12.9150   66.7120   31.6030 P.3   777  DUP777      0.4623
     18  O1A       13.2280   65.6570   32.5470 O.3   777  DUP777     -0.1255
     19  O2A       11.5680   66.9070   31.1000 O.2   777  DUP777     -0.2354
     20  N3A       13.8290   66.3000   30.3490 N.3   777  DUP777     -0.0179
     21  PB        14.6750   64.8840   29.9010 P.3   777  DUP777      0.4700
     22  O1B       14.0930   63.6850   30.6250 O.3   777  DUP777     -0.1252
     23  O2B       14.8390   64.7750   28.4070 O.2   777  DUP777     -0.2350
     24  O3B       16.1780   65.0740   30.4570 O.3   777  DUP777     -0.1901
     25  PG        16.7950   64.4230   31.8300 P.3   777  DUP777      0.5397
     26  O2G       15.7860   64.3540   32.9750 O.3   777  DUP777     -0.1143
     27  O1G       17.2230   63.0040   31.5000 O.2   777  DUP777     -0.2220
     28  O3G       17.9680   65.3320   32.1770 O.3   777  DUP777     -0.1143
@<TRIPOS>BOND
     1    23    21    2
     2     1     2    2
     3     2     5    2
     4     2     3    1
     5     5     6    2
     6    21    20    1
     7    21    24    1
     8    21    22    1
     9     3     4    2
    10    20    17    1
    11    24    25    1
    12     6     7    2
    13     6     8   am
    14     4     8    1
    15     8     9    1
    16    19    17    2
    17    13     9    1
    18    13    14    1
    19    27    25    2
    20    17    16    1
    21    17    18    1
    22    16    15    1
    23     9    10    1
    24    25    28    1
    25    25    26    1
    26    15    14    1
    27    14    11    1
    28    10    11    1
    29    11    12    1
