@<TRIPOS>MOLECULE
3tpt_ADP_A_1.pdb
 27 29 0 0 0
SMALL
GASTEIGER

@<TRIPOS>ATOM
      1  PB        -2.0100    5.8740   16.2930 P.3   500  ADP500      0.5373
      2  O1B       -0.6340    5.7070   15.8420 O.3   500  ADP500     -0.1143
      3  O2B       -2.6600    6.6930   17.3110 O.3   500  ADP500     -0.1143
      4  O3B       -3.0740    4.9300   15.4480 O.2   500  ADP500     -0.2221
      5  PA        -2.3010    3.7880   18.5410 P.3   500  ADP500      0.2231
      6  O1A       -2.6070    4.5120   19.8090 O.3   500  ADP500     -0.4370
      7  O2A       -3.4190    3.0770   17.8980 O.2   500  ADP500     -0.5169
      8  O3A       -1.6330    4.6940   17.3190 O.3   500  ADP500     -0.2261
      9  O5'       -1.1010    2.8370   18.9000 O.3   500  ADP500     -0.3111
     10  C5'       -0.5120    1.9790   17.8960 C.3   500  ADP500      0.1813
     11  C4'       -0.6810    0.4840   18.1280 C.3   500  ADP500      0.1821
     12  O4'       -0.0280    0.0370   19.3730 O.3   500  ADP500     -0.3135
     13  C3'       -2.1160   -0.1230   18.2240 C.3   500  ADP500      0.2184
     14  O3'       -2.6180   -0.5090   16.9170 O.3   500  ADP500     -0.2174
     15  C2'       -1.9400   -1.2340   19.2140 C.3   500  ADP500      0.2570
     16  O2'       -1.5350   -2.4550   18.5390 O.3   500  ADP500     -0.2130
     17  C1'       -0.8710   -0.8140   20.1770 C.3   500  ADP500      0.3186
     18  N9        -1.2390   -0.0600   21.4360 N.pl3 500  ADP500     -0.1439
     19  C8        -1.7660    1.2120   21.6570 C.3   500  ADP500      0.3377
     20  N7        -1.9470    1.5280   22.9140 N.2   500  ADP500     -0.2095
     21  C5        -1.5080    0.3860   23.5660 C.2   500  ADP500      0.2526
     22  C6        -1.4100    0.0070   24.9670 C.2   500  ADP500      0.4393
     23  N6        -1.7910    0.8530   25.9410 N.pl3 500  ADP500      0.2180
     24  N1        -0.9080   -1.2590   25.3000 N.2   500  ADP500      0.0021
     25  C2        -0.5140   -2.1400   24.3240 C.3   500  ADP500      0.5254
     26  N3        -0.5570   -1.9010   22.9620 N.2   500  ADP500     -0.0055
     27  C4        -1.0730   -0.6010   22.6600 C.2   500  ADP500      0.3518
@<TRIPOS>BOND
     1     4     1    2
     2     2     1    1
     3     1     3    1
     4     1     8    1
     5    14    13    1
     6     8     5    1
     7    10    11    1
     8    10     9    1
     9     7     5    2
    10    11    13    1
    11    11    12    1
    12    13    15    1
    13    16    15    1
    14     5     9    1
    15     5     6    1
    16    15    17    1
    17    12    17    1
    18    17    18    1
    19    18    19    1
    20    18    27    1
    21    19    20    1
    22    27    26    2
    23    27    21    1
    24    20    21    2
    25    26    25    1
    26    21    22    1
    27    25    24    1
    28    22    24    2
    29    22    23    1
