@<TRIPOS>MOLECULE
3tpv_ADE_B_1.pdb
 10 11 0 0 0
SMALL
GASTEIGER

@<TRIPOS>ATOM
      1  N9       -36.3420   35.8750    4.5310 N.2   500  ADE500     -0.1914
      2  C8       -36.2240   34.4990    4.2510 C.3   500  ADE500      0.2618
      3  N7       -35.3170   33.8730    4.9670 N.2   500  ADE500     -0.2267
      4  C5       -34.8190   34.8990    5.7820 C.2   500  ADE500      0.2303
      5  C6       -33.8460   34.9350    6.8310 C.2   500  ADE500      0.4393
      6  N6       -33.1760   33.8220    7.1640 N.pl3 500  ADE500      0.2185
      7  N1       -33.5850   36.1470    7.4820 N.2   500  ADE500     -0.0265
      8  C2       -34.2740   37.2860    7.1560 C.3   500  ADE500      0.4008
      9  N3       -35.2340   37.3750    6.1690 N.2   500  ADE500     -0.1640
     10  C4       -35.5100   36.1190    5.5720 C.1   500  ADE500      0.0579
@<TRIPOS>BOND
     1     2     1    1
     2     2     3    1
     3     1    10    2
     4     3     4    2
     5    10     4    1
     6    10     9    2
     7     4     5    1
     8     9     8    1
     9     5     6    1
    10     5     7    2
    11     8     7    1
