@<TRIPOS>MOLECULE
3tpw_DUP_A_1.pdb
 28 29 0 0 0
SMALL
GASTEIGER

@<TRIPOS>ATOM
      1  O4        -2.4880   59.7760   28.8660 O.2   777  DUP777     -0.2085
      2  C4        -3.3100   59.0870   29.4510 C.1   777  DUP777      0.2182
      3  C5        -4.5080   59.5920   29.8950 C.2   777  DUP777      0.1242
      4  C6        -5.3900   58.7460   30.5360 C.2   777  DUP777      0.0928
      5  N3        -3.0200   57.7690   29.6140 N.2   777  DUP777     -0.2452
      6  C2        -3.8590   56.9380   30.3070 C.1   777  DUP777      0.2844
      7  O2        -3.5720   55.7460   30.4680 O.2   777  DUP777     -0.1918
      8  N1        -5.0530   57.4270   30.7550 N.am  777  DUP777     -0.1790
      9  C1'       -5.9830   56.5490   31.4790 C.3   777  DUP777      0.2090
     10  C2'       -5.8430   56.7710   32.9990 C.3   777  DUP777      0.0874
     11  C3'       -7.0660   57.6270   33.2970 C.3   777  DUP777      0.1857
     12  O3'       -7.5040   57.4540   34.6410 O.3   777  DUP777     -0.2203
     13  O4'       -7.3390   56.8740   31.1150 O.3   777  DUP777     -0.3339
     14  C4'       -8.0830   57.1100   32.3070 C.3   777  DUP777      0.1774
     15  C5'       -9.2080   58.1210   32.0200 C.3   777  DUP777      0.1848
     16  O5'       -8.5860   59.2470   31.4660 O.3   777  DUP777     -0.2775
     17  PA        -9.2990   60.6320   31.2860 P.3   777  DUP777      0.4623
     18  O1A      -10.4690   60.8000   31.9380 O.3   777  DUP777     -0.1255
     19  O2A       -8.4530   61.7120   30.6630 O.2   777  DUP777     -0.2354
     20  N3A      -10.2850   60.1320   30.1580 N.3   777  DUP777     -0.0179
     21  PB       -11.8830   60.0500   29.6590 P.3   777  DUP777      0.4700
     22  O1B      -12.6510   61.1350   30.3950 O.3   777  DUP777     -0.1252
     23  O2B      -11.9900   60.1610   28.1680 O.2   777  DUP777     -0.2350
     24  O3B      -12.3920   58.6260   30.2470 O.3   777  DUP777     -0.1901
     25  PG       -13.2840   58.5140   31.6050 P.3   777  DUP777      0.5397
     26  O2G      -12.6500   59.3650   32.6870 O.3   777  DUP777     -0.1143
     27  O1G      -14.6750   59.0420   31.2610 O.2   777  DUP777     -0.2220
     28  O3G      -13.2350   57.0400   32.0010 O.3   777  DUP777     -0.1143
@<TRIPOS>BOND
     1    23    21    2
     2     1     2    2
     3     2     5    2
     4     2     3    1
     5     5     6    2
     6    21    20    1
     7    21    24    1
     8    21    22    1
     9     3     4    2
    10    20    17    1
    11    24    25    1
    12     6     7    2
    13     6     8   am
    14     4     8    1
    15    19    17    2
    16     8     9    1
    17    13     9    1
    18    13    14    1
    19    27    25    2
    20    17    16    1
    21    17    18    1
    22    16    15    1
    23     9    10    1
    24    25    28    1
    25    25    26    1
    26    15    14    1
    27    14    11    1
    28    10    11    1
    29    11    12    1
