@<TRIPOS>MOLECULE
3tpx_DTR_B_1.pdb
 14 15 0 0 0
SMALL
GASTEIGER

@<TRIPOS>ATOM
      1  N         32.8780  -50.9340   -4.6800 N.3     3  DTR3       -0.1241
      2  CA        32.9550  -50.4840   -3.3060 C.3     3  DTR3        0.1605
      3  CB        32.4530  -51.5170   -2.2800 C.3     3  DTR3        0.0550
      4  CG        30.9140  -51.7180   -2.3280 C.2     3  DTR3       -0.0000
      5  CD1       30.3240  -52.6750   -3.0520 C.2     3  DTR3        0.0942
      6  NE1       28.9640  -52.5750   -2.8450 N.2     3  DTR3       -0.2482
      7  CE2       28.6970  -51.5630   -2.0050 C.2     3  DTR3        0.0631
      8  CZ2       27.4860  -51.0840   -1.4800 C.3     3  DTR3        0.0717
      9  CH2       27.4870  -49.9790   -0.6040 C.2     3  DTR3       -0.0198
     10  CZ3       28.7580  -49.3970   -0.2450 C.2     3  DTR3       -0.0042
     11  CE3       29.9570  -49.9130   -0.7480 C.2     3  DTR3        0.0006
     12  CD2       29.9500  -50.9940   -1.6470 C.2     3  DTR3        0.0115
     13  C         32.2030  -49.1590   -3.1670 C.2     3  DTR3        0.2264
     14  O         32.5190  -48.3520   -2.3030 O.2     3  DTR3       -0.2867
@<TRIPOS>BOND
     1     1     2    1
     2     2    13    1
     3     2     3    1
     4    13    14    2
     5     5     6    1
     6     5     4    2
     7     6     7    2
     8     4     3    1
     9     4    12    1
    10     7    12    1
    11     7     8    1
    12    12    11    2
    13     8     9    1
    14    11    10    1
    15     9    10    2
