@<TRIPOS>MOLECULE
3tpx_TDF_B_1.pdb
 15 15 0 0 0
SMALL
GASTEIGER

@<TRIPOS>ATOM
      1  C         27.7480  -43.2140   -2.6760 C.2     7  TDF7        0.2264
      2  N         30.1250  -43.7730   -2.3090 N.3     7  TDF7       -0.1241
      3  O         26.9010  -42.4330   -2.2580 O.2     7  TDF7       -0.2867
      4  CA        28.7730  -43.7530   -1.6560 C.3     7  TDF7        0.1605
      5  CB        28.4640  -45.1850   -1.2400 C.3     7  TDF7        0.0534
      6  CG        27.1360  -45.3840   -0.4850 C.ar    7  TDF7       -0.0203
      7  CZ        24.7170  -45.8590    0.8700 C.ar    7  TDF7        0.0714
      8  C13       23.4770  -46.0700    1.6480 C.3     7  TDF7        0.4186
      9  F19       23.6750  -46.8700    2.7090 F       7  TDF7       -0.1659
     10  F20       23.0290  -44.9810    2.1520 F       7  TDF7       -0.1659
     11  F21       22.5080  -46.7010    0.9420 F       7  TDF7       -0.1659
     12  CD1       26.1530  -46.2220   -1.0840 C.ar    7  TDF7       -0.0043
     13  CD2       26.9390  -44.7980    0.7580 C.ar    7  TDF7       -0.0043
     14  CE1       24.9200  -46.4520   -0.4090 C.ar    7  TDF7        0.0035
     15  CE2       25.7330  -45.0140    1.4710 C.ar    7  TDF7        0.0035
@<TRIPOS>BOND
     1     1     3    2
     2     1     4    1
     3     2     4    1
     4     4     5    1
     5     5     6    1
     6    12     6   ar
     7    12    14   ar
     8     6    13   ar
     9    14     7   ar
    10    13    15   ar
    11     7    15   ar
    12     7     8    1
    13    11     8    1
    14     8    10    1
    15     8     9    1
