@<TRIPOS>MOLECULE
3tpx_DTY_B_1.pdb
 12 12 0 0 0
SMALL
GASTEIGER

@<TRIPOS>ATOM
      1  N         31.0470  -49.0230   -4.0590 N.3     4  DTY4       -0.1241
      2  CA        30.0430  -48.0080   -3.6590 C.3     4  DTY4        0.1605
      3  C         30.2610  -46.7280   -4.4740 C.2     4  DTY4        0.2264
      4  O         29.4060  -45.7890   -4.4950 O.2     4  DTY4       -0.2867
      5  CB        28.6960  -48.6030   -3.9840 C.3     4  DTY4        0.0534
      6  CG        28.6090  -49.1120   -5.4410 C.ar    4  DTY4       -0.0201
      7  CD1       28.3300  -50.4590   -5.6430 C.ar    4  DTY4       -0.0009
      8  CD2       28.8100  -48.2770   -6.5530 C.ar    4  DTY4       -0.0009
      9  CE1       28.2480  -51.0050   -6.9320 C.ar    4  DTY4        0.0417
     10  CE2       28.7250  -48.8020   -7.8510 C.ar    4  DTY4        0.0417
     11  CZ        28.4390  -50.1600   -8.0330 C.ar    4  DTY4        0.1957
     12  OH        28.3480  -50.6940   -9.2870 O.3     4  DTY4       -0.2866
@<TRIPOS>BOND
     1    12    11    1
     2    11    10   ar
     3    11     9   ar
     4    10     8   ar
     5     9     7   ar
     6     8     6   ar
     7     7     6   ar
     8     6     5    1
     9     4     3    2
    10     3     2    1
    11     1     2    1
    12     5     2    1
