@<TRIPOS>MOLECULE
3tpy_DUP_A_1.pdb
 28 29 0 0 0
SMALL
GASTEIGER

@<TRIPOS>ATOM
      1  O4        -2.2660   59.6470   28.8560 O.2   777  DUP777     -0.2085
      2  C4        -3.1100   58.9530   29.4030 C.1   777  DUP777      0.2182
      3  C5        -4.2910   59.4850   29.8850 C.2   777  DUP777      0.1242
      4  C6        -5.2120   58.6370   30.4790 C.2   777  DUP777      0.0928
      5  N3        -2.8770   57.6110   29.5020 N.2   777  DUP777     -0.2452
      6  C2        -3.7750   56.7710   30.1090 C.1   777  DUP777      0.2844
      7  O2        -3.5200   55.5610   30.1950 O.2   777  DUP777     -0.1918
      8  N1        -4.9540   57.2870   30.5910 N.am  777  DUP777     -0.1790
      9  C1'       -5.9220   56.4160   31.2540 C.3   777  DUP777      0.2090
     10  C2'       -5.7520   56.6600   32.7700 C.3   777  DUP777      0.0874
     11  C3'       -6.9550   57.5190   33.1200 C.3   777  DUP777      0.1857
     12  O3'       -7.3680   57.3940   34.4830 O.3   777  DUP777     -0.2203
     13  O4'       -7.2670   56.8240   30.9270 O.3   777  DUP777     -0.3339
     14  C4'       -7.9740   57.0280   32.1190 C.3   777  DUP777      0.1774
     15  C5'       -9.0900   58.0410   31.8940 C.3   777  DUP777      0.1848
     16  O5'       -8.4920   59.2220   31.3870 O.3   777  DUP777     -0.2775
     17  PA        -9.3390   60.5630   31.1370 P.3   777  DUP777      0.4623
     18  O1A      -10.3690   60.8510   32.1630 O.3   777  DUP777     -0.1255
     19  O2A       -8.3540   61.6150   30.7090 O.2   777  DUP777     -0.2354
     20  N3A      -10.1380   59.9900   29.8030 N.3   777  DUP777     -0.0179
     21  PB       -11.7680   59.9690   29.4910 P.3   777  DUP777      0.4700
     22  O1B      -12.5320   61.1210   30.1450 O.3   777  DUP777     -0.1252
     23  O2B      -11.8100   59.9390   28.0280 O.2   777  DUP777     -0.2350
     24  O3B      -12.3290   58.6130   30.1980 O.3   777  DUP777     -0.1901
     25  PG       -13.0980   58.5290   31.6200 P.3   777  DUP777      0.5397
     26  O2G      -12.4110   59.3570   32.6690 O.3   777  DUP777     -0.1143
     27  O1G      -14.5030   59.0670   31.4170 O.2   777  DUP777     -0.2220
     28  O3G      -13.0920   57.0600   32.0050 O.3   777  DUP777     -0.1143
@<TRIPOS>BOND
     1    23    21    2
     2     1     2    2
     3     2     5    2
     4     2     3    1
     5    21    20    1
     6    21    22    1
     7    21    24    1
     8     5     6    2
     9    20    17    1
    10     3     4    2
    11     6     7    2
    12     6     8   am
    13    24    25    1
    14     4     8    1
    15     8     9    1
    16    19    17    2
    17    13     9    1
    18    13    14    1
    19    17    16    1
    20    17    18    1
    21     9    10    1
    22    16    15    1
    23    27    25    2
    24    25    28    1
    25    25    26    1
    26    15    14    1
    27    14    11    1
    28    10    11    1
    29    11    12    1
