@<TRIPOS>MOLECULE
3tpy_UMP_A_1.pdb
 20 21 0 0 0
SMALL
GASTEIGER

@<TRIPOS>ATOM
      1  N1        -5.1040   57.3490   30.7970 N.am  154  UMP154     -0.1790
      2  C2        -3.8660   56.9290   30.3590 C.1   154  UMP154      0.2844
      3  N3        -3.0880   57.7750   29.6130 N.2   154  UMP154     -0.2452
      4  C4        -3.5040   59.0470   29.3120 C.1   154  UMP154      0.2182
      5  C5        -4.7470   59.4880   29.7460 C.2   154  UMP154      0.1242
      6  C6        -5.5450   58.6200   30.4870 C.2   154  UMP154      0.0928
      7  O2        -3.4450   55.8020   30.6280 O.2   154  UMP154     -0.1918
      8  O4        -2.7650   59.7640   28.6480 O.2   154  UMP154     -0.2085
      9  C1'       -5.9180   56.4130   31.5950 C.3   154  UMP154      0.2090
     10  C2'       -5.9360   56.8830   33.0470 C.3   154  UMP154      0.0874
     11  C3'       -7.3020   57.5200   33.1850 C.3   154  UMP154      0.1857
     12  C4'       -8.1480   56.8380   32.1160 C.3   154  UMP154      0.1774
     13  O3'       -7.8040   57.3300   34.4930 O.3   154  UMP154     -0.2203
     14  O4'       -7.2580   56.3830   31.1240 O.3   154  UMP154     -0.3339
     15  C5'       -9.1630   57.7540   31.4410 C.3   154  UMP154      0.1858
     16  O5'       -8.5210   58.8790   30.8790 O.3   154  UMP154     -0.2675
     17  P         -9.0100   60.3580   31.3340 P.3   154  UMP154      0.5327
     18  OP1      -10.5180   60.3550   31.1980 O.3   154  UMP154     -0.1145
     19  OP2       -8.5650   60.6910   32.7470 O.3   154  UMP154     -0.1145
     20  OP3       -8.3840   61.2890   30.3550 O.2   154  UMP154     -0.2224
@<TRIPOS>BOND
     1     8     4    2
     2     4     3    2
     3     4     5    1
     4     3     2    2
     5     5     6    2
     6    20    17    2
     7     2     7    2
     8     2     1   am
     9     6     1    1
    10     1     9    1
    11    16    17    1
    12    16    15    1
    13    14     9    1
    14    14    12    1
    15    18    17    1
    16    17    19    1
    17    15    12    1
    18     9    10    1
    19    12    11    1
    20    10    11    1
    21    11    13    1
