@<TRIPOS>MOLECULE
3tq0_FMN_A_1.pdb
 31 33 0 0 0
SMALL
GASTEIGER

@<TRIPOS>ATOM
      1  N1        53.2090  -17.2500  -14.8580 N.2   313  FMN313     -0.2887
      2  C2        54.3300  -17.2790  -15.6430 C.1   313  FMN313      0.3669
      3  O2        55.3690  -16.8150  -15.2020 O.2   313  FMN313     -0.1744
      4  N3        54.2960  -17.8220  -16.9130 N.2   313  FMN313     -0.2300
      5  C4        53.1380  -18.3430  -17.4190 C.1   313  FMN313      0.2513
      6  O4        53.0990  -18.8220  -18.5470 O.2   313  FMN313     -0.2057
      7  C4A       52.0060  -18.3180  -16.6370 C.2   313  FMN313      0.2703
      8  N5        50.8350  -18.8300  -17.1320 N.2   313  FMN313     -0.3882
      9  C5A       49.6930  -18.7710  -16.3740 C.2   313  FMN313      0.1277
     10  C6        48.5110  -19.2790  -16.8900 C.3   313  FMN313      0.0820
     11  C7        47.3650  -19.2250  -16.1100 C.2   313  FMN313     -0.0408
     12  C7M       46.0930  -19.7730  -16.6750 C.3   313  FMN313      0.0265
     13  C8        47.3970  -18.6580  -14.8220 C.2   313  FMN313     -0.0280
     14  C8M       46.1790  -18.5910  -13.9470 C.3   313  FMN313      0.0304
     15  C9        48.5860  -18.1650  -14.3160 C.2   313  FMN313      0.0123
     16  C9A       49.7340  -18.2160  -15.0970 C.2   313  FMN313      0.0793
     17  N10       50.9260  -17.7400  -14.5970 N.pl3 313  FMN313     -0.2545
     18  C10       52.0490  -17.7670  -15.3640 C.2   313  FMN313      0.2449
     19  C1'       50.9980  -17.1290  -13.2400 C.3   313  FMN313      0.1336
     20  C2'       50.5880  -15.6850  -13.3970 C.3   313  FMN313      0.2048
     21  O2'       51.5630  -15.0490  -14.1910 O.3   313  FMN313     -0.2185
     22  C3'       50.5420  -15.0700  -12.0160 C.3   313  FMN313      0.2165
     23  O3'       51.8450  -15.1300  -11.4840 O.3   313  FMN313     -0.2175
     24  C4'       49.5920  -15.7760  -11.0460 C.3   313  FMN313      0.2147
     25  O4'       48.3860  -16.1570  -11.6820 O.3   313  FMN313     -0.2176
     26  C5'       49.2980  -14.8820   -9.8390 C.3   313  FMN313      0.1892
     27  O5'       48.6340  -13.7040  -10.2650 O.3   313  FMN313     -0.2674
     28  P         47.0350  -13.5750  -10.1450 P.3   313  FMN313      0.5327
     29  O1P       46.7170  -13.7370   -8.6950 O.3   313  FMN313     -0.1145
     30  O2P       46.4060  -14.7040  -10.9350 O.2   313  FMN313     -0.2224
     31  O3P       46.6910  -12.2050  -10.6760 O.3   313  FMN313     -0.1145
@<TRIPOS>BOND
     1     6     5    2
     2     5     4    2
     3     5     7    1
     4     8     7    2
     5     8     9    2
     6     4     2    2
     7    10     9    1
     8    10    11    1
     9    12    11    1
    10     7    18    1
    11     9    16    1
    12    11    13    2
    13     2     3    2
    14     2     1    2
    15    18     1    2
    16    18    17    1
    17    16    17    1
    18    16    15    2
    19    13    15    1
    20    13    14    1
    21    17    19    1
    22    21    20    1
    23    20    19    1
    24    20    22    1
    25    22    23    1
    26    22    24    1
    27    25    24    1
    28    24    26    1
    29    30    28    2
    30    31    28    1
    31    27    28    1
    32    27    26    1
    33    28    29    1
