@<TRIPOS>MOLECULE
3tq3_DUP_A_1.pdb
 28 29 0 0 0
SMALL
GASTEIGER

@<TRIPOS>ATOM
      1  O4        -2.3700   59.7880   29.0710 O.2   153  DUP153     -0.2085
      2  C4        -3.2140   59.1040   29.6540 C.1   153  DUP153      0.2182
      3  C5        -4.4590   59.6420   30.0850 C.2   153  DUP153      0.1242
      4  C6        -5.3770   58.7910   30.7240 C.2   153  DUP153      0.0928
      5  N3        -2.9360   57.7670   29.8240 N.2   153  DUP153     -0.2452
      6  C2        -3.8190   56.9340   30.4700 C.1   153  DUP153      0.2844
      7  O2        -3.5150   55.7040   30.6370 O.2   153  DUP153     -0.1918
      8  N1        -5.0310   57.4460   30.8960 N.am  153  DUP153     -0.1790
      9  C1'       -5.9570   56.5230   31.5840 C.3   153  DUP153      0.2090
     10  C2'       -5.7480   56.7430   33.0910 C.3   153  DUP153      0.0874
     11  C3'       -6.9470   57.5870   33.4780 C.3   153  DUP153      0.1857
     12  O3'       -7.3090   57.3700   34.8260 O.3   153  DUP153     -0.2203
     13  O4'       -7.3260   56.8390   31.3480 O.3   153  DUP153     -0.3339
     14  C4'       -8.0220   57.0310   32.5480 C.3   153  DUP153      0.1774
     15  C5'       -9.1800   58.0140   32.3270 C.3   153  DUP153      0.1848
     16  O5'       -8.6250   59.2210   31.8690 O.3   153  DUP153     -0.2775
     17  PA        -9.4940   60.5090   31.4560 P.3   153  DUP153      0.4623
     18  O1A      -10.5720   60.8540   32.4480 O.3   153  DUP153     -0.1255
     19  O2A       -8.5300   61.5250   30.9550 O.2   153  DUP153     -0.2354
     20  N3A      -10.2580   59.8810   30.1270 N.3   153  DUP153     -0.0179
     21  PB       -11.8630   59.8930   29.7500 P.3   153  DUP153      0.4700
     22  O1B      -12.5820   61.0110   30.4540 O.3   153  DUP153     -0.1252
     23  O2B      -11.9160   59.9010   28.2600 O.2   153  DUP153     -0.2350
     24  O3B      -12.3960   58.4970   30.3630 O.3   153  DUP153     -0.1901
     25  PG       -13.2900   58.3910   31.6960 P.3   153  DUP153      0.5397
     26  O2G      -12.8040   59.3480   32.7570 O.3   153  DUP153     -0.1143
     27  O1G      -14.6870   58.7870   31.3090 O.2   153  DUP153     -0.2220
     28  O3G      -13.0960   56.9710   32.1770 O.3   153  DUP153     -0.1143
@<TRIPOS>BOND
     1    23    21    2
     2     1     2    2
     3     2     5    2
     4     2     3    1
     5    21    20    1
     6    21    24    1
     7    21    22    1
     8     5     6    2
     9     3     4    2
    10    20    17    1
    11    24    25    1
    12     6     7    2
    13     6     8   am
    14     4     8    1
    15     8     9    1
    16    19    17    2
    17    27    25    2
    18    13     9    1
    19    13    14    1
    20    17    16    1
    21    17    18    1
    22     9    10    1
    23    25    28    1
    24    25    26    1
    25    16    15    1
    26    15    14    1
    27    14    11    1
    28    10    11    1
    29    11    12    1
