@<TRIPOS>MOLECULE
3tq3_UMP_A_1.pdb
 20 21 0 0 0
SMALL
GASTEIGER

@<TRIPOS>ATOM
      1  N1        -4.8980   57.3290   30.9130 N.am  777  UMP777     -0.1790
      2  C2        -3.7250   56.8290   30.3670 C.1   777  UMP777      0.2844
      3  N3        -2.8850   57.6810   29.6740 N.2   777  UMP777     -0.2452
      4  C4        -3.1900   59.0220   29.5360 C.1   777  UMP777      0.2182
      5  C5        -4.3730   59.5340   30.0840 C.2   777  UMP777      0.1242
      6  C6        -5.2220   58.6670   30.7750 C.2   777  UMP777      0.0928
      7  O2        -3.4190   55.6190   30.4810 O.2   777  UMP777     -0.1918
      8  O4        -2.4210   59.7540   28.9160 O.2   777  UMP777     -0.2085
      9  C1'       -5.7890   56.4120   31.6610 C.3   777  UMP777      0.2090
     10  C2'       -5.7700   56.7920   33.1470 C.3   777  UMP777      0.0874
     11  C3'       -7.0900   57.5130   33.3540 C.3   777  UMP777      0.1857
     12  C4'       -7.9830   56.8710   32.3010 C.3   777  UMP777      0.1774
     13  O3'       -7.6150   57.3370   34.6580 O.3   777  UMP777     -0.2203
     14  O4'       -7.1350   56.5080   31.2300 O.3   777  UMP777     -0.3339
     15  C5'       -9.0600   57.8110   31.7800 C.3   777  UMP777      0.1858
     16  O5'       -8.4600   58.9060   31.1360 O.3   777  UMP777     -0.2675
     17  P         -8.9140   60.3970   31.5460 P.3   777  UMP777      0.5327
     18  OP1      -10.4130   60.3970   31.3680 O.3   777  UMP777     -0.1145
     19  OP2       -8.2630   61.3740   30.6220 O.2   777  UMP777     -0.2224
     20  OP3       -8.5820   60.7000   32.9670 O.3   777  UMP777     -0.1145
@<TRIPOS>BOND
     1     8     4    2
     2     4     3    2
     3     4     5    1
     4     3     2    2
     5     5     6    2
     6     2     7    2
     7     2     1   am
     8    19    17    2
     9     6     1    1
    10     1     9    1
    11    16    17    1
    12    16    15    1
    13    14     9    1
    14    14    12    1
    15    18    17    1
    16    17    20    1
    17     9    10    1
    18    15    12    1
    19    12    11    1
    20    10    11    1
    21    11    13    1
