@<TRIPOS>MOLECULE
3tq4_UMP_A_1.pdb
 20 21 0 0 0
SMALL
GASTEIGER

@<TRIPOS>ATOM
      1  N1        -4.9170   57.2630   30.7980 N.am  777  UMP777     -0.1790
      2  C2        -3.6980   56.7920   30.3870 C.1   777  UMP777      0.2844
      3  N3        -2.8050   57.6090   29.7780 N.2   777  UMP777     -0.2452
      4  C4        -3.0630   58.9220   29.5530 C.1   777  UMP777      0.2182
      5  C5        -4.2850   59.4070   30.0120 C.2   777  UMP777      0.1242
      6  C6        -5.2380   58.5830   30.6240 C.2   777  UMP777      0.0928
      7  O2        -3.3590   55.5940   30.4960 O.2   777  UMP777     -0.1918
      8  O4        -2.1860   59.6420   29.0140 O.2   777  UMP777     -0.2085
      9  C1'       -5.8250   56.3170   31.4670 C.3   777  UMP777      0.2090
     10  C2'       -5.7160   56.6190   32.9940 C.3   777  UMP777      0.0874
     11  C3'       -6.9290   57.4720   33.2660 C.3   777  UMP777      0.1857
     12  C4'       -7.9390   56.8720   32.2780 C.3   777  UMP777      0.1774
     13  O3'       -7.3630   57.3360   34.6070 O.3   777  UMP777     -0.2203
     14  O4'       -7.1820   56.5230   31.1250 O.3   777  UMP777     -0.3339
     15  C5'       -9.1320   57.7100   31.8550 C.3   777  UMP777      0.1858
     16  O5'       -8.5550   58.8320   31.2040 O.3   777  UMP777     -0.2675
     17  P         -9.0670   60.3470   31.5170 P.3   777  UMP777      0.5327
     18  OP1      -10.5470   60.2580   31.3890 O.3   777  UMP777     -0.1145
     19  OP2       -8.2940   61.2550   30.6270 O.2   777  UMP777     -0.2224
     20  OP3       -8.6440   60.6700   32.9550 O.3   777  UMP777     -0.1145
@<TRIPOS>BOND
     1     8     4    2
     2     4     3    2
     3     4     5    1
     4     3     2    2
     5     5     6    2
     6     2     7    2
     7     2     1   am
     8     6     1    1
     9    19    17    2
    10     1     9    1
    11    14     9    1
    12    14    12    1
    13    16    17    1
    14    16    15    1
    15    18    17    1
    16     9    10    1
    17    17    20    1
    18    15    12    1
    19    12    11    1
    20    10    11    1
    21    11    13    1
