@<TRIPOS>MOLECULE
3tq4_DUP_A_1.pdb
 28 29 0 0 0
SMALL
GASTEIGER

@<TRIPOS>ATOM
      1  O4        -2.6860   59.8430   28.6420 O.2   154  DUP154     -0.2085
      2  C4        -3.4540   59.1390   29.3090 C.1   154  DUP154      0.2182
      3  C5        -4.6050   59.6860   29.8750 C.2   154  DUP154      0.1242
      4  C6        -5.4660   58.8840   30.6240 C.2   154  DUP154      0.0928
      5  N3        -3.1710   57.8040   29.5150 N.2   154  DUP154     -0.2452
      6  C2        -4.0200   57.0180   30.2590 C.1   154  DUP154      0.2844
      7  O2        -3.7520   55.8220   30.4200 O.2   154  DUP154     -0.1918
      8  N1        -5.1640   57.5580   30.8170 N.am  154  DUP154     -0.1790
      9  C1'       -6.0470   56.6750   31.6070 C.3   154  DUP154      0.2090
     10  C2'       -5.8080   56.8640   33.1070 C.3   154  DUP154      0.0874
     11  C3'       -7.0870   57.4990   33.5990 C.3   154  DUP154      0.1857
     12  O3'       -7.4970   56.9890   34.8410 O.3   154  DUP154     -0.2203
     13  O4'       -7.4040   56.9690   31.3390 O.3   154  DUP154     -0.3339
     14  C4'       -8.1150   57.1370   32.5450 C.3   154  DUP154      0.1774
     15  C5'       -9.1370   58.2410   32.3830 C.3   154  DUP154      0.1848
     16  O5'       -8.5210   59.2880   31.6730 O.3   154  DUP154     -0.2775
     17  PA        -9.4440   60.5530   31.2980 P.3   154  DUP154      0.4623
     18  O1A      -10.3470   60.8320   32.4590 O.3   154  DUP154     -0.1255
     19  O2A       -8.6160   61.7410   30.8740 O.2   154  DUP154     -0.2354
     20  N3A      -10.3400   59.9400   30.0180 N.3   154  DUP154     -0.0179
     21  PB       -11.9930   59.9630   29.7740 P.3   154  DUP154      0.4700
     22  O1B      -12.6440   61.1120   30.5020 O.3   154  DUP154     -0.1252
     23  O2B      -12.1810   60.0650   28.2820 O.2   154  DUP154     -0.2350
     24  O3B      -12.5170   58.5500   30.3330 O.3   154  DUP154     -0.1901
     25  PG       -13.3540   58.3560   31.7000 P.3   154  DUP154      0.5397
     26  O2G      -12.7560   59.1960   32.8020 O.3   154  DUP154     -0.1143
     27  O1G      -14.7150   58.9310   31.4080 O.2   154  DUP154     -0.2220
     28  O3G      -13.3950   56.9040   32.0680 O.3   154  DUP154     -0.1143
@<TRIPOS>BOND
     1    23    21    2
     2     1     2    2
     3     2     5    2
     4     2     3    1
     5     5     6    2
     6    21    20    1
     7    21    24    1
     8    21    22    1
     9     3     4    2
    10    20    17    1
    11     6     7    2
    12     6     8   am
    13    24    25    1
    14     4     8    1
    15     8     9    1
    16    19    17    2
    17    17    16    1
    18    17    18    1
    19    13     9    1
    20    13    14    1
    21    27    25    2
    22     9    10    1
    23    16    15    1
    24    25    28    1
    25    25    26    1
    26    15    14    1
    27    14    11    1
    28    10    11    1
    29    11    12    1
