@<TRIPOS>MOLECULE
3tq5_UMP_A_1.pdb
 20 21 0 0 0
SMALL
GASTEIGER

@<TRIPOS>ATOM
      1  N1        -4.9010   57.3770   30.6190 N.am  777  UMP777     -0.1790
      2  C2        -3.7090   56.9030   30.1530 C.1   777  UMP777      0.2844
      3  N3        -2.8080   57.7360   29.5340 N.2   777  UMP777     -0.2452
      4  C4        -3.1150   59.0900   29.3650 C.1   777  UMP777      0.2182
      5  C5        -4.3400   59.5890   29.8290 C.2   777  UMP777      0.1242
      6  C6        -5.2330   58.7400   30.4890 C.2   777  UMP777      0.0928
      7  O2        -3.3270   55.6970   30.2480 O.2   777  UMP777     -0.1918
      8  O4        -2.2700   59.7820   28.8110 O.2   777  UMP777     -0.2085
      9  C1'       -5.8130   56.4330   31.3030 C.3   777  UMP777      0.2090
     10  C2'       -5.7230   56.8110   32.8140 C.3   777  UMP777      0.0874
     11  C3'       -6.9890   57.6290   33.0960 C.3   777  UMP777      0.1857
     12  C4'       -7.9290   57.0350   32.0650 C.3   777  UMP777      0.1774
     13  O3'       -7.4360   57.4230   34.4440 O.3   777  UMP777     -0.2203
     14  O4'       -7.1500   56.6990   30.9270 O.3   777  UMP777     -0.3339
     15  C5'       -9.0830   57.9530   31.6730 C.3   777  UMP777      0.1858
     16  O5'       -8.4400   59.0750   31.0700 O.3   777  UMP777     -0.2675
     17  P         -9.0480   60.5490   31.3690 P.3   777  UMP777      0.5327
     18  OP1      -10.4450   60.4920   31.2890 O.3   777  UMP777     -0.1145
     19  OP2       -8.5270   60.8880   32.8600 O.3   777  UMP777     -0.1145
     20  OP3       -8.3210   61.4810   30.4970 O.2   777  UMP777     -0.2224
@<TRIPOS>BOND
     1     8     4    2
     2     4     3    2
     3     4     5    1
     4     3     2    2
     5     5     6    2
     6     2     7    2
     7     2     1   am
     8     6     1    1
     9    20    17    2
    10     1     9    1
    11    14     9    1
    12    14    12    1
    13    16    17    1
    14    16    15    1
    15    18    17    1
    16     9    10    1
    17    17    19    1
    18    15    12    1
    19    12    11    1
    20    10    11    1
    21    11    13    1
