@<TRIPOS>MOLECULE
3tq8_NDP_A_1.pdb
 48 52 0 0 0
SMALL
GASTEIGER

@<TRIPOS>ATOM
      1  PA        20.0180    9.0560    8.2490 P.3   1001  NDP1001     0.2189
      2  O1A       19.4830    8.1170    7.2530 O.2   1001  NDP1001    -0.5170
      3  O2A       19.9670    8.5640    9.6530 O.3   1001  NDP1001    -0.4371
      4  O5B       21.5150    9.5440    7.9380 O.3   1001  NDP1001    -0.3112
      5  C5B       21.7620   10.2650    6.7470 C.3   1001  NDP1001     0.1813
      6  C4B       23.2630   10.3480    6.6120 C.3   1001  NDP1001     0.1820
      7  O4B       23.7850    9.0450    6.5150 O.3   1001  NDP1001    -0.3136
      8  C3B       23.7290   11.1110    5.3900 C.3   1001  NDP1001     0.2157
      9  O3B       23.7030   12.4950    5.6460 O.3   1001  NDP1001    -0.2175
     10  C2B       25.0960   10.4900    5.2000 C.3   1001  NDP1001     0.2314
     11  O2B       26.0270   10.8960    6.1900 O.3   1001  NDP1001    -0.2630
     12  C1B       24.8290    9.0370    5.5570 C.3   1001  NDP1001     0.3158
     13  N9A       24.4420    8.1540    4.4590 N.pl3 1001  NDP1001    -0.1439
     14  C8A       23.2030    7.6050    4.2190 C.3   1001  NDP1001     0.3377
     15  N7A       23.2860    6.7980    3.1300 N.2   1001  NDP1001    -0.2095
     16  C5A       24.5690    6.8190    2.6890 C.2   1001  NDP1001     0.2526
     17  C6A       25.2040    6.1930    1.6230 C.2   1001  NDP1001     0.4393
     18  N6A       24.5310    5.3830    0.8190 N.pl3 1001  NDP1001     0.2180
     19  N1A       26.5470    6.4120    1.4150 N.2   1001  NDP1001     0.0021
     20  C2A       27.2470    7.2280    2.2690 C.3   1001  NDP1001     0.5254
     21  N3A       26.6220    7.8620    3.3170 N.2   1001  NDP1001    -0.0055
     22  C4A       25.3050    7.6550    3.5240 C.2   1001  NDP1001     0.3518
     23  O3        19.3380   10.4990    8.1680 O.3   1001  NDP1001    -0.2703
     24  PN        17.8140   10.9380    8.0310 P.3   1001  NDP1001     0.2189
     25  O1N       17.2350   10.4690    6.7650 O.2   1001  NDP1001    -0.5170
     26  O2N       17.8900   12.3890    8.3000 O.3   1001  NDP1001    -0.4371
     27  O5D       17.0610   10.1980    9.2590 O.3   1001  NDP1001    -0.3112
     28  C5D       17.0670   10.6930   10.5840 C.3   1001  NDP1001     0.1813
     29  C4D       15.6340   10.8350   11.0970 C.3   1001  NDP1001     0.1799
     30  O4D       15.0150    9.5590   11.2020 O.3   1001  NDP1001    -0.3327
     31  C3D       15.5800   11.4370   12.4910 C.3   1001  NDP1001     0.2158
     32  O3D       14.4680   12.2830   12.6080 O.3   1001  NDP1001    -0.2175
     33  C2D       15.4180   10.2600   13.4210 C.3   1001  NDP1001     0.2309
     34  O2D       14.8020   10.5730   14.6660 O.3   1001  NDP1001    -0.2158
     35  C1D       14.5790    9.3510   12.5390 C.3   1001  NDP1001     0.2263
     36  N1N       14.7150    7.9540   12.9880 N.pl3 1001  NDP1001    -0.2787
     37  C2N       13.5640    7.3160   13.3300 C.3   1001  NDP1001     0.1244
     38  C3N       13.4850    5.9520   13.4870 C.2   1001  NDP1001     0.0544
     39  C7N       12.1930    5.3300   13.8700 C.2   1001  NDP1001     0.2818
     40  O7N       12.2050    3.9530   13.9360 O.2   1001  NDP1001    -0.2670
     41  N7N       11.0870    6.0550   14.0890 N.am  1001  NDP1001    -0.0839
     42  C4N       14.7330    5.1270   13.2460 C.2   1001  NDP1001     0.0033
     43  C5N       15.9660    5.8940   12.8990 C.2   1001  NDP1001     0.0157
     44  C6N       15.8920    7.2690   12.7840 C.2   1001  NDP1001     0.0633
     45  P2B       27.0660   12.1310    6.0830 P.3   1001  NDP1001     0.5328
     46  O1X       26.2030   13.3450    6.1060 O.3   1001  NDP1001    -0.1145
     47  O2X       27.9720   12.1210    7.2860 O.3   1001  NDP1001    -0.1145
     48  O3X       27.8570   11.9450    4.8200 O.2   1001  NDP1001    -0.2224
@<TRIPOS>BOND
     1    18    17    1
     2    19    17    2
     3    19    20    1
     4    17    16    1
     5    20    21    1
     6    16    15    2
     7    16    22    1
     8    15    14    1
     9    21    22    2
    10    22    13    1
    11    14    13    1
    12    13    12    1
    13    48    45    2
    14    10     8    1
    15    10    12    1
    16    10    11    1
    17     8     9    1
    18     8     6    1
    19    12     7    1
    20    45    46    1
    21    45    11    1
    22    45    47    1
    23     7     6    1
    24     6     5    1
    25     5     4    1
    26    25    24    2
    27     2     1    2
    28     4     1    1
    29    24    23    1
    30    24    26    1
    31    24    27    1
    32    23     1    1
    33     1     3    1
    34    27    28    1
    35    28    29    1
    36    29    30    1
    37    29    31    1
    38    30    35    1
    39    31    32    1
    40    31    33    1
    41    35    36    1
    42    35    33    1
    43    44    43    2
    44    44    36    1
    45    43    42    1
    46    36    37    1
    47    42    38    2
    48    37    38    1
    49    33    34    1
    50    38    39    1
    51    39    40    2
    52    39    41   am
