@<TRIPOS>MOLECULE
3tq8_TOP_A_1.pdb
 21 22 0 0 0
SMALL
GASTEIGER

@<TRIPOS>ATOM
      1  C1        13.7470    2.4170   17.4260 C.2   2001  TOP2001     0.1118
      2  N2        12.6420    1.6460   17.3960 N.2   2001  TOP2001    -0.1675
      3  C3        12.3370    0.8550   16.3310 C.1   2001  TOP2001     0.1877
      4  N4        11.2240    0.0770   16.3590 N.pl3 2001  TOP2001    -0.0345
      5  N5        13.1420    0.8190   15.2400 N.2   2001  TOP2001    -0.3170
      6  C6        14.2570    1.5670   15.1730 C.2   2001  TOP2001     0.2297
      7  N7        15.0040    1.5020   14.0580 N.pl3 2001  TOP2001    -0.0924
      8  C8        14.6190    2.4390   16.3270 C.2   2001  TOP2001     0.0500
      9  C9        15.9010    3.2630   16.2690 C.3   2001  TOP2001     0.0585
     10  C10       16.1750    4.2180   17.4180 C.ar  2001  TOP2001    -0.0114
     11  C11       16.4650    3.7760   18.7220 C.ar  2001  TOP2001     0.0363
     12  C12       16.7220    4.6900   19.7640 C.ar  2001  TOP2001     0.1751
     13  O13       17.0130    4.2970   21.0500 O.3   2001  TOP2001    -0.4683
     14  C14       17.0820    2.8960   21.3520 C.3   2001  TOP2001     0.2526
     15  C15       16.6960    6.1340   19.4840 C.ar  2001  TOP2001     0.2060
     16  O16       16.9230    7.0580   20.4720 O.3   2001  TOP2001    -0.4654
     17  C17       15.7800    7.3190   21.2910 C.3   2001  TOP2001     0.2528
     18  C18       16.3710    6.5500   18.1100 C.ar  2001  TOP2001     0.1751
     19  O19       16.3400    7.8840   17.8150 O.3   2001  TOP2001    -0.4683
     20  C20       16.2730    8.3000   16.4490 C.3   2001  TOP2001     0.2526
     21  C21       16.1320    5.5760   17.1300 C.ar  2001  TOP2001     0.0363
@<TRIPOS>BOND
     1     7     6    1
     2     6     5    2
     3     6     8    1
     4     5     3    2
     5     9     8    1
     6     9    10    1
     7     8     1    2
     8     3     4    1
     9     3     2    2
    10    20    19    1
    11    21    10   ar
    12    21    18   ar
    13     2     1    1
    14    10    11   ar
    15    19    18    1
    16    18    15   ar
    17    11    12   ar
    18    15    12   ar
    19    15    16    1
    20    12    13    1
    21    16    17    1
    22    13    14    1
