@<TRIPOS>MOLECULE
3tq9_NDP_A_1.pdb
 48 52 0 0 0
SMALL
GASTEIGER

@<TRIPOS>ATOM
      1  PA        19.2860    9.2340    7.8890 P.3   1001  NDP1001     0.2189
      2  O1A       18.8170    8.3600    6.7650 O.2   1001  NDP1001    -0.5170
      3  O2A       19.2120    8.7120    9.2920 O.3   1001  NDP1001    -0.4371
      4  O5B       20.8020    9.5950    7.5870 O.3   1001  NDP1001    -0.3112
      5  C5B       21.1060   10.3250    6.4020 C.3   1001  NDP1001     0.1813
      6  C4B       22.6100   10.3310    6.1920 C.3   1001  NDP1001     0.1820
      7  O4B       23.0650    8.9850    6.0350 O.3   1001  NDP1001    -0.3136
      8  C3B       23.0870   11.0410    4.9330 C.3   1001  NDP1001     0.2157
      9  O3B       23.2300   12.4480    5.0890 O.3   1001  NDP1001    -0.2175
     10  C2B       24.4240   10.3920    4.7240 C.3   1001  NDP1001     0.2314
     11  O2B       25.3440   10.8790    5.6960 O.3   1001  NDP1001    -0.2630
     12  C1B       24.1320    8.9450    5.0830 C.3   1001  NDP1001     0.3158
     13  N9A       23.7030    8.1020    3.9560 N.pl3 1001  NDP1001    -0.1439
     14  C8A       22.4440    7.7480    3.6590 C.3   1001  NDP1001     0.3377
     15  N7A       22.4220    6.9510    2.5610 N.2   1001  NDP1001    -0.2095
     16  C5A       23.6960    6.7880    2.1610 C.2   1001  NDP1001     0.2526
     17  C6A       24.3910    6.0760    1.0810 C.2   1001  NDP1001     0.4393
     18  N6A       23.7000    5.3450    0.1760 N.pl3 1001  NDP1001     0.2180
     19  N1A       25.7360    6.1690    1.0250 N.2   1001  NDP1001     0.0021
     20  C2A       26.4340    6.8900    1.9160 C.3   1001  NDP1001     0.5254
     21  N3A       25.8540    7.5530    2.9130 N.2   1001  NDP1001    -0.0055
     22  C4A       24.5250    7.5450    3.0810 C.2   1001  NDP1001     0.3518
     23  O3        18.6180   10.7000    7.8450 O.3   1001  NDP1001    -0.2703
     24  PN        17.0490   11.0900    7.9360 P.3   1001  NDP1001     0.2189
     25  O1N       16.2840   10.6180    6.7240 O.2   1001  NDP1001    -0.5170
     26  O2N       17.0410   12.5550    8.2580 O.3   1001  NDP1001    -0.4371
     27  O5D       16.5000   10.3080    9.2080 O.3   1001  NDP1001    -0.3112
     28  C5D       16.6890   10.8500   10.5090 C.3   1001  NDP1001     0.1813
     29  C4D       15.3180   11.1830   11.0490 C.3   1001  NDP1001     0.1799
     30  O4D       14.5520    9.9810   11.1490 O.3   1001  NDP1001    -0.3327
     31  C3D       15.4270   11.7490   12.4480 C.3   1001  NDP1001     0.2158
     32  O3D       14.3040   12.5970   12.7120 O.3   1001  NDP1001    -0.2175
     33  C2D       15.3600   10.5120   13.3070 C.3   1001  NDP1001     0.2309
     34  O2D       15.0190   10.8510   14.6570 O.3   1001  NDP1001    -0.2158
     35  C1D       14.3040    9.7140   12.5380 C.3   1001  NDP1001     0.2263
     36  N1N       14.3280    8.2650   12.7260 N.pl3 1001  NDP1001    -0.2787
     37  C2N       13.1810    7.6840   13.0820 C.3   1001  NDP1001     0.1244
     38  C3N       13.0880    6.3270   13.2710 C.2   1001  NDP1001     0.0544
     39  C7N       11.7910    5.7110   13.6670 C.2   1001  NDP1001     0.2818
     40  O7N       11.7310    4.5120   13.8220 O.2   1001  NDP1001    -0.2670
     41  N7N       10.7310    6.4860   13.8600 N.am  1001  NDP1001    -0.0839
     42  C4N       14.3180    5.4980   13.0550 C.2   1001  NDP1001     0.0033
     43  C5N       15.5300    6.2010   12.6730 C.2   1001  NDP1001     0.0157
     44  C6N       15.4660    7.5790   12.5150 C.2   1001  NDP1001     0.0633
     45  P2B       26.4140   12.0530    5.5000 P.3   1001  NDP1001     0.5328
     46  O1X       25.4890   13.2340    5.5070 O.3   1001  NDP1001    -0.1145
     47  O2X       27.3010   12.0050    6.7200 O.3   1001  NDP1001    -0.1145
     48  O3X       27.1570   11.7400    4.2320 O.2   1001  NDP1001    -0.2224
@<TRIPOS>BOND
     1    18    17    1
     2    19    17    2
     3    19    20    1
     4    17    16    1
     5    20    21    1
     6    16    15    2
     7    16    22    1
     8    15    14    1
     9    21    22    2
    10    22    13    1
    11    14    13    1
    12    13    12    1
    13    48    45    2
    14    10     8    1
    15    10    12    1
    16    10    11    1
    17     8     9    1
    18     8     6    1
    19    12     7    1
    20    45    46    1
    21    45    11    1
    22    45    47    1
    23     7     6    1
    24     6     5    1
    25     5     4    1
    26    25    24    2
    27     2     1    2
    28     4     1    1
    29    23     1    1
    30    23    24    1
    31     1     3    1
    32    24    26    1
    33    24    27    1
    34    27    28    1
    35    28    29    1
    36    29    30    1
    37    29    31    1
    38    30    35    1
    39    31    32    1
    40    31    33    1
    41    44    43    2
    42    44    36    1
    43    35    36    1
    44    35    33    1
    45    43    42    1
    46    36    37    1
    47    42    38    2
    48    37    38    1
    49    38    39    1
    50    33    34    1
    51    39    40    2
    52    39    41   am
