@<TRIPOS>MOLECULE
3tq9_MTX_A_1.pdb
 33 35 0 0 0
SMALL
GASTEIGER

@<TRIPOS>ATOM
      1  N1        11.4930    2.5830   17.3780 N.2   2001  MTX2001    -0.2684
      2  C2        11.3540    1.4680   16.5700 C.1   2001  MTX2001     0.2519
      3  NA2       10.3340    0.6450   16.7480 N.pl3 2001  MTX2001    -0.0226
      4  N3        12.2680    1.2030   15.5690 N.2   2001  MTX2001    -0.3033
      5  C4        13.3420    2.0390   15.3570 C.2   2001  MTX2001     0.2728
      6  NA4       14.2160    1.7710   14.3890 N.pl3 2001  MTX2001    -0.0887
      7  C4A       13.4960    3.1620   16.1620 C.2   2001  MTX2001     0.2518
      8  N5        14.5700    4.0060   15.9580 N.2   2001  MTX2001    -0.3917
      9  C6        14.7320    5.1110   16.7520 C.2   2001  MTX2001     0.1330
     10  C7        13.8110    5.3950   17.7680 C.3   2001  MTX2001     0.1930
     11  N8        12.7310    4.5500   17.9840 N.2   2001  MTX2001    -0.1998
     12  C8A       12.5670    3.4340   17.1800 C.1   2001  MTX2001     0.1314
     13  C9        15.9250    5.9870   16.4830 C.3   2001  MTX2001     0.1481
     14  N10       16.2900    6.7480   17.6660 N.pl3 2001  MTX2001    -0.2999
     15  CM        16.1780    8.2170   17.5650 C.3   2001  MTX2001     0.1125
     16  C11       17.0640    4.9330   21.4060 C.ar  2001  MTX2001     0.0551
     17  C12       16.8260    6.2940   21.3220 C.ar  2001  MTX2001     0.0058
     18  C13       16.5670    6.8860   20.0910 C.ar  2001  MTX2001     0.0147
     19  C14       16.5540    6.1160   18.9260 C.ar  2001  MTX2001     0.0482
     20  C15       16.8020    4.7460   19.0240 C.ar  2001  MTX2001     0.0147
     21  C16       17.0560    4.1580   20.2590 C.ar  2001  MTX2001     0.0058
     22  C         17.3380    4.3240   22.7490 C.2   2001  MTX2001     0.2652
     23  O         17.7780    5.1650   23.7940 O.2   2001  MTX2001    -0.2684
     24  N         17.1740    3.0170   22.9350 N.am  2001  MTX2001    -0.1918
     25  CA        17.9660    2.3120   23.9250 C.3   2001  MTX2001     0.1986
     26  CT        18.2090    0.9030   23.5200 C.2   2001  MTX2001     0.3842
     27  O1        17.5970    0.4230   22.5490 O.co2 2001  MTX2001    -0.2437
     28  O2        19.0400    0.2100   24.1510 O.co2 2001  MTX2001    -0.2437
     29  CB        17.3200    2.3300   25.3080 C.3   2001  MTX2001     0.0451
     30  CG        15.8030    2.4200   25.2710 C.3   2001  MTX2001     0.1164
     31  CD        15.3110    2.4400   26.6970 C.2   2001  MTX2001     0.3649
     32  OE1       14.8860    1.3790   27.2230 O.co2 2001  MTX2001    -0.2457
     33  OE2       15.3320    3.5120   27.3610 O.co2 2001  MTX2001    -0.2457
@<TRIPOS>BOND
     1     6     5    1
     2     5     4    2
     3     5     7    1
     4     4     2    2
     5     8     7    2
     6     8     9    2
     7     7    12    1
     8    13     9    1
     9    13    14    1
    10     2     3    1
    11     2     1    2
    12     9    10    1
    13    12     1    2
    14    12    11    2
    15    15    14    1
    16    14    19    1
    17    10    11    1
    18    19    20   ar
    19    19    18   ar
    20    20    21   ar
    21    18    17   ar
    22    21    16   ar
    23    17    16   ar
    24    16    22    1
    25    27    26   ar
    26    22    24   am
    27    22    23    2
    28    24    25    1
    29    26    25    1
    30    26    28   ar
    31    25    29    1
    32    30    29    1
    33    30    31    1
    34    31    32   ar
    35    31    33   ar
