@<TRIPOS>MOLECULE
3tqa_NDP_A_1.pdb
 48 52 0 0 0
SMALL
GASTEIGER

@<TRIPOS>ATOM
      1  PA        19.4400    8.9910    8.1620 P.3   1001  NDP1001     0.2189
      2  O1A       18.8700    8.2210    6.9960 O.2   1001  NDP1001    -0.5170
      3  O2A       19.4730    8.3750    9.5360 O.3   1001  NDP1001    -0.4371
      4  O5B       20.9500    9.3760    7.8020 O.3   1001  NDP1001    -0.3112
      5  C5B       21.2490   10.1910    6.6730 C.3   1001  NDP1001     0.1813
      6  C4B       22.7610   10.2010    6.5380 C.3   1001  NDP1001     0.1820
      7  O4B       23.2410    8.8530    6.4890 O.3   1001  NDP1001    -0.3136
      8  C3B       23.2700   10.8790    5.2780 C.3   1001  NDP1001     0.2157
      9  O3B       23.4570   12.2830    5.4690 O.3   1001  NDP1001    -0.2175
     10  C2B       24.5620   10.1340    5.0400 C.3   1001  NDP1001     0.2314
     11  O2B       25.5780   10.5840    5.9310 O.3   1001  NDP1001    -0.2630
     12  C1B       24.2310    8.7160    5.4660 C.3   1001  NDP1001     0.3158
     13  N9A       23.7180    7.8690    4.3600 N.pl3 1001  NDP1001    -0.1439
     14  C8A       22.4300    7.5420    4.1300 C.3   1001  NDP1001     0.3377
     15  N7A       22.3230    6.7400    3.0370 N.2   1001  NDP1001    -0.2095
     16  C5A       23.5600    6.5360    2.5570 C.2   1001  NDP1001     0.2526
     17  C6A       24.1630    5.7900    1.4280 C.2   1001  NDP1001     0.4393
     18  N6A       23.3970    5.0790    0.5690 N.pl3 1001  NDP1001     0.2180
     19  N1A       25.5060    5.8400    1.2810 N.2   1001  NDP1001     0.0021
     20  C2A       26.2900    6.5410    2.1250 C.3   1001  NDP1001     0.5254
     21  N3A       25.8030    7.2410    3.1700 N.2   1001  NDP1001    -0.0055
     22  C4A       24.4760    7.2790    3.4350 C.2   1001  NDP1001     0.3518
     23  O3        18.7610   10.4550    8.2440 O.3   1001  NDP1001    -0.2703
     24  PN        17.1710   10.7120    8.2440 P.3   1001  NDP1001     0.2189
     25  O1N       16.5550   10.0530    7.0310 O.2   1001  NDP1001    -0.5170
     26  O2N       16.9610   12.1890    8.4710 O.3   1001  NDP1001    -0.4371
     27  O5D       16.6770    9.9290    9.5610 O.3   1001  NDP1001    -0.3112
     28  C5D       16.8200   10.4770   10.8720 C.3   1001  NDP1001     0.1813
     29  C4D       15.4350   10.7700   11.4360 C.3   1001  NDP1001     0.1799
     30  O4D       14.6490    9.5720   11.4140 O.3   1001  NDP1001    -0.3327
     31  C3D       15.4830   11.2440   12.8810 C.3   1001  NDP1001     0.2158
     32  O3D       14.5370   12.2970   13.0840 O.3   1001  NDP1001    -0.2175
     33  C2D       15.0930   10.0270   13.6950 C.3   1001  NDP1001     0.2309
     34  O2D       14.3880   10.3880   14.8890 O.3   1001  NDP1001    -0.2158
     35  C1D       14.2150    9.2340   12.7360 C.3   1001  NDP1001     0.2263
     36  N1N       14.3100    7.7890   12.9740 N.pl3 1001  NDP1001    -0.2787
     37  C2N       13.2210    7.1540   13.4440 C.3   1001  NDP1001     0.1244
     38  C3N       13.2200    5.7880   13.6990 C.2   1001  NDP1001     0.0544
     39  C7N       11.9930    5.1000   14.2250 C.2   1001  NDP1001     0.2818
     40  O7N       12.0230    3.8970   14.4390 O.2   1001  NDP1001    -0.2670
     41  N7N       10.8920    5.8200   14.4470 N.am  1001  NDP1001    -0.0839
     42  C4N       14.4890    5.0290   13.4300 C.2   1001  NDP1001     0.0033
     43  C5N       15.6200    5.7900   12.9220 C.2   1001  NDP1001     0.0157
     44  C6N       15.4700    7.1560   12.7130 C.2   1001  NDP1001     0.0633
     45  P2B       26.6410   11.7390    5.6020 P.3   1001  NDP1001     0.5328
     46  O1X       25.7890   12.9770    5.4920 O.3   1001  NDP1001    -0.1145
     47  O2X       27.5460   11.7260    6.8090 O.3   1001  NDP1001    -0.1145
     48  O3X       27.2970   11.2870    4.3200 O.2   1001  NDP1001    -0.2224
@<TRIPOS>BOND
     1    18    17    1
     2    19    17    2
     3    19    20    1
     4    17    16    1
     5    20    21    1
     6    16    15    2
     7    16    22    1
     8    15    14    1
     9    21    22    2
    10    22    13    1
    11    14    13    1
    12    48    45    2
    13    13    12    1
    14    10     8    1
    15    10    12    1
    16    10    11    1
    17     8     9    1
    18     8     6    1
    19    12     7    1
    20    46    45    1
    21    45    11    1
    22    45    47    1
    23     7     6    1
    24     6     5    1
    25     5     4    1
    26     2     1    2
    27    25    24    2
    28     4     1    1
    29     1    23    1
    30     1     3    1
    31    24    23    1
    32    24    26    1
    33    24    27    1
    34    27    28    1
    35    28    29    1
    36    30    29    1
    37    30    35    1
    38    29    31    1
    39    44    43    2
    40    44    36    1
    41    35    36    1
    42    35    33    1
    43    31    32    1
    44    31    33    1
    45    43    42    1
    46    36    37    1
    47    42    38    2
    48    37    38    1
    49    33    34    1
    50    38    39    1
    51    39    40    2
    52    39    41   am
