@<TRIPOS>MOLECULE
3tqb_FOL_A_1.pdb
 32 34 0 0 0
SMALL
GASTEIGER

@<TRIPOS>ATOM
      1  N1        11.7470    1.1140   15.8440 N.2   2001  FOL2001    -0.2672
      2  C2        10.6600    1.2330   16.6920 C.1   2001  FOL2001     0.2609
      3  NA2        9.7250    0.2880   16.7090 N.pl3 2001  FOL2001    -0.0220
      4  N3        10.5400    2.3330   17.5200 N.2   2001  FOL2001    -0.2466
      5  C4        11.5030    3.3230   17.5160 C.1   2001  FOL2001     0.2569
      6  O4        11.3800    4.2940   18.2630 O.2   2001  FOL2001    -0.2052
      7  C4A       12.6020    3.2100   16.6650 C.2   2001  FOL2001     0.2988
      8  N5        13.5780    4.1910   16.6410 N.2   2001  FOL2001    -0.3839
      9  C6        14.6640    4.0660   15.7950 C.2   2001  FOL2001     0.1356
     10  C7        14.7810    2.9570   14.9680 C.3   2001  FOL2001     0.1931
     11  N8        13.8060    1.9780   14.9840 N.2   2001  FOL2001    -0.1992
     12  C8A       12.7190    2.0970   15.8300 C.1   2001  FOL2001     0.1401
     13  C9        15.7440    5.1210   15.7580 C.3   2001  FOL2001     0.1683
     14  N10       15.8340    5.8380   17.0170 N.pl3 2001  FOL2001    -0.2303
     15  C11       16.2460    4.1170   20.7500 C.ar  2001  FOL2001     0.0551
     16  C12       15.6500    5.3650   20.5990 C.ar  2001  FOL2001     0.0059
     17  C13       15.5210    5.9260   19.3320 C.ar  2001  FOL2001     0.0162
     18  C14       15.9810    5.2470   18.2070 C.ar  2001  FOL2001     0.0658
     19  C15       16.5820    3.9940   18.3590 C.ar  2001  FOL2001     0.0162
     20  C16       16.7110    3.4310   19.6300 C.ar  2001  FOL2001     0.0059
     21  C         16.3760    3.5390   22.1260 C.2   2001  FOL2001     0.2652
     22  O         16.5080    4.4260   23.2150 O.2   2001  FOL2001    -0.2684
     23  N         16.3600    2.2160   22.2860 N.am  2001  FOL2001    -0.1918
     24  CA        16.8900    1.5790   23.4790 C.3   2001  FOL2001     0.1986
     25  CB        15.7910    1.4410   24.5310 C.3   2001  FOL2001     0.0451
     26  CG        16.3710    1.5090   25.9410 C.3   2001  FOL2001     0.1164
     27  CD        15.3090    1.2340   26.9820 C.2   2001  FOL2001     0.3649
     28  OE1       15.2510    1.9450   28.0090 O.co2 2001  FOL2001    -0.2457
     29  OE2       14.4860    0.2980   26.8450 O.co2 2001  FOL2001    -0.2457
     30  CT        17.4680    0.2320   23.1620 C.2   2001  FOL2001     0.3842
     31  O1        17.3210   -0.2750   22.0310 O.co2 2001  FOL2001    -0.2437
     32  O2        18.1110   -0.4070   24.0220 O.co2 2001  FOL2001    -0.2437
@<TRIPOS>BOND
     1    10    11    1
     2    10     9    1
     3    11    12    2
     4    13     9    1
     5    13    14    1
     6     9     8    2
     7    12     1    2
     8    12     7    1
     9     1     2    2
    10     8     7    2
    11     7     5    1
    12     2     3    1
    13     2     4    2
    14    14    18    1
    15     5     4    2
    16     5     6    2
    17    18    19   ar
    18    18    17   ar
    19    19    20   ar
    20    17    16   ar
    21    20    15   ar
    22    16    15   ar
    23    15    21    1
    24    31    30   ar
    25    21    23   am
    26    21    22    2
    27    23    24    1
    28    30    24    1
    29    30    32   ar
    30    24    25    1
    31    25    26    1
    32    26    27    1
    33    29    27   ar
    34    27    28   ar
