@<TRIPOS>MOLECULE
3tqb_NDP_A_1.pdb
 48 52 0 0 0
SMALL
GASTEIGER

@<TRIPOS>ATOM
      1  PA        18.9540    9.0110    8.0140 P.3   1001  NDP1001     0.2189
      2  O1A       18.3580    8.2940    6.8320 O.2   1001  NDP1001    -0.5170
      3  O2A       18.9850    8.3450    9.3650 O.3   1001  NDP1001    -0.4371
      4  O5B       20.4640    9.3870    7.6350 O.3   1001  NDP1001    -0.3112
      5  C5B       20.7640   10.2520    6.5390 C.3   1001  NDP1001     0.1813
      6  C4B       22.2800   10.3610    6.4490 C.3   1001  NDP1001     0.1820
      7  O4B       22.8480    9.0500    6.5300 O.3   1001  NDP1001    -0.3136
      8  C3B       22.8110   10.9740    5.1610 C.3   1001  NDP1001     0.2157
      9  O3B       23.0110   12.3890    5.2610 O.3   1001  NDP1001    -0.2175
     10  C2B       24.1270   10.2590    5.0060 C.3   1001  NDP1001     0.2314
     11  O2B       25.0650   10.8590    5.8920 O.3   1001  NDP1001    -0.2630
     12  C1B       23.8420    8.8630    5.5210 C.3   1001  NDP1001     0.3158
     13  N9A       23.3420    7.9360    4.4680 N.pl3 1001  NDP1001    -0.1439
     14  C8A       22.0540    7.5870    4.2670 C.3   1001  NDP1001     0.3377
     15  N7A       21.9460    6.7160    3.2300 N.2   1001  NDP1001    -0.2095
     16  C5A       23.1790    6.4860    2.7510 C.2   1001  NDP1001     0.2526
     17  C6A       23.7700    5.6680    1.6630 C.2   1001  NDP1001     0.4393
     18  N6A       22.9980    4.8980    0.8590 N.pl3 1001  NDP1001     0.2180
     19  N1A       25.1110    5.7130    1.4990 N.2   1001  NDP1001     0.0021
     20  C2A       25.9020    6.4690    2.2870 C.3   1001  NDP1001     0.5254
     21  N3A       25.4230    7.2340    3.2900 N.2   1001  NDP1001    -0.0055
     22  C4A       24.0970    7.2890    3.5720 C.2   1001  NDP1001     0.3518
     23  O3        18.2740   10.4640    8.1490 O.3   1001  NDP1001    -0.2703
     24  PN        16.7350   10.6910    8.5700 P.3   1001  NDP1001     0.2189
     25  O1N       15.8380   10.0660    7.5280 O.2   1001  NDP1001    -0.5170
     26  O2N       16.5800   12.1580    8.8920 O.3   1001  NDP1001    -0.4371
     27  O5D       16.5770    9.8450    9.9310 O.3   1001  NDP1001    -0.3112
     28  C5D       16.6260   10.4680   11.2150 C.3   1001  NDP1001     0.1813
     29  C4D       15.2280   10.8820   11.6530 C.3   1001  NDP1001     0.1799
     30  O4D       14.3100    9.8070   11.4320 O.3   1001  NDP1001    -0.3327
     31  C3D       15.1790   11.1820   13.1420 C.3   1001  NDP1001     0.2158
     32  O3D       14.2160   12.2060   13.4090 O.3   1001  NDP1001    -0.2175
     33  C2D       14.7340    9.8730   13.7560 C.3   1001  NDP1001     0.2309
     34  O2D       14.0530   10.0650   14.9980 O.3   1001  NDP1001    -0.2158
     35  C1D       13.8140    9.3150   12.6850 C.3   1001  NDP1001     0.2263
     36  N1N       13.7660    7.8510   12.6960 N.pl3 1001  NDP1001    -0.2787
     37  C2N       12.6440    7.2620   13.1510 C.3   1001  NDP1001     0.1244
     38  C3N       12.4990    5.8810   13.1940 C.2   1001  NDP1001     0.0544
     39  C7N       11.2340    5.2490   13.7060 C.2   1001  NDP1001     0.2818
     40  O7N       11.1340    4.0330   13.7320 O.2   1001  NDP1001    -0.2670
     41  N7N       10.2420    6.0320   14.1260 N.am  1001  NDP1001    -0.0839
     42  C4N       13.6530    5.0510   12.7060 C.2   1001  NDP1001     0.0033
     43  C5N       14.8270    5.7660   12.2290 C.2   1001  NDP1001     0.0157
     44  C6N       14.8250    7.1550   12.2460 C.2   1001  NDP1001     0.0633
     45  P2B       26.3740   11.6550    5.4290 P.3   1001  NDP1001     0.5328
     46  O1X       25.8570   13.0320    5.1050 O.3   1001  NDP1001    -0.1145
     47  O2X       27.2700   11.5900    6.6460 O.3   1001  NDP1001    -0.1145
     48  O3X       26.9010   10.8850    4.2470 O.2   1001  NDP1001    -0.2224
@<TRIPOS>BOND
     1    18    17    1
     2    19    17    2
     3    19    20    1
     4    17    16    1
     5    20    21    1
     6    16    15    2
     7    16    22    1
     8    15    14    1
     9    21    22    2
    10    22    13    1
    11    48    45    2
    12    14    13    1
    13    13    12    1
    14    10     8    1
    15    10    12    1
    16    10    11    1
    17    46    45    1
    18     8     9    1
    19     8     6    1
    20    45    11    1
    21    45    47    1
    22    12     7    1
    23     6     7    1
    24     6     5    1
    25     5     4    1
    26     2     1    2
    27    25    24    2
    28     4     1    1
    29     1    23    1
    30     1     3    1
    31    23    24    1
    32    24    26    1
    33    24    27    1
    34    27    28    1
    35    28    29    1
    36    30    29    1
    37    30    35    1
    38    29    31    1
    39    43    44    2
    40    43    42    1
    41    44    36    1
    42    35    36    1
    43    35    33    1
    44    36    37    1
    45    42    38    2
    46    31    32    1
    47    31    33    1
    48    37    38    1
    49    38    39    1
    50    39    40    2
    51    39    41   am
    52    33    34    1
