@<TRIPOS>MOLECULE
3tqc_ADP_A_1.pdb
 27 29 0 0 0
SMALL
GASTEIGER

@<TRIPOS>ATOM
      1  PB        -4.3910   -5.7810  -21.6650 P.3   500  ADP500      0.5373
      2  O1B       -3.2400   -5.5830  -22.5920 O.2   500  ADP500     -0.2221
      3  O2B       -5.3670   -4.6150  -21.6690 O.3   500  ADP500     -0.1143
      4  O3B       -4.0040   -6.1910  -20.2490 O.3   500  ADP500     -0.1143
      5  PA        -4.6770   -8.1770  -23.3150 P.3   500  ADP500      0.2231
      6  O1A       -4.4580   -7.5690  -24.6740 O.2   500  ADP500     -0.5169
      7  O2A       -3.6020   -9.0320  -22.7130 O.3   500  ADP500     -0.4370
      8  O3A       -5.2070   -7.0450  -22.2740 O.3   500  ADP500     -0.2261
      9  O5'       -5.9160   -9.1620  -23.4390 O.3   500  ADP500     -0.3111
     10  C5'       -6.5730   -9.6490  -22.2810 C.3   500  ADP500      0.1813
     11  C4'       -7.1160  -11.0370  -22.5490 C.3   500  ADP500      0.1821
     12  O4'       -8.1980  -10.9420  -23.4820 O.3   500  ADP500     -0.3135
     13  C3'       -6.0650  -11.9170  -23.1860 C.3   500  ADP500      0.2184
     14  O3'       -6.2390  -13.2730  -22.7590 O.3   500  ADP500     -0.2174
     15  C2'       -6.3490  -11.8180  -24.6670 C.3   500  ADP500      0.2570
     16  O2'       -5.9720  -13.0330  -25.3050 O.3   500  ADP500     -0.2130
     17  C1'       -7.8580  -11.5940  -24.7060 C.3   500  ADP500      0.3186
     18  N9        -8.3080  -10.7260  -25.8020 N.pl3 500  ADP500     -0.1439
     19  C8        -7.9700   -9.4300  -25.9510 C.3   500  ADP500      0.3377
     20  N7        -8.5600   -8.8980  -27.0350 N.2   500  ADP500     -0.2095
     21  C5        -9.2840   -9.8670  -27.5970 C.2   500  ADP500      0.2526
     22  C6       -10.1460   -9.9350  -28.7850 C.2   500  ADP500      0.4393
     23  N6       -10.2970   -8.8230  -29.5400 N.pl3 500  ADP500      0.2180
     24  N1       -10.7400  -11.1170  -29.0460 N.2   500  ADP500      0.0021
     25  C2       -10.5720  -12.2070  -28.2500 C.3   500  ADP500      0.5254
     26  N3        -9.7900  -12.2080  -27.1450 N.2   500  ADP500     -0.0055
     27  C4        -9.1350  -11.0780  -26.7840 C.2   500  ADP500      0.3518
@<TRIPOS>BOND
     1    23    22    1
     2    24    22    2
     3    24    25    1
     4    22    21    1
     5    25    26    1
     6    21    20    2
     7    21    27    1
     8    26    27    2
     9    20    19    1
    10    27    18    1
    11    19    18    1
    12    18    17    1
    13    16    15    1
    14    17    15    1
    15    17    12    1
    16     6     5    2
    17    15    13    1
    18    12    11    1
    19     9     5    1
    20     9    10    1
    21     5     7    1
    22     5     8    1
    23    13    14    1
    24    13    11    1
    25     2     1    2
    26    11    10    1
    27     8     1    1
    28     3     1    1
    29     1     4    1
