@<TRIPOS>MOLECULE
3tqh_NDP_A_1.pdb
 48 52 0 0 0
SMALL
GASTEIGER

@<TRIPOS>ATOM
      1  PA        17.4710   13.7140   73.0340 P.3   500  NDP500      0.2189
      2  O1A       18.5980   14.5920   73.4030 O.3   500  NDP500     -0.4371
      3  O2A       17.4260   13.4730   71.5790 O.2   500  NDP500     -0.5170
      4  O5B       16.0800   14.3740   73.4940 O.3   500  NDP500     -0.3112
      5  C5B       15.8970   15.7680   73.3380 C.3   500  NDP500      0.1813
      6  C4B       14.4340   16.1240   73.5520 C.3   500  NDP500      0.1820
      7  O4B       14.1530   16.1330   74.9360 O.3   500  NDP500     -0.3136
      8  C3B       14.0430   17.5010   73.0310 C.3   500  NDP500      0.2157
      9  O3B       13.2480   17.3620   71.8730 O.3   500  NDP500     -0.2175
     10  C2B       13.2780   18.1610   74.1740 C.3   500  NDP500      0.2314
     11  O2B       12.0290   18.6790   73.7730 O.3   500  NDP500     -0.2630
     12  C1B       13.0850   17.0230   75.1620 C.3   500  NDP500      0.3158
     13  N9A       13.0910   17.4280   76.5760 N.pl3 500  NDP500     -0.1439
     14  C8A       14.1360   17.9810   77.2740 C.3   500  NDP500      0.3377
     15  N7A       13.7440   18.1790   78.5490 N.2   500  NDP500     -0.2095
     16  C5A       12.4680   17.7610   78.6760 C.2   500  NDP500      0.2526
     17  C6A       11.6030   17.7480   79.7610 C.2   500  NDP500      0.4393
     18  N6A       12.0120   18.2100   80.9310 N.pl3 500  NDP500      0.2180
     19  N1A       10.3250   17.2600   79.6070 N.2   500  NDP500      0.0021
     20  C2A        9.9180   16.7810   78.3700 C.3   500  NDP500      0.5254
     21  N3A       10.7820   16.7870   77.2890 N.2   500  NDP500     -0.0055
     22  C4A       12.0420   17.2780   77.4440 C.2   500  NDP500      0.3518
     23  O3        17.5380   12.3310   73.8570 O.3   500  NDP500     -0.2703
     24  PN        17.1930   10.8540   73.3030 P.3   500  NDP500      0.2189
     25  O1N       18.2820   10.4090   72.4080 O.2   500  NDP500     -0.5170
     26  O2N       15.8030   10.7510   72.8350 O.3   500  NDP500     -0.4371
     27  O5D       17.3230   10.0270   74.6750 O.3   500  NDP500     -0.3112
     28  C5D       16.5790   10.3730   75.8270 C.3   500  NDP500      0.1813
     29  C4D       17.1930    9.7090   77.0550 C.3   500  NDP500      0.1799
     30  O4D       17.1560    8.3010   76.9190 O.3   500  NDP500     -0.3327
     31  C3D       18.6490   10.1110   77.2380 C.3   500  NDP500      0.2158
     32  O3D       18.8830   10.4230   78.5920 O.3   500  NDP500     -0.2175
     33  C2D       19.4310    8.8930   76.7940 C.3   500  NDP500      0.2309
     34  O2D       20.6810    8.7780   77.4490 O.3   500  NDP500     -0.2158
     35  C1D       18.4530    7.7590   77.1180 C.3   500  NDP500      0.2263
     36  N1N       18.6200    6.5300   76.3080 N.pl3 500  NDP500     -0.2787
     37  C2N       18.7010    5.3330   76.9760 C.3   500  NDP500      0.1244
     38  C3N       18.9160    4.1270   76.3130 C.2   500  NDP500      0.0544
     39  C7N       19.0010    2.8270   77.0580 C.2   500  NDP500      0.2818
     40  O7N       19.2350    1.6430   76.3260 O.2   500  NDP500     -0.2670
     41  N7N       18.8660    2.8140   78.3830 N.am  500  NDP500     -0.0839
     42  C4N       19.0650    4.1570   74.8180 C.2   500  NDP500      0.0033
     43  C5N       18.9560    5.4900   74.1490 C.2   500  NDP500      0.0157
     44  C6N       18.7330    6.6150   74.9380 C.2   500  NDP500      0.0633
     45  P2B       11.7730   20.2670   73.6840 P.3   500  NDP500      0.5328
     46  O1X       10.4720   20.4940   72.9560 O.3   500  NDP500     -0.1145
     47  O2X       12.8880   20.9300   72.9120 O.2   500  NDP500     -0.2224
     48  O3X       11.6790   20.8910   75.0500 O.3   500  NDP500     -0.1145
@<TRIPOS>BOND
     1     3     1    2
     2     9     8    1
     3    25    24    2
     4    26    24    1
     5    47    45    2
     6    46    45    1
     7     8     6    1
     8     8    10    1
     9     1     2    1
    10     1     4    1
    11     1    23    1
    12    24    23    1
    13    24    27    1
    14     5     4    1
    15     5     6    1
    16     6     7    1
    17    45    11    1
    18    45    48    1
    19    11    10    1
    20    43    42    1
    21    43    44    2
    22    10    12    1
    23    27    28    1
    24    42    38    2
    25     7    12    1
    26    44    36    1
    27    12    13    1
    28    28    29    1
    29    36    37    1
    30    36    35    1
    31    38    37    1
    32    38    39    1
    33    40    39    2
    34    13    14    1
    35    13    22    1
    36    33    35    1
    37    33    31    1
    38    33    34    1
    39    30    29    1
    40    30    35    1
    41    29    31    1
    42    39    41   am
    43    31    32    1
    44    14    15    1
    45    21    22    2
    46    21    20    1
    47    22    16    1
    48    20    19    1
    49    15    16    2
    50    16    17    1
    51    19    17    2
    52    17    18    1
