@<TRIPOS>MOLECULE
3tql_ARG_A_1.pdb
 12 11 0 0 0
SMALL
GASTEIGER

@<TRIPOS>ATOM
      1  N         22.5380   67.4560   11.4060 N.3     1  ARG1       -0.1208
      2  CA        21.3240   68.1230   10.8960 C.3     1  ARG1        0.1944
      3  C         21.2760   69.5760   11.3520 C.2     1  ARG1        0.3819
      4  O         22.2140   70.0140   12.0120 O.co2   1  ARG1       -0.2441
      5  CB        20.0450   67.4000   11.3390 C.3     1  ARG1        0.0343
      6  CG        19.9070   67.2510   12.8430 C.3     1  ARG1        0.0490
      7  CD        18.5970   66.5840   13.2490 C.3     1  ARG1        0.2205
      8  NE        18.6070   66.3140   14.6850 N.pl3   1  ARG1       -0.0865
      9  CZ        17.6030   65.7700   15.3600 C.cat   1  ARG1        0.5346
     10  NH1       16.4670   65.4330   14.7490 N.pl3   1  ARG1        0.1354
     11  NH2       17.7330   65.5780   16.6630 N.pl3   1  ARG1        0.1354
     12  OXT       20.3170   70.3200   11.0690 O.co2   1  ARG1       -0.2441
@<TRIPOS>BOND
     1     2     5    1
     2     2     3    1
     3     2     1    1
     4    12     3   ar
     5     5     6    1
     6     3     4   ar
     7     6     7    1
     8     7     8    1
     9     8     9    2
    10    10     9    1
    11     9    11    1
