@<TRIPOS>MOLECULE
3tqr_NHE_A_1.pdb
 13 13 0 0 0
SMALL
GASTEIGER

@<TRIPOS>ATOM
      1  C3'       19.6020   31.8340   29.6910 C.3   216  NHE216      0.0014
      2  C2'       19.6050   33.0030   28.7720 C.3   216  NHE216      0.0174
      3  C1'       20.8310   33.0530   27.9300 C.3   216  NHE216      0.0728
      4  C6'       21.0360   31.7630   27.2080 C.3   216  NHE216      0.0174
      5  N         20.7280   34.1540   26.9580 N.3   216  NHE216     -0.2177
      6  C1        21.9510   34.9240   26.8950 C.3   216  NHE216      0.1101
      7  C2        21.8410   36.4160   26.7570 C.3   216  NHE216      0.1240
      8  S         20.6260   37.2420   27.7480 S.3   216  NHE216     -0.1946
      9  O1        20.8780   36.9640   29.2040 O.3   216  NHE216     -0.3074
     10  O2        19.3220   36.7510   27.3790 O.3   216  NHE216     -0.3074
     11  O3        20.6820   38.7260   27.5320 O.3   216  NHE216     -0.3074
     12  C5'       21.0140   30.5920   28.1200 C.3   216  NHE216      0.0014
     13  C4'       19.7940   30.5470   28.9720 C.3   216  NHE216      0.0001
@<TRIPOS>BOND
     1     7     6    1
     2     7     8    1
     3     6     5    1
     4     5     3    1
     5     4     3    1
     6     4    12    1
     7    10     8    1
     8    11     8    1
     9     8     9    1
    10     3     2    1
    11    12    13    1
    12     2     1    1
    13    13     1    1
