@<TRIPOS>MOLECULE
3tqx_PLP_A_1.pdb
 16 16 0 0 0
SMALL
GASTEIGER

@<TRIPOS>ATOM
      1  N1        27.0260   18.1950   25.0680 N.ar  397  PLP397     -0.2452
      2  C2        27.0990   17.5680   26.2540 C.ar  397  PLP397      0.0982
      3  C2A       25.8420   17.2710   27.0040 C.3   397  PLP397      0.0555
      4  C3        28.3230   17.1950   26.7890 C.ar  397  PLP397      0.2120
      5  O3        28.3720   16.5540   28.0050 O.3   397  PLP397     -0.2852
      6  C4        29.4810   17.4820   26.0740 C.ar  397  PLP397      0.0822
      7  C4A       30.8330   17.1090   26.5930 C.2   397  PLP397      0.2372
      8  O4A       31.0500   17.0470   27.7990 O.2   397  PLP397     -0.2830
      9  C5        29.3730   18.1320   24.8530 C.ar  397  PLP397      0.0333
     10  C6        28.1280   18.4840   24.3590 C.ar  397  PLP397      0.0969
     11  C5A       30.5940   18.4560   24.0580 C.3   397  PLP397      0.1819
     12  O4P       31.1910   17.4100   23.3870 O.3   397  PLP397     -0.2653
     13  P         32.7100   17.4550   23.0460 P.3   397  PLP397      0.5329
     14  O1P       33.5230   17.3280   24.3140 O.3   397  PLP397     -0.1145
     15  O2P       33.0540   18.7580   22.3640 O.3   397  PLP397     -0.1145
     16  O3P       33.0240   16.3000   22.1280 O.2   397  PLP397     -0.2224
@<TRIPOS>BOND
     1    16    13    2
     2    15    13    1
     3    13    12    1
     4    13    14    1
     5    12    11    1
     6    11     9    1
     7    10     9   ar
     8    10     1   ar
     9     9     6   ar
    10     1     2   ar
    11     6     7    1
    12     6     4   ar
    13     2     4   ar
    14     2     3    1
    15     7     8    2
    16     4     5    1
