@<TRIPOS>MOLECULE
3tr0_5GP_A_1.pdb
 24 26 0 0 0
SMALL
GASTEIGER

@<TRIPOS>ATOM
      1  P        -16.0320   19.1960  -11.9820 P.3   205  5GP205      0.5327
      2  O1P      -14.9870   18.1560  -11.6610 O.3   205  5GP205     -0.1145
      3  O2P      -16.6990   19.9110  -10.8370 O.3   205  5GP205     -0.1145
      4  O3P      -17.0720   18.5670  -12.8800 O.2   205  5GP205     -0.2224
      5  O5'      -15.4190   20.2620  -12.9910 O.3   205  5GP205     -0.2675
      6  C5'      -16.0920   21.4790  -13.2650 C.3   205  5GP205      0.1859
      7  C4'      -15.3840   22.2630  -14.3370 C.3   205  5GP205      0.1801
      8  O4'      -14.4810   23.2070  -13.7270 O.3   205  5GP205     -0.3326
      9  C3'      -14.4870   21.4540  -15.2590 C.3   205  5GP205      0.2158
     10  O3'      -15.2030   20.8000  -16.2920 O.3   205  5GP205     -0.2175
     11  C2'      -13.4920   22.4890  -15.7720 C.3   205  5GP205      0.2310
     12  O2'      -14.0280   23.1790  -16.8910 O.3   205  5GP205     -0.2158
     13  C1'      -13.4110   23.4730  -14.5990 C.3   205  5GP205      0.2293
     14  N9       -12.1490   23.3550  -13.8480 N.pl3 205  5GP205     -0.2354
     15  C8       -11.6460   22.3060  -13.1840 C.3   205  5GP205      0.2246
     16  N7       -10.4650   22.6760  -12.6270 N.2   205  5GP205     -0.2322
     17  C5       -10.2440   23.9710  -12.9560 C.2   205  5GP205      0.2182
     18  C6        -9.2340   24.8910  -12.6960 C.1   205  5GP205      0.2372
     19  O6        -8.2310   24.5750  -12.0110 O.2   205  5GP205     -0.2069
     20  N1        -9.3410   26.1310  -13.1890 N.2   205  5GP205     -0.2485
     21  C2       -10.3950   26.5040  -13.9290 C.1   205  5GP205      0.2531
     22  N2       -10.4900   27.7610  -14.4230 N.pl3 205  5GP205     -0.0226
     23  N3       -11.3850   25.6350  -14.1990 N.2   205  5GP205     -0.3074
     24  C4       -11.3200   24.3780  -13.7150 C.2   205  5GP205      0.2300
@<TRIPOS>BOND
     1    12    11    1
     2    10     9    1
     3    11     9    1
     4    11    13    1
     5     9     7    1
     6    13    14    1
     7    13     8    1
     8    22    21    1
     9     7     8    1
    10     7     6    1
    11    23    21    2
    12    23    24    2
    13    21    20    2
    14    14    24    1
    15    14    15    1
    16    24    17    1
    17     6     5    1
    18    20    18    2
    19    15    16    1
    20     5     1    1
    21    17    18    1
    22    17    16    2
    23     4     1    2
    24    18    19    2
    25     1     2    1
    26     1     3    1
