@<TRIPOS>MOLECULE
3tr5_GDP_A_1.pdb
 28 30 0 0 0
SMALL
GASTEIGER

@<TRIPOS>ATOM
      1  PB         1.5210  -46.6990  -66.8350 P.3   527  GDP527      0.5373
      2  O1B        1.1400  -46.8730  -65.3880 O.3   527  GDP527     -0.1143
      3  O2B        0.2630  -46.5210  -67.6460 O.2   527  GDP527     -0.2221
      4  O3B        2.4330  -45.5080  -67.0010 O.3   527  GDP527     -0.1143
      5  O3A        2.2700  -48.0050  -67.3970 O.3   527  GDP527     -0.2261
      6  PA         3.8680  -48.1730  -67.4380 P.3   527  GDP527      0.2231
      7  O1A        4.4440  -47.5090  -68.6600 O.2   527  GDP527     -0.5169
      8  O2A        4.5460  -47.6830  -66.1810 O.3   527  GDP527     -0.4370
      9  O5'        3.9860  -49.7790  -67.5750 O.3   527  GDP527     -0.3111
     10  C5'        3.4480  -50.6400  -66.5800 C.3   527  GDP527      0.1813
     11  C4'        4.0300  -52.0340  -66.7610 C.3   527  GDP527      0.1799
     12  O4'        3.7070  -52.5070  -68.0710 O.3   527  GDP527     -0.3326
     13  C3'        5.5450  -51.9770  -66.6670 C.3   527  GDP527      0.2158
     14  O3'        6.0170  -53.1040  -65.9270 O.3   527  GDP527     -0.2175
     15  C2'        6.0190  -52.0900  -68.0980 C.3   527  GDP527      0.2310
     16  O2'        7.2680  -52.7850  -68.1740 O.3   527  GDP527     -0.2158
     17  C1'        4.8990  -52.8630  -68.7740 C.3   527  GDP527      0.2293
     18  N9         4.8090  -52.5180  -70.2150 N.pl3 527  GDP527     -0.2354
     19  C8         4.6610  -51.2920  -70.7570 C.3   527  GDP527      0.2246
     20  N7         4.6140  -51.3650  -72.1140 N.2   527  GDP527     -0.2322
     21  C5         4.7250  -52.6630  -72.4530 C.2   527  GDP527      0.2182
     22  C6         4.7470  -53.4540  -73.7060 C.1   527  GDP527      0.2372
     23  O6         4.6510  -52.9010  -74.8190 O.2   527  GDP527     -0.2069
     24  N1         4.8830  -54.7830  -73.6110 N.2   527  GDP527     -0.2485
     25  C2         4.9890  -55.4140  -72.4280 C.1   527  GDP527      0.2531
     26  N2         5.1160  -56.7630  -72.4090 N.pl3 527  GDP527     -0.0226
     27  N3         4.9740  -54.7570  -71.2430 N.2   527  GDP527     -0.3074
     28  C4         4.8500  -53.4130  -71.1970 C.2   527  GDP527      0.2300
@<TRIPOS>BOND
     1    23    22    2
     2    22    24    2
     3    22    21    1
     4    24    25    2
     5    21    20    2
     6    21    28    1
     7    25    26    1
     8    25    27    2
     9    20    19    1
    10    27    28    2
    11    28    18    1
    12    19    18    1
    13    18    17    1
    14    17    15    1
    15    17    12    1
    16     7     6    2
    17    16    15    1
    18    15    13    1
    19    12    11    1
    20     3     1    2
    21     9     6    1
    22     9    10    1
    23     6     5    1
    24     6     8    1
    25     5     1    1
    26     4     1    1
    27     1     2    1
    28    11    13    1
    29    11    10    1
    30    13    14    1
