@<TRIPOS>MOLECULE
3tr6_SAH_A_1.pdb
 26 28 0 0 0
SMALL
GASTEIGER

@<TRIPOS>ATOM
      1  N          7.5430   34.4580   -2.3790 N.3   224  SAH224     -0.1159
      2  CA         6.4050   34.0170   -1.6210 C.3   224  SAH224      0.2168
      3  CB         5.6940   35.1830   -0.9550 C.2   224  SAH224      0.0105
      4  CG         5.8010   35.2700    0.5500 C.2   224  SAH224      0.0284
      5  SD         4.7980   36.4970    1.3750 S.3   224  SAH224     -0.1108
      6  C          5.4510   33.3020   -2.5140 C.2   224  SAH224      0.3860
      7  O          4.2540   33.1520   -2.1430 O.co2 224  SAH224     -0.2437
      8  OXT        5.8240   32.8500   -3.6260 O.co2 224  SAH224     -0.2437
      9  C5'        5.6350   37.0770    2.8420 C.3   224  SAH224      0.0945
     10  C4'        6.2420   36.0860    3.6800 C.3   224  SAH224      0.1634
     11  O4'        7.3060   36.7070    4.4820 O.3   224  SAH224     -0.3152
     12  C3'        5.2590   35.5490    4.6440 C.3   224  SAH224      0.2168
     13  O3'        5.1770   34.1920    4.4930 O.3   224  SAH224     -0.2175
     14  C2'        5.7940   35.8840    5.9730 C.3   224  SAH224      0.2569
     15  O2'        5.5930   34.8490    6.8520 O.3   224  SAH224     -0.2130
     16  C1'        7.2450   36.0720    5.7210 C.3   224  SAH224      0.3185
     17  N9         7.9770   36.8460    6.7190 N.pl3 224  SAH224     -0.1439
     18  C8         7.5310   37.9110    7.4030 C.3   224  SAH224      0.3377
     19  N7         8.5210   38.3260    8.2100 N.2   224  SAH224     -0.2095
     20  C5         9.5940   37.5280    8.0390 C.2   224  SAH224      0.2526
     21  C6        10.8740   37.4850    8.6000 C.2   224  SAH224      0.4393
     22  N6        11.2730   38.4360    9.5880 N.pl3 224  SAH224      0.2180
     23  N1        11.7270   36.5290    8.1930 N.2   224  SAH224      0.0021
     24  C2        11.3680   35.6280    7.2690 C.3   224  SAH224      0.5254
     25  N3        10.1490   35.6410    6.7150 N.2   224  SAH224     -0.0055
     26  C4         9.2480   36.5760    7.0800 C.2   224  SAH224      0.3518
@<TRIPOS>BOND
     1     8     6   ar
     2     6     7   ar
     3     6     2    1
     4     1     2    1
     5     2     3    1
     6     3     4    2
     7     4     5    1
     8     5     9    1
     9     9    10    1
    10    10    11    1
    11    10    12    1
    12    11    16    1
    13    13    12    1
    14    12    14    1
    15    16    14    1
    16    16    17    1
    17    14    15    1
    18    25    26    2
    19    25    24    1
    20    17    26    1
    21    17    18    1
    22    26    20    1
    23    24    23    1
    24    18    19    1
    25    20    19    2
    26    20    21    1
    27    23    21    2
    28    21    22    1
