@<TRIPOS>MOLECULE
3tr9_PT1_A_1.pdb
 23 25 0 0 0
SMALL
GASTEIGER

@<TRIPOS>ATOM
      1  C2        -5.0110   -3.0550   -1.9070 C.1   1001  PT11001     0.2569
      2  C3        -6.0720   -2.4910   -1.2030 C.2   1001  PT11001     0.2988
      3  C5        -5.8100   -1.3930   -0.3940 C.1   1001  PT11001     0.1401
      4  N6        -7.3280   -2.9660   -1.2970 N.2   1001  PT11001    -0.3839
      5  C7        -3.5620   -1.5090   -1.0000 C.1   1001  PT11001     0.2609
      6  N9        -4.5500   -0.9450   -0.3130 N.2   1001  PT11001    -0.2672
      7  C10       -8.3230   -2.3890   -0.5990 C.2   1001  PT11001     0.1356
      8  N11       -2.2240   -0.9790   -0.8850 N.pl3 1001  PT11001    -0.0220
      9  C12       -8.0590   -1.2850    0.2160 C.3   1001  PT11001     0.1931
     10  C21      -13.1080   -6.5650   -5.0700 C.2   1001  PT11001     0.3878
     11  O22      -13.0360   -6.6300   -6.2670 O.co2 1001  PT11001    -0.2406
     12  O1        -5.2230   -4.1560   -2.7420 O.2   1001  PT11001    -0.2052
     13  N4        -3.7680   -2.5610   -1.7950 N.2   1001  PT11001    -0.2466
     14  N8        -6.8080   -0.8170    0.3080 N.2   1001  PT11001    -0.1992
     15  C13       -9.6920   -2.9260   -0.7490 C.3   1001  PT11001     0.1683
     16  N14      -10.2560   -2.5430   -2.0400 N.pl3 1001  PT11001    -0.2303
     17  C15      -11.0190   -3.5900   -2.8910 C.ar  1001  PT11001     0.0658
     18  C16      -11.7140   -4.5870   -2.2180 C.ar  1001  PT11001     0.0163
     19  C17      -10.9990   -3.5410   -4.2730 C.ar  1001  PT11001     0.0163
     20  C18      -12.3970   -5.5410   -2.9340 C.ar  1001  PT11001     0.0079
     21  C19      -11.6880   -4.5100   -4.9910 C.ar  1001  PT11001     0.0079
     22  C20      -12.3840   -5.4960   -4.3190 C.ar  1001  PT11001     0.0799
     23  O23      -13.7730   -7.4400   -4.3900 O.co2 1001  PT11001    -0.2406
@<TRIPOS>BOND
     1    11    10   ar
     2    10    23   ar
     3    10    22    1
     4    21    22   ar
     5    21    19   ar
     6    22    20   ar
     7    19    17   ar
     8    20    18   ar
     9    17    18   ar
    10    17    16    1
    11    12     1    2
    12    16    15    1
    13     1    13    2
    14     1     2    1
    15    13     5    2
    16     4     2    2
    17     4     7    2
    18     2     3    1
    19     5     8    1
    20     5     6    2
    21    15     7    1
    22     7     9    1
    23     3     6    2
    24     3    14    2
    25     9    14    1
