@<TRIPOS>MOLECULE
3tri_NAP_A_1.pdb
 48 52 0 0 0
SMALL
GASTEIGER

@<TRIPOS>ATOM
      1  PA        46.5810   -2.4290   22.2840 P.3   281  NAP281      0.2189
      2  O1A       46.8820   -2.8500   23.6710 O.3   281  NAP281     -0.4371
      3  O2A       45.7930   -3.4620   21.5760 O.2   281  NAP281     -0.5170
      4  O5B       47.9680   -2.1210   21.5330 O.3   281  NAP281     -0.3112
      5  C5B       48.1230   -1.0740   20.6010 C.3   281  NAP281      0.1813
      6  C4B       49.3520   -1.4180   19.7690 C.3   281  NAP281      0.1820
      7  O4B       50.2750   -0.3500   19.6860 O.3   281  NAP281     -0.3136
      8  C3B       50.1080   -2.5920   20.3760 C.3   281  NAP281      0.2157
      9  O3B       49.9290   -3.7150   19.5500 O.3   281  NAP281     -0.2175
     10  C2B       51.5670   -2.1770   20.4210 C.3   281  NAP281      0.2314
     11  O2B       52.3950   -3.1710   19.8660 O.3   281  NAP281     -0.2630
     12  C1B       51.5660   -0.9230   19.5650 C.3   281  NAP281      0.3158
     13  N9A       52.6770   -0.0190   19.9170 N.pl3 281  NAP281     -0.1439
     14  C8A       53.1430    0.2890   21.1680 C.3   281  NAP281      0.3377
     15  N7A       54.1770    1.1520   21.0370 N.2   281  NAP281     -0.2095
     16  C5A       54.3730    1.3960   19.7220 C.2   281  NAP281      0.2526
     17  C6A       55.2800    2.1910   19.0350 C.2   281  NAP281      0.4393
     18  N6A       56.1860    2.9010   19.7000 N.pl3 281  NAP281      0.2180
     19  N1A       55.2370    2.2420   17.6570 N.2   281  NAP281      0.0021
     20  C2A       54.3000    1.5070   16.9650 C.3   281  NAP281      0.5254
     21  N3A       53.4030    0.7180   17.6550 N.2   281  NAP281     -0.0055
     22  C4A       53.4410    0.6620   19.0080 C.2   281  NAP281      0.3518
     23  O3        45.8340   -1.0100   22.2390 O.3   281  NAP281     -0.2703
     24  PN        44.2860   -0.5930   22.1200 P.3   281  NAP281      0.2189
     25  O1N       43.4790   -1.3020   23.1360 O.3   281  NAP281     -0.4371
     26  O2N       43.9350   -0.6790   20.6880 O.2   281  NAP281     -0.5170
     27  O5D       44.4020    0.9490   22.5380 O.3   281  NAP281     -0.3112
     28  C5D       44.9700    1.8430   21.6130 C.3   281  NAP281      0.1813
     29  C4D       44.4800    3.2440   21.9180 C.3   281  NAP281      0.1799
     30  O4D       43.0880    3.3410   21.6730 O.3   281  NAP281     -0.3327
     31  C3D       44.7040    3.5360   23.3900 C.3   281  NAP281      0.2158
     32  O3D       45.3120    4.8000   23.5100 O.3   281  NAP281     -0.2175
     33  C2D       43.3130    3.5460   23.9900 C.3   281  NAP281      0.2309
     34  O2D       43.2130    4.5220   24.9970 O.3   281  NAP281     -0.2158
     35  C1D       42.4260    3.8780   22.8020 C.3   281  NAP281      0.2263
     36  N1N       41.0760    3.2970   22.9370 N.pl3 281  NAP281     -0.2787
     37  C2N       40.9060    1.9410   22.9850 C.3   281  NAP281      0.1244
     38  C3N       39.6290    1.4030   23.1120 C.2   281  NAP281      0.0544
     39  C7N       39.4350   -0.0820   23.1970 C.2   281  NAP281      0.2818
     40  O7N       38.1680   -0.5850   23.5550 O.2   281  NAP281     -0.2670
     41  N7N       40.4600   -0.8880   22.9280 N.am  281  NAP281     -0.0839
     42  C4N       38.5250    2.2420   23.1800 C.2   281  NAP281      0.0033
     43  C5N       38.7080    3.6160   23.1260 C.2   281  NAP281      0.0157
     44  C6N       39.9950    4.1310   23.0020 C.2   281  NAP281      0.0633
     45  P2B       52.7730   -4.4730   20.7400 P.3   281  NAP281      0.5328
     46  O1X       52.9620   -5.6270   19.7910 O.2   281  NAP281     -0.2224
     47  O2X       51.6770   -4.8000   21.7260 O.3   281  NAP281     -0.1145
     48  O3X       54.0430   -4.2220   21.5100 O.3   281  NAP281     -0.1145
@<TRIPOS>BOND
     1    20    21    1
     2    20    19    1
     3    21    22    2
     4    19    17    2
     5    22    16    1
     6    22    13    1
     7    17    18    1
     8    17    16    1
     9     9     8    1
    10    12     7    1
    11    12    13    1
    12    12    10    1
    13     7     6    1
    14    16    15    2
    15     6     8    1
    16     6     5    1
    17    46    45    2
    18    11    10    1
    19    11    45    1
    20    13    14    1
    21     8    10    1
    22     5     4    1
    23    26    24    2
    24    45    48    1
    25    45    47    1
    26    15    14    1
    27     4     1    1
    28     3     1    2
    29    28    29    1
    30    28    27    1
    31    30    29    1
    32    30    35    1
    33    29    31    1
    34    24    23    1
    35    24    27    1
    36    24    25    1
    37    23     1    1
    38     1     2    1
    39    35    36    1
    40    35    33    1
    41    41    39   am
    42    36    37    1
    43    36    44    1
    44    37    38    1
    45    44    43    2
    46    38    42    2
    47    38    39    1
    48    43    42    1
    49    39    40    2
    50    31    32    1
    51    31    33    1
    52    33    34    1
