@<TRIPOS>MOLECULE
3trl_UMP_A_1.pdb
 20 21 0 0 0
SMALL
GASTEIGER

@<TRIPOS>ATOM
      1  N1        -4.9290   57.5080   30.7930 N.am  777  UMP777     -0.1790
      2  C2        -3.7120   57.0460   30.3270 C.1   777  UMP777      0.2844
      3  N3        -2.8380   57.9060   29.6750 N.2   777  UMP777     -0.2452
      4  C4        -3.1580   59.2530   29.5340 C.1   777  UMP777      0.2182
      5  C5        -4.3860   59.7280   30.0290 C.2   777  UMP777      0.1242
      6  C6        -5.3080   58.8550   30.6200 C.2   777  UMP777      0.0928
      7  O2        -3.3830   55.8250   30.4170 O.2   777  UMP777     -0.1918
      8  O4        -2.3080   59.9690   28.9640 O.2   777  UMP777     -0.2085
      9  C1'       -5.8800   56.5960   31.4630 C.3   777  UMP777      0.2090
     10  C2'       -5.8120   56.8800   32.9820 C.3   777  UMP777      0.0874
     11  C3'       -7.0100   57.7750   33.2510 C.3   777  UMP777      0.1857
     12  C4'       -7.9950   57.1820   32.2600 C.3   777  UMP777      0.1774
     13  O3'       -7.4220   57.5910   34.5890 O.3   777  UMP777     -0.2203
     14  O4'       -7.2530   56.8330   31.1200 O.3   777  UMP777     -0.3339
     15  C5'       -9.1380   58.0810   31.8400 C.3   777  UMP777      0.1858
     16  O5'       -8.5260   59.2080   31.1840 O.3   777  UMP777     -0.2675
     17  P         -9.1060   60.6880   31.4780 P.3   777  UMP777      0.5327
     18  OP1      -10.5090   60.6700   31.4320 O.3   777  UMP777     -0.1145
     19  OP2       -8.6110   60.9310   32.9250 O.3   777  UMP777     -0.1145
     20  OP3       -8.3800   61.6490   30.5880 O.2   777  UMP777     -0.2224
@<TRIPOS>BOND
     1     8     4    2
     2     4     3    2
     3     4     5    1
     4     3     2    2
     5     5     6    2
     6     2     7    2
     7     2     1   am
     8    20    17    2
     9     6     1    1
    10     1     9    1
    11    14     9    1
    12    14    12    1
    13    16    17    1
    14    16    15    1
    15    18    17    1
    16     9    10    1
    17    17    19    1
    18    15    12    1
    19    12    11    1
    20    10    11    1
    21    11    13    1
