@<TRIPOS>MOLECULE
3trn_UMP_A_1.pdb
 20 21 0 0 0
SMALL
GASTEIGER

@<TRIPOS>ATOM
      1  N1        -4.9230   57.3140   30.5570 N.am  777  UMP777     -0.1790
      2  C2        -3.7320   56.8120   30.0980 C.1   777  UMP777      0.2844
      3  N3        -2.8720   57.6630   29.4510 N.2   777  UMP777     -0.2452
      4  C4        -3.1780   58.9930   29.2890 C.1   777  UMP777      0.2182
      5  C5        -4.4100   59.5150   29.7210 C.2   777  UMP777      0.1242
      6  C6        -5.2690   58.6390   30.3860 C.2   777  UMP777      0.0928
      7  O2        -3.4200   55.6140   30.2560 O.2   777  UMP777     -0.1918
      8  O4        -2.3520   59.6670   28.7020 O.2   777  UMP777     -0.2085
      9  C1'       -5.8250   56.4080   31.2480 C.3   777  UMP777      0.2090
     10  C2'       -5.7310   56.7280   32.7540 C.3   777  UMP777      0.0874
     11  C3'       -6.9790   57.5560   32.9860 C.3   777  UMP777      0.1857
     12  C4'       -7.9410   56.9210   32.0120 C.3   777  UMP777      0.1774
     13  O3'       -7.4360   57.3650   34.3010 O.3   777  UMP777     -0.2203
     14  O4'       -7.1800   56.6500   30.8530 O.3   777  UMP777     -0.3339
     15  C5'       -9.1210   57.7930   31.6160 C.3   777  UMP777      0.1858
     16  O5'       -8.5060   58.8920   30.9750 O.3   777  UMP777     -0.2675
     17  P         -9.0110   60.4120   31.2430 P.3   777  UMP777      0.5327
     18  OP1      -10.4040   60.4070   31.1270 O.3   777  UMP777     -0.1145
     19  OP2       -8.5500   60.6960   32.6870 O.3   777  UMP777     -0.1145
     20  OP3       -8.3340   61.3830   30.3740 O.2   777  UMP777     -0.2224
@<TRIPOS>BOND
     1     8     4    2
     2     4     3    2
     3     4     5    1
     4     3     2    2
     5     5     6    2
     6     2     7    2
     7     2     1   am
     8    20    17    2
     9     6     1    1
    10     1     9    1
    11    14     9    1
    12    14    12    1
    13    16    17    1
    14    16    15    1
    15    18    17    1
    16    17    19    1
    17     9    10    1
    18    15    12    1
    19    12    11    1
    20    10    11    1
    21    11    13    1
