@<TRIPOS>MOLECULE
3tro_FMN_A_1.pdb
 31 33 0 0 0
SMALL
GASTEIGER

@<TRIPOS>ATOM
      1  N1        12.0050  -55.8790   -0.7070 N.2   321  FMN321     -0.2887
      2  C2        12.5090  -56.8440   -1.5140 C.1   321  FMN321      0.3669
      3  O2        13.4470  -57.5590   -1.0720 O.2   321  FMN321     -0.1744
      4  N3        12.0360  -57.0550   -2.7700 N.2   321  FMN321     -0.2300
      5  C4        11.0490  -56.3240   -3.2810 C.1   321  FMN321      0.2513
      6  O4        10.6270  -56.5060   -4.4340 O.2   321  FMN321     -0.2057
      7  C4A       10.4450  -55.2590   -2.4660 C.2   321  FMN321      0.2703
      8  N5         9.4370  -54.4900   -2.9350 N.2   321  FMN321     -0.3882
      9  C5A        8.9110  -53.4830   -2.2130 C.2   321  FMN321      0.1277
     10  C6         7.8940  -52.6940   -2.7510 C.3   321  FMN321      0.0820
     11  C7         7.3410  -51.6750   -1.9750 C.2   321  FMN321     -0.0408
     12  C7M        6.2470  -50.8200   -2.5500 C.3   321  FMN321      0.0265
     13  C8         7.8700  -51.4100   -0.6040 C.2   321  FMN321     -0.0280
     14  C8M        7.3040  -50.3130    0.2540 C.3   321  FMN321      0.0304
     15  C9         8.8860  -52.2040   -0.0770 C.2   321  FMN321      0.0123
     16  C9A        9.4190  -53.2420   -0.8300 C.2   321  FMN321      0.0793
     17  N10       10.4650  -54.0580   -0.3190 N.pl3 321  FMN321     -0.2545
     18  C10       11.0020  -55.0720   -1.1150 C.2   321  FMN321      0.2449
     19  C1'       11.0090  -53.8510    1.0100 C.3   321  FMN321      0.1336
     20  C2'       12.0360  -52.7450    0.8700 C.3   321  FMN321      0.2048
     21  O2'       13.0680  -53.1790   -0.0280 O.3   321  FMN321     -0.2185
     22  C3'       12.6270  -52.4320    2.2360 C.3   321  FMN321      0.2165
     23  O3'       13.1400  -53.6630    2.7430 O.3   321  FMN321     -0.2175
     24  C4'       11.5930  -51.9140    3.2420 C.3   321  FMN321      0.2147
     25  O4'       10.5840  -51.1390    2.5720 O.3   321  FMN321     -0.2176
     26  C5'       12.2370  -51.1060    4.3850 C.3   321  FMN321      0.1892
     27  O5'       12.7620  -49.8680    3.8760 O.3   321  FMN321     -0.2674
     28  P         12.0740  -48.4390    4.1730 P.3   321  FMN321      0.5327
     29  O1P       13.2060  -47.5890    3.6490 O.3   321  FMN321     -0.1145
     30  O2P       11.8050  -48.3800    5.6330 O.3   321  FMN321     -0.1145
     31  O3P       10.7970  -48.4460    3.3700 O.2   321  FMN321     -0.2224
@<TRIPOS>BOND
     1     6     5    2
     2     5     4    2
     3     5     7    1
     4     8     7    2
     5     8     9    2
     6     4     2    2
     7    10     9    1
     8    10    11    1
     9    12    11    1
    10     7    18    1
    11     9    16    1
    12    11    13    2
    13     2     3    2
    14     2     1    2
    15    18     1    2
    16    18    17    1
    17    16    17    1
    18    16    15    2
    19    13    15    1
    20    13    14    1
    21    17    19    1
    22    21    20    1
    23    20    19    1
    24    20    22    1
    25    22    23    1
    26    22    24    1
    27    25    24    1
    28    24    26    1
    29    31    28    2
    30    29    28    1
    31    27    28    1
    32    27    26    1
    33    28    30    1
