@<TRIPOS>MOLECULE
3tru_ISJ_D_1.pdb
 16 16 0 0 0
SMALL
GASTEIGER

@<TRIPOS>ATOM
      1  C1       -34.8120  -21.3840  -42.8150 C.ar  173  ISJ173      0.1844
      2  C2       -34.0910  -20.1330  -42.2820 C.ar  173  ISJ173      0.0474
      3  C3       -34.7670  -19.2340  -41.4080 C.ar  173  ISJ173      0.0830
      4  C4       -36.1990  -19.5230  -41.0790 C.ar  173  ISJ173      0.0101
      5  C5       -36.7580  -20.6460  -41.4530 C.ar  173  ISJ173      0.0454
      6  C6       -36.1450  -21.7890  -42.1410 C.ar  173  ISJ173      0.2299
      7  C7       -34.1330  -18.0540  -40.8450 C.2   173  ISJ173      0.3879
      8  O8       -33.0820  -17.7670  -41.0870 O.co2 173  ISJ173     -0.2406
      9  O9       -34.8070  -17.3100  -39.9990 O.co2 173  ISJ173     -0.2406
     10  O10      -37.0680  -22.1900  -43.0690 O.3   173  ISJ173     -0.2833
     11  O11      -33.8530  -22.4650  -42.9100 O.3   173  ISJ173     -0.4436
     12  C12      -34.3490  -23.7630  -43.1170 C.2   173  ISJ173      0.2247
     13  C13      -34.5040  -24.3830  -44.4900 C.2   173  ISJ173      0.4216
     14  O14      -35.0470  -23.7270  -45.3520 O.co2 173  ISJ173     -0.2371
     15  O15      -34.0210  -25.5970  -44.7040 O.co2 173  ISJ173     -0.2371
     16  C16      -34.6470  -24.5440  -42.0480 C.2   173  ISJ173      0.0477
@<TRIPOS>BOND
     1    14    13   ar
     2    15    13   ar
     3    13    12    1
     4    12    11    1
     5    12    16    2
     6    10     6    1
     7    11     1    1
     8     1     2   ar
     9     1     6   ar
    10     2     3   ar
    11     6     5   ar
    12     5     4   ar
    13     3     4   ar
    14     3     7    1
    15     8     7   ar
    16     7     9   ar
