@<TRIPOS>MOLECULE
3ts1_TYA_A_1.pdb
 34 37 0 0 0
SMALL
GASTEIGER

@<TRIPOS>ATOM
      1  OPP      -12.3270   14.4590   -6.9880 O.3   420  TYA420     -0.3125
      2  P        -13.2550   15.2530   -7.9460 P.3   420  TYA420      0.2141
      3  O1P      -12.6530   16.1560   -8.9500 O.3   420  TYA420     -0.4373
      4  O2P      -13.9680   14.4650   -8.9550 O.2   420  TYA420     -0.5172
      5  O5'      -14.2600   16.0430   -7.0370 O.3   420  TYA420     -0.3114
      6  C5'      -15.3610   16.7390   -7.5980 C.3   420  TYA420      0.1813
      7  C4'      -16.4410   16.7540   -6.4820 C.3   420  TYA420      0.1821
      8  O4'      -17.6790   16.6710   -7.2500 O.3   420  TYA420     -0.3135
      9  C3'      -16.4330   15.5200   -5.5730 C.3   420  TYA420      0.2184
     10  O3'      -17.0530   15.7000   -4.3270 O.3   420  TYA420     -0.2174
     11  C2'      -17.2380   14.4760   -6.3640 C.3   420  TYA420      0.2570
     12  O2'      -17.9190   13.5880   -5.4460 O.3   420  TYA420     -0.2130
     13  C1'      -18.1670   15.3790   -7.1030 C.3   420  TYA420      0.3186
     14  N9       -18.9610   14.9300   -8.2110 N.pl3 420  TYA420     -0.1439
     15  C8       -18.6640   14.7060   -9.5090 C.3   420  TYA420      0.3377
     16  N7       -19.7090   14.3040  -10.2390 N.2   420  TYA420     -0.2095
     17  C5       -20.7410   14.2380   -9.3130 C.2   420  TYA420      0.2526
     18  C6       -22.1130   13.9090   -9.4540 C.2   420  TYA420      0.4393
     19  N6       -22.6990   13.5030  -10.5820 N.pl3 420  TYA420      0.2180
     20  N1       -22.8630   13.9860   -8.3190 N.2   420  TYA420      0.0021
     21  C2       -22.2920   14.4240   -7.1590 C.3   420  TYA420      0.5254
     22  N3       -21.0690   14.7640   -6.9540 N.2   420  TYA420     -0.0055
     23  C4       -20.3210   14.6550   -8.0850 C.2   420  TYA420      0.3518
     24  NH2      -10.5240   13.6770   -4.9760 N.3   420  TYA420     -0.1299
     25  CA       -11.5620   14.6850   -4.6540 C.3   420  TYA420      0.1261
     26  C        -12.7180   14.5020   -5.6000 C.3   420  TYA420      0.1683
     27  CB       -10.9440   16.0790   -4.7150 C.3   420  TYA420      0.0479
     28  CG       -10.3080   16.4210   -3.5070 C.ar  420  TYA420     -0.0204
     29  CD1      -11.0520   16.4480   -2.3370 C.ar  420  TYA420     -0.0009
     30  CD2       -8.9350   16.7430   -3.4530 C.ar  420  TYA420     -0.0009
     31  CE1      -10.4560   16.8070   -1.1260 C.ar  420  TYA420      0.0417
     32  CE2       -8.3310   17.0590   -2.2300 C.ar  420  TYA420      0.0417
     33  CZ        -9.0950   17.1040   -1.0700 C.ar  420  TYA420      0.1957
     34  OH        -8.5840   17.4200    0.1420 O.3   420  TYA420     -0.2866
@<TRIPOS>BOND
     1    19    18    1
     2    16    15    1
     3    16    17    2
     4    15    14    1
     5    18    17    1
     6    18    20    2
     7    17    23    1
     8     4     2    2
     9     3     2    1
    10    20    21    1
    11    14    23    1
    12    14    13    1
    13    23    22    2
    14     2     5    1
    15     2     1    1
    16     6     5    1
    17     6     7    1
    18     8    13    1
    19     8     7    1
    20    21    22    1
    21    13    11    1
    22     1    26    1
    23     7     9    1
    24    11     9    1
    25    11    12    1
    26    26    25    1
    27     9    10    1
    28    24    25    1
    29    27    25    1
    30    27    28    1
    31    28    30   ar
    32    28    29   ar
    33    30    32   ar
    34    29    31   ar
    35    32    33   ar
    36    31    33   ar
    37    33    34    1
