@<TRIPOS>MOLECULE
3ts4_EEG_A_1.pdb
 40 42 0 0 0
SMALL
GASTEIGER

@<TRIPOS>ATOM
      1  O2        10.2960   26.6000    3.2930 O.2   306  EEG306     -0.2733
      2  S7         2.8430   22.5900    7.7400 S.2   306  EEG306     -0.0864
      3  C11        9.1700   26.7020    2.7720 C.2   306  EEG306      0.2421
      4  C12        7.9050   26.4690    3.6460 C.3   306  EEG306      0.0915
      5  C13        7.4490   25.0310    3.4090 C.3   306  EEG306      0.0360
      6  C14        4.9870   25.1020    3.7560 C.ar  306  EEG306     -0.0042
      7  C15        5.2110   23.4950    6.0110 C.ar  306  EEG306      0.0002
      8  C16        3.9630   23.9550    5.5660 C.ar  306  EEG306      0.0060
      9  C17        3.8360   24.7570    4.4470 C.ar  306  EEG306      0.0002
     10  C18        2.7260   23.5580    6.3890 C.ar  306  EEG306      0.0295
     11  C19        1.4020   23.9480    6.2260 C.ar  306  EEG306      0.0070
     12  C20        0.5550   23.3870    7.2140 C.ar  306  EEG306      0.0070
     13  C21       -0.9070   23.6320    7.2560 C.ar  306  EEG306      0.0005
     14  C22       -1.4140   24.7630    6.6430 C.ar  306  EEG306      0.0000
     15  C23       -2.7780   25.0010    6.6840 C.ar  306  EEG306      0.0000
     16  C24       -3.6090   24.1210    7.3230 C.ar  306  EEG306      0.0000
     17  C25       -3.0990   22.9760    7.9370 C.ar  306  EEG306      0.0000
     18  C26       -1.7380   22.7380    7.9000 C.ar  306  EEG306      0.0000
     19  C27        6.2070   24.6350    4.1910 C.ar  306  EEG306     -0.0217
     20  C28        6.3380   23.8440    5.3340 C.ar  306  EEG306     -0.0042
     21  C29        1.2020   22.5930    8.1570 C.ar  306  EEG306      0.0354
     22  N2         8.9990   26.9740    1.3920 N.am  306  EEG306     -0.1978
     23  C7        10.1740   27.1430    0.5750 C.3   306  EEG306      0.1733
     24  C6        10.6320   28.5370    0.3510 C.2   306  EEG306      0.2616
     25  O1        11.6390   28.7550   -0.3700 O.2   306  EEG306     -0.2715
     26  C8         9.7600   26.4780   -0.7010 C.3   306  EEG306      0.0429
     27  C9         9.5700   25.0040   -0.5840 C.3   306  EEG306      0.1163
     28  C10        8.0960   24.6090   -0.3200 C.2   306  EEG306      0.3649
     29  O4E        7.3120   25.4190   -0.7680 O.co2 306  EEG306     -0.2457
     30  O4         7.8420   23.6230    0.2760 O.co2 306  EEG306     -0.2457
     31  N1         9.9160   29.5950    0.9410 N.am  306  EEG306     -0.1963
     32  C2        10.3470   31.0270    0.7240 C.3   306  EEG306      0.1750
     33  C1        10.5670   31.6680    1.9950 C.2   306  EEG306      0.2806
     34  O9         9.9440   31.2660    3.0430 O.2   306  EEG306     -0.2698
     35  C3         9.3400   31.8540   -0.0930 C.3   306  EEG306      0.0430
     36  C4         8.5150   31.1890   -0.9620 C.3   306  EEG306      0.1163
     37  C5         9.0700   31.1520   -2.4250 C.2   306  EEG306      0.3649
     38  O8E        9.6360   30.0260   -2.8320 O.co2 306  EEG306     -0.2457
     39  O8         9.0260   32.1650   -3.1490 O.co2 306  EEG306     -0.2457
     40  N9        11.5260   32.8040    2.0900 N.am  306  EEG306     -0.0863
@<TRIPOS>BOND
     1    39    37   ar
     2    38    37   ar
     3    37    36    1
     4    36    35    1
     5    29    28   ar
     6    26    27    1
     7    26    23    1
     8    27    28    1
     9    25    24    2
    10    28    30   ar
    11    35    32    1
    12    24    23    1
    13    24    31   am
    14    23    22    1
    15    32    31    1
    16    32    33    1
    17    22     3   am
    18    33    40   am
    19    33    34    2
    20     3     1    2
    21     3     4    1
    22     5     4    1
    23     5    19    1
    24     6    19   ar
    25     6     9   ar
    26    19    20   ar
    27     9     8   ar
    28    20     7   ar
    29     8     7   ar
    30     8    10    1
    31    11    10   ar
    32    11    12   ar
    33    10     2   ar
    34    14    15   ar
    35    14    13   ar
    36    15    16   ar
    37    12    13    1
    38    12    21   ar
    39    13    18   ar
    40    16    17   ar
    41     2    21   ar
    42    18    17   ar
