@<TRIPOS>MOLECULE
3ts6_UMP_A_1.pdb
 20 21 0 0 0
SMALL
GASTEIGER

@<TRIPOS>ATOM
      1  N1        -5.0630   57.4380   30.5710 N.am  777  UMP777     -0.1790
      2  C2        -3.8480   56.9960   30.1200 C.1   777  UMP777      0.2844
      3  N3        -3.0090   57.8520   29.4510 N.2   777  UMP777     -0.2452
      4  C4        -3.3410   59.1750   29.2400 C.1   777  UMP777      0.2182
      5  C5        -4.5830   59.6310   29.6930 C.2   777  UMP777      0.1242
      6  C6        -5.4590   58.7290   30.3440 C.2   777  UMP777      0.0928
      7  O2        -3.4930   55.8270   30.2860 O.2   777  UMP777     -0.1918
      8  O4        -2.5230   59.8800   28.6270 O.2   777  UMP777     -0.2085
      9  C1'       -5.9660   56.5060   31.2790 C.3   777  UMP777      0.2090
     10  C2'       -5.8810   56.9110   32.7620 C.3   777  UMP777      0.0874
     11  C3'       -7.1760   57.6690   32.9920 C.3   777  UMP777      0.1857
     12  C4'       -8.0690   56.9210   32.0150 C.3   777  UMP777      0.1774
     13  O3'       -7.6820   57.6150   34.3400 O.3   777  UMP777     -0.2203
     14  O4'       -7.3080   56.6880   30.8710 O.3   777  UMP777     -0.3339
     15  C5'       -9.3120   57.6810   31.5870 C.3   777  UMP777      0.1858
     16  O5'       -8.8800   58.8420   30.9010 O.3   777  UMP777     -0.2675
     17  P         -9.9830   59.8770   30.3020 P.3   777  UMP777      0.5327
     18  OP1      -10.5470   59.2890   29.0480 O.2   777  UMP777     -0.2224
     19  OP2      -11.1850   60.0900   31.1430 O.3   777  UMP777     -0.1145
     20  OP3       -9.2330   61.1250   30.1180 O.3   777  UMP777     -0.1145
@<TRIPOS>BOND
     1     8     4    2
     2    18    17    2
     3     4     3    2
     4     4     5    1
     5     3     2    2
     6     5     6    2
     7    20    17    1
     8     2     7    2
     9     2     1   am
    10    17    16    1
    11    17    19    1
    12     6     1    1
    13     1     9    1
    14    14     9    1
    15    14    12    1
    16    16    15    1
    17     9    10    1
    18    15    12    1
    19    12    11    1
    20    10    11    1
    21    11    13    1
