@<TRIPOS>MOLECULE
3tsa_GLC_B_1.pdb
 12 12 0 0 0
SMALL
GASTEIGER

@<TRIPOS>ATOM
      1  C1         9.6850   71.6870  -28.7870 C.2   391  GLC391      0.3505
      2  C2         8.3210   71.9030  -29.4430 C.3   391  GLC391      0.2823
      3  C3         8.3430   72.6240  -30.7640 C.3   391  GLC391      0.2270
      4  C4         9.4790   73.6690  -30.7190 C.3   391  GLC391      0.2276
      5  C5        10.8670   73.2220  -30.1360 C.3   391  GLC391      0.2344
      6  C6        11.4580   74.1100  -28.9340 C.3   391  GLC391      0.2281
      7  O1         9.8900   70.5690  -28.0330 O.2   391  GLC391     -0.2472
      8  O2         7.4300   70.8020  -29.4960 O.3   391  GLC391     -0.2082
      9  O3         7.1480   73.2970  -30.7780 O.3   391  GLC391     -0.2169
     10  O4         9.5070   74.2040  -32.0650 O.3   391  GLC391     -0.2163
     11  O5        10.8920   72.0270  -29.4420 O.3   391  GLC391     -0.4450
     12  O6        11.6150   73.5960  -27.5200 O.3   391  GLC391     -0.2163
@<TRIPOS>BOND
     1    10     4    1
     2     9     3    1
     3     3     4    1
     4     3     2    1
     5     4     5    1
     6     5    11    1
     7     5     6    1
     8     8     2    1
     9     2     1    1
    10    11     1    1
    11     6    12    1
    12     1     7    2
