@<TRIPOS>MOLECULE
3tsc_NAD_A_1.pdb
 44 48 0 0 0
SMALL
GASTEIGER

@<TRIPOS>ATOM
      1  PA       -26.7940   11.5820   -2.2130 P.3   274  NAD274      0.2189
      2  O1A      -27.5560   10.3220   -2.3930 O.2   274  NAD274     -0.5170
      3  O2A      -27.4370   12.7280   -1.4920 O.3   274  NAD274     -0.4371
      4  O5B      -25.4080   11.1880   -1.4940 O.3   274  NAD274     -0.3112
      5  C5B      -24.6100   12.1210   -0.8150 C.3   274  NAD274      0.1813
      6  C4B      -24.3100   11.5160    0.5490 C.3   274  NAD274      0.1821
      7  O4B      -23.4010   12.4030    1.2030 O.3   274  NAD274     -0.3135
      8  C3B      -25.5650   11.4210    1.4340 C.3   274  NAD274      0.2184
      9  O3B      -25.6330   10.1480    2.1190 O.3   274  NAD274     -0.2174
     10  C2B      -25.3850   12.5600    2.4250 C.3   274  NAD274      0.2570
     11  O2B      -25.9760   12.2930    3.7090 O.3   274  NAD274     -0.2130
     12  C1B      -23.8560   12.6660    2.5230 C.3   274  NAD274      0.3186
     13  N9A      -23.4600   14.0140    2.9900 N.pl3 274  NAD274     -0.1439
     14  C8A      -23.9540   15.2160    2.5510 C.3   274  NAD274      0.3377
     15  N7A      -23.3720   16.2450    3.2200 N.2   274  NAD274     -0.2095
     16  C5A      -22.5000   15.7000    4.1150 C.2   274  NAD274      0.2526
     17  C6A      -21.5460   16.2000    5.1470 C.2   274  NAD274      0.4393
     18  N6A      -21.3970   17.5260    5.3980 N.pl3 274  NAD274      0.2180
     19  N1A      -20.8010   15.2910    5.8280 N.2   274  NAD274      0.0021
     20  C2A      -20.9070   13.9730    5.6210 C.3   274  NAD274      0.5254
     21  N3A      -21.7590   13.4360    4.7320 N.2   274  NAD274     -0.0055
     22  C4A      -22.5520   14.2360    3.9540 C.2   274  NAD274      0.3518
     23  O3       -26.2500   12.1610   -3.6440 O.3   274  NAD274     -0.2703
     24  PN       -25.0470   11.5560   -4.5300 P.3   274  NAD274      0.2189
     25  O1N      -25.5430   11.6920   -5.9590 O.2   274  NAD274     -0.5170
     26  O2N      -24.6580   10.1700   -4.1100 O.3   274  NAD274     -0.4371
     27  O5D      -23.8350   12.5690   -4.2430 O.3   274  NAD274     -0.3112
     28  C5D      -22.4370   12.2330   -4.1530 C.3   274  NAD274      0.1813
     29  C4D      -21.5750   13.3430   -4.7980 C.3   274  NAD274      0.1799
     30  O4D      -21.8680   13.4300   -6.1990 O.3   274  NAD274     -0.3327
     31  C3D      -21.7780   14.7730   -4.2410 C.3   274  NAD274      0.2158
     32  O3D      -20.5020   15.4960   -4.0980 O.3   274  NAD274     -0.2175
     33  C2D      -22.6300   15.4400   -5.3010 C.3   274  NAD274      0.2309
     34  O2D      -22.5490   16.8710   -5.2950 O.3   274  NAD274     -0.2158
     35  C1D      -22.0530   14.8160   -6.5600 C.3   274  NAD274      0.2263
     36  N1N      -22.8760   14.9010   -7.7800 N.pl3 274  NAD274     -0.2787
     37  C2N      -24.1190   14.3470   -7.8510 C.3   274  NAD274      0.1244
     38  C3N      -24.8560   14.4010   -9.0300 C.2   274  NAD274      0.0544
     39  C7N      -26.2400   13.7830   -9.1310 C.2   274  NAD274      0.2818
     40  O7N      -26.9390   14.0500  -10.0950 O.2   274  NAD274     -0.2670
     41  N7N      -26.6580   12.9350   -8.1860 N.am  274  NAD274     -0.0839
     42  C4N      -24.3010   15.0370  -10.1470 C.2   274  NAD274      0.0033
     43  C5N      -23.0250   15.6050  -10.0620 C.2   274  NAD274      0.0157
     44  C6N      -22.3460   15.5060   -8.8540 C.2   274  NAD274      0.0633
@<TRIPOS>BOND
     1    42    43    1
     2    42    38    2
     3    40    39    2
     4    43    44    2
     5    39    38    1
     6    39    41   am
     7    38    37    1
     8    44    36    1
     9    37    36    1
    10    36    35    1
    11    35    30    1
    12    35    33    1
    13    30    29    1
    14    25    24    2
    15    33    34    1
    16    33    31    1
    17    29    31    1
    18    29    28    1
    19    24    27    1
    20    24    26    1
    21    24    23    1
    22    27    28    1
    23    31    32    1
    24    23     1    1
    25     2     1    2
    26     1     4    1
    27     1     3    1
    28     4     5    1
    29     5     6    1
    30     6     7    1
    31     6     8    1
    32     7    12    1
    33     8     9    1
    34     8    10    1
    35    10    12    1
    36    10    11    1
    37    12    13    1
    38    14    13    1
    39    14    15    1
    40    13    22    1
    41    15    16    2
    42    22    16    1
    43    22    21    2
    44    16    17    1
    45    21    20    1
    46    17    18    1
    47    17    19    2
    48    20    19    1
