@<TRIPOS>MOLECULE
3tsd_XMP_A_1.pdb
 24 26 0 0 0
SMALL
GASTEIGER

@<TRIPOS>ATOM
      1  P        -44.3870   46.7520    1.4130 P.3   500  XMP500      0.5327
      2  O1P      -44.4730   45.2770    1.6310 O.3   500  XMP500     -0.1145
      3  O2P      -45.6640   47.5440    1.0200 O.2   500  XMP500     -0.2224
      4  O5'      -43.1780   47.1060    0.4300 O.3   500  XMP500     -0.2675
      5  O3P      -43.9530   47.3130    2.7450 O.3   500  XMP500     -0.1145
      6  C5'      -41.8760   46.5860    0.6620 C.3   500  XMP500      0.1859
      7  C4'      -40.8810   47.0950   -0.3500 C.3   500  XMP500      0.1801
      8  O4'      -40.6720   48.5140   -0.1620 O.3   500  XMP500     -0.3326
      9  C1'      -39.3590   48.8650   -0.5620 C.3   500  XMP500      0.2293
     10  N9       -38.7100   49.5970    0.5420 N.pl3 500  XMP500     -0.2353
     11  C4       -38.0390   50.7550    0.3990 C.2   500  XMP500      0.2316
     12  N3       -37.7400   51.5600   -0.6360 N.2   500  XMP500     -0.2901
     13  N1       -36.5880   53.0510    0.7560 N.2   500  XMP500     -0.2311
     14  C2       -37.0240   52.6840   -0.4580 C.1   500  XMP500      0.3668
     15  O2       -36.7410   53.4660   -1.5390 O.2   500  XMP500     -0.1744
     16  C6       -36.8560   52.2880    1.8330 C.1   500  XMP500      0.2388
     17  O6       -36.3890   52.6750    3.1180 O.2   500  XMP500     -0.2068
     18  C5       -37.5940   51.1110    1.6760 C.2   500  XMP500      0.2183
     19  N7       -38.0130   50.1590    2.5330 N.2   500  XMP500     -0.2322
     20  C8       -38.6960   49.2360    1.8350 C.3   500  XMP500      0.2246
     21  C2'      -38.6080   47.5760   -0.9160 C.3   500  XMP500      0.2310
     22  O2'      -38.6070   47.4280   -2.3290 O.3   500  XMP500     -0.2158
     23  C3'      -39.4810   46.5080   -0.2530 C.3   500  XMP500      0.2158
     24  O3'      -39.3740   45.2260   -0.8490 O.3   500  XMP500     -0.2175
@<TRIPOS>BOND
     1    22    21    1
     2    15    14    2
     3    21     9    1
     4    21    23    1
     5    24    23    1
     6    12    14    2
     7    12    11    2
     8     9     8    1
     9     9    10    1
    10    14    13    2
    11     7    23    1
    12     7     8    1
    13     7     6    1
    14    11    10    1
    15    11    18    1
    16     4     6    1
    17     4     1    1
    18    10    20    1
    19    13    16    2
    20     3     1    2
    21     1     2    1
    22     1     5    1
    23    18    16    1
    24    18    19    2
    25    16    17    2
    26    20    19    1
