@<TRIPOS>MOLECULE
3tse_5EO_A_1.pdb
 29 31 0 0 0
SMALL
GASTEIGER

@<TRIPOS>ATOM
      1  CAA       28.8510  -12.6280   19.4270 C.3   901  5EO901      0.0040
      2  CAB       26.3800  -18.4230   15.0500 C.3   901  5EO901      0.0076
      3  CAC       23.5980  -22.2730   19.7340 C.3   901  5EO901      0.0897
      4  OAD       30.8700  -15.3490   16.7990 O.2   901  5EO901     -0.2130
      5  OAE       28.0510  -20.7920   24.2250 O.2   901  5EO901     -0.1528
      6  OAF       29.1840  -21.6470   22.2100 O.2   901  5EO901     -0.1528
      7  CAG       27.6840  -18.0960   22.8620 C.ar  901  5EO901      0.0231
      8  CAH       27.6530  -16.7600   22.3570 C.ar  901  5EO901      0.0390
      9  CAI       28.3000  -18.9410   20.7300 C.ar  901  5EO901      0.0350
     10  CAJ       29.3690  -17.0730   16.1160 C.3   901  5EO901      0.1904
     11  CAK       27.7940  -12.8110   20.4830 C.3   901  5EO901      0.0473
     12  CAL       27.7390  -18.9170   15.4110 C.3   901  5EO901      0.0566
     13  CAM       27.7810  -14.1130   21.1980 C.3   901  5EO901      0.2054
     14  CAN       24.2090  -21.7940   22.0790 C.3   901  5EO901      0.0915
     15  CAO       25.6330  -23.1600   20.6700 C.3   901  5EO901      0.0915
     16  CAP       25.3590  -20.8630   22.2800 C.3   901  5EO901      0.1131
     17  CAQ       26.7460  -22.1820   20.8670 C.3   901  5EO901      0.1131
     18  NAR       28.0770  -18.1610   17.7670 N.2   901  5EO901     -0.3468
     19  NAS       29.5600  -16.4780   18.3780 N.2   901  5EO901     -0.2699
     20  OAT       27.9490  -15.2340   20.4020 O.3   901  5EO901     -0.4747
     21  CAU       28.4220  -18.0260   16.4800 C.2   901  5EO901      0.1169
     22  CAV       28.0140  -19.1580   22.0620 C.ar  901  5EO901      0.1231
     23  CAW       27.9610  -16.5580   20.9920 C.ar  901  5EO901      0.1499
     24  CAX       28.2600  -17.5910   20.1990 C.ar  901  5EO901      0.1215
     25  CAY       28.6380  -17.3870   18.6970 C.1   901  5EO901      0.1520
     26  CAZ       29.9450  -16.2850   17.1050 C.1   901  5EO901      0.1974
     27  NBA       24.3410  -22.5670   20.8790 N.3   901  5EO901     -0.2690
     28  NBB       26.6330  -21.5160   22.1320 N.3   901  5EO901     -0.1527
     29  SBC       28.0400  -20.8490   22.7140 S.O2  901  5EO901      0.0634
@<TRIPOS>BOND
     1     2    12    1
     2    12    21    1
     3    10    21    1
     4    10    26    1
     5    21    18    2
     6     4    26    2
     7    26    19    2
     8    18    25    2
     9    19    25    2
    10    25    24    1
    11     1    11    1
    12     3    27    1
    13    24     9   ar
    14    24    23   ar
    15    20    23    1
    16    20    13    1
    17    11    13    1
    18    15    17    1
    19    15    27    1
    20     9    22   ar
    21    17    28    1
    22    27    14    1
    23    23     8   ar
    24    22    29    1
    25    22     7   ar
    26    14    16    1
    27    28    16    1
    28    28    29    1
    29     6    29    2
    30     8     7   ar
    31    29     5    2
