@<TRIPOS>MOLECULE
3tsf_5IO_A_1.pdb
 30 32 0 0 0
SMALL
GASTEIGER

@<TRIPOS>ATOM
      1  CAA      -25.1770   18.7230  -19.1700 C.3     1  5IO1        0.0040
      2  CAB      -29.9900   13.5950  -15.0840 C.3     1  5IO1        0.0076
      3  CAC      -31.1820    8.7650  -22.6990 C.3     1  5IO1        0.0897
      4  OAD      -28.9880   19.1770  -16.7010 O.2     1  5IO1       -0.2122
      5  OAE      -31.2550   13.7000  -24.1080 O.2     1  5IO1       -0.1528
      6  OAF      -32.7690   14.1890  -22.2790 O.2     1  5IO1       -0.1528
      7  IAG      -30.6570   17.6120  -14.0590 I       1  5IO1       -0.0485
      8  CAH      -28.8440   14.8130  -22.6590 C.ar    1  5IO1        0.0231
      9  CAI      -27.7700   15.5110  -22.0730 C.ar    1  5IO1        0.0390
     10  CAJ      -30.0730   14.9540  -20.6160 C.ar    1  5IO1        0.0350
     11  CAK      -24.5950   17.8130  -20.2090 C.3     1  5IO1        0.0473
     12  CAL      -30.9450   14.6190  -15.6920 C.3     1  5IO1        0.0574
     13  CAM      -25.6130   17.0130  -20.9820 C.3     1  5IO1        0.2054
     14  CAN      -29.5290   10.4250  -22.7630 C.3     1  5IO1        0.0915
     15  CAO      -30.5070   10.1120  -20.6280 C.3     1  5IO1        0.0915
     16  CAP      -30.0650   11.8300  -22.7660 C.3     1  5IO1        0.1131
     17  CAQ      -31.3350   11.3560  -20.7490 C.3     1  5IO1        0.1131
     18  NAR      -29.8770   15.2930  -17.7670 N.2     1  5IO1       -0.3461
     19  NAS      -29.0110   17.3560  -18.1610 N.2     1  5IO1       -0.2692
     20  OAT      -26.7440   16.6400  -20.2100 O.3     1  5IO1       -0.4747
     21  CAU      -30.0370   14.5330  -21.8940 C.ar    1  5IO1        0.1231
     22  CAV      -27.8260   15.9500  -20.7490 C.ar    1  5IO1        0.1499
     23  CAW      -30.2540   15.6980  -16.5190 C.2     1  5IO1        0.1253
     24  CAX      -30.0070   17.0110  -16.0080 C.3     1  5IO1        0.2189
     25  CAY      -28.9480   15.6430  -19.9780 C.ar    1  5IO1        0.1215
     26  CAZ      -29.2490   16.0860  -18.5630 C.1     1  5IO1        0.1521
     27  CBA      -29.3500   17.8300  -16.9300 C.1     1  5IO1        0.2059
     28  NBB      -30.2670    9.5230  -21.9160 N.3     1  5IO1       -0.2690
     29  NBC      -31.2900   12.0610  -22.0150 N.3     1  5IO1       -0.1527
     30  SBD      -31.3950   13.6170  -22.6470 S.O2    1  5IO1        0.0634
@<TRIPOS>BOND
     1     5    30    2
     2    16    14    1
     3    16    29    1
     4    14    28    1
     5     3    28    1
     6     8     9   ar
     7     8    21   ar
     8    30     6    2
     9    30    29    1
    10    30    21    1
    11     9    22   ar
    12    29    17    1
    13    28    15    1
    14    21    10   ar
    15    13    20    1
    16    13    11    1
    17    17    15    1
    18    22    20    1
    19    22    25   ar
    20    10    25   ar
    21    11     1    1
    22    25    26    1
    23    26    19    2
    24    26    18    2
    25    19    27    2
    26    18    23    2
    27    27     4    2
    28    27    24    1
    29    23    24    1
    30    23    12    1
    31    24     7    1
    32    12     2    1
