@<TRIPOS>MOLECULE
3tsk_QEG_A_1.pdb
 40 42 0 0 0
SMALL
GASTEIGER

@<TRIPOS>ATOM
      1  O2         9.7400   26.2240    4.4400 O.2   306  QEG306     -0.2733
      2  S7         2.4460   22.3030    8.4120 S.2   306  QEG306     -0.0864
      3  C11        8.5610   26.3170    4.3850 C.2   306  QEG306      0.2424
      4  C12        7.7730   25.1900    3.7690 C.3   306  QEG306      0.0915
      5  C13        7.6830   23.8750    4.5200 C.3   306  QEG306      0.0360
      6  C14        5.1640   24.2160    4.5080 C.ar  306  QEG306     -0.0042
      7  C15        4.8770   22.7090    6.7400 C.ar  306  QEG306      0.0002
      8  C16        3.7230   23.2350    6.1920 C.ar  306  QEG306      0.0060
      9  C17        3.8940   24.0030    5.0500 C.ar  306  QEG306      0.0002
     10  C18        2.3880   22.9330    6.8600 C.ar  306  QEG306      0.0295
     11  C19        1.0410   22.9600    6.6160 C.ar  306  QEG306      0.0070
     12  C20        0.2250   22.4620    7.6840 C.ar  306  QEG306      0.0070
     13  C21       -1.2390   22.4170    7.7510 C.ar  306  QEG306      0.0005
     14  C22       -1.8500   21.2850    8.1820 C.ar  306  QEG306      0.0000
     15  C23       -3.2140   21.2120    8.2760 C.ar  306  QEG306      0.0000
     16  C24       -3.9630   22.3130    7.9830 C.ar  306  QEG306      0.0000
     17  C25       -3.3530   23.4680    7.5780 C.ar  306  QEG306      0.0000
     18  C26       -1.9860   23.5290    7.4710 C.ar  306  QEG306      0.0000
     19  C27        6.3030   23.6610    5.0810 C.ar  306  QEG306     -0.0217
     20  C28        6.1420   22.9080    6.2190 C.ar  306  QEG306     -0.0042
     21  C29        0.8590   22.0460    8.8030 C.ar  306  QEG306      0.0354
     22  N2         7.8800   27.3640    4.8260 N.am  306  QEG306     -0.1932
     23  C7         8.4140   28.5690    5.4320 C.3   306  QEG306      0.1948
     24  C6         7.7580   28.8110    6.7840 C.2   306  QEG306      0.2662
     25  O1         6.6890   28.3540    7.1000 O.2   306  QEG306     -0.2711
     26  C8         8.2420   29.7180    4.4090 C.2   306  QEG306      0.0091
     27  C9         9.5000   30.5670    4.1040 C.2   306  QEG306      0.0587
     28  C10        9.5690   31.4830    2.8770 C.2   306  QEG306      0.2841
     29  O4E        8.8960   31.3830    1.8950 O.2   306  QEG306     -0.2667
     30  N4        10.4770   32.4300    2.9030 N.am  306  QEG306     -0.0837
     31  N1         8.4220   29.5400    7.6470 N.am  306  QEG306     -0.1914
     32  C2         7.8550   29.7800    8.9520 C.3   306  QEG306      0.1966
     33  C1         6.5850   30.5830    8.9020 C.2   306  QEG306      0.2848
     34  O9         6.4480   31.5120    8.1780 O.2   306  QEG306     -0.2694
     35  C3         8.8210   30.4380    9.8880 C.2   306  QEG306      0.0112
     36  C4         8.9700   29.8870   11.2870 C.2   306  QEG306      0.0838
     37  C5         9.8300   30.4360   12.3560 C.2   306  QEG306      0.3877
     38  O8E        9.8160   29.8460   13.4300 O.co2 306  QEG306     -0.2406
     39  O8        10.5260   31.4550   12.2140 O.co2 306  QEG306     -0.2406
     40  N9         5.6170   30.1980    9.6890 N.am  306  QEG306     -0.0860
@<TRIPOS>BOND
     1    29    28    2
     2    28    30   am
     3    28    27    1
     4     4     3    1
     5     4     5    1
     6    27    26    2
     7     3     1    2
     8     3    22   am
     9    26    23    1
    10     6     9   ar
    11     6    19   ar
    12     5    19    1
    13    22    23    1
    14     9     8   ar
    15    19    20   ar
    16    23    24    1
    17     8     7   ar
    18     8    10    1
    19    20     7   ar
    20    11    10   ar
    21    11    12   ar
    22    24    25    2
    23    24    31   am
    24    10     2   ar
    25    18    17   ar
    26    18    13   ar
    27    17    16   ar
    28    31    32    1
    29    12    13    1
    30    12    21   ar
    31    13    14   ar
    32    16    15   ar
    33    34    33    2
    34    14    15   ar
    35     2    21   ar
    36    33    32    1
    37    33    40   am
    38    32    35    1
    39    35    36    2
    40    36    37    1
    41    39    37   ar
    42    37    38   ar
