@<TRIPOS>MOLECULE
3tsl_UMP_A_1.pdb
 20 21 0 0 0
SMALL
GASTEIGER

@<TRIPOS>ATOM
      1  N1        -5.0240   57.6080   30.8500 N.am  777  UMP777     -0.1790
      2  C2        -3.7710   57.1800   30.4570 C.1   777  UMP777      0.2844
      3  N3        -2.9080   58.0290   29.7970 N.2   777  UMP777     -0.2452
      4  C4        -3.2810   59.3260   29.5490 C.1   777  UMP777      0.2182
      5  C5        -4.5320   59.7580   29.9320 C.2   777  UMP777      0.1242
      6  C6        -5.4050   58.8870   30.5860 C.2   777  UMP777      0.0928
      7  O2        -3.4040   56.0230   30.6520 O.2   777  UMP777     -0.1918
      8  O4        -2.5000   60.0750   28.9740 O.2   777  UMP777     -0.2085
      9  C1'       -5.9470   56.7060   31.5520 C.3   777  UMP777      0.2090
     10  C2'       -5.8190   57.0660   33.0380 C.3   777  UMP777      0.0874
     11  C3'       -7.0930   57.7870   33.3550 C.3   777  UMP777      0.1857
     12  C4'       -8.0480   57.1200   32.3670 C.3   777  UMP777      0.1774
     13  O3'       -7.4650   57.6140   34.7070 O.3   777  UMP777     -0.2203
     14  O4'       -7.2960   56.9240   31.1870 O.3   777  UMP777     -0.3339
     15  C5'       -9.2350   57.9820   31.9930 C.3   777  UMP777      0.1858
     16  O5'       -8.6660   59.1340   31.4280 O.3   777  UMP777     -0.2675
     17  P         -9.5520   60.4710   31.1430 P.3   777  UMP777      0.5327
     18  OP1      -10.4420   60.1810   29.9530 O.2   777  UMP777     -0.2224
     19  OP2      -10.4350   60.7360   32.3380 O.3   777  UMP777     -0.1145
     20  OP3       -8.6530   61.6230   30.9350 O.3   777  UMP777     -0.1145
@<TRIPOS>BOND
     1     8     4    2
     2     4     3    2
     3     4     5    1
     4     3     2    2
     5     5     6    2
     6    18    17    2
     7     2     7    2
     8     2     1   am
     9     6     1    1
    10     1     9    1
    11    20    17    1
    12    17    16    1
    13    17    19    1
    14    14     9    1
    15    14    12    1
    16    16    15    1
    17     9    10    1
    18    15    12    1
    19    12    11    1
    20    10    11    1
    21    11    13    1
