@<TRIPOS>MOLECULE
3tso_GNP_A_1.pdb
 32 34 0 0 0
SMALL
GASTEIGER

@<TRIPOS>ATOM
      1  PG         0.8940   25.0920   15.2380 P.3   201  GNP201      0.4884
      2  O1G        0.2810   25.7710   14.0510 O.2   201  GNP201     -0.2331
      3  O2G        0.0970   25.3690   16.5390 O.3   201  GNP201     -0.1240
      4  O3G        2.3890   25.4330   15.3530 O.3   201  GNP201     -0.1240
      5  N3B        0.8170   23.4450   14.9430 N.3   201  GNP201     -0.0163
      6  PB         1.2800   22.3190   15.9900 P.3   201  GNP201      0.4669
      7  O1B        2.6760   21.9700   15.6680 O.2   201  GNP201     -0.2351
      8  O2B        0.8920   22.6000   17.3880 O.3   201  GNP201     -0.1253
      9  O3A        0.5300   20.9540   15.4060 O.3   201  GNP201     -0.2360
     10  PA        -0.7210   20.2090   16.1270 P.3   201  GNP201      0.2220
     11  O1A       -0.2250   19.5230   17.3420 O.3   201  GNP201     -0.4370
     12  O2A       -1.8840   21.0620   16.2170 O.2   201  GNP201     -0.5170
     13  O5'       -0.9270   19.0260   15.0680 O.3   201  GNP201     -0.3111
     14  C5'       -1.3860   19.3290   13.7080 C.3   201  GNP201      0.1813
     15  C4'       -2.0470   18.0500   13.0710 C.3   201  GNP201      0.1799
     16  O4'       -1.2490   16.8620   13.1290 O.3   201  GNP201     -0.3326
     17  C3'       -3.3450   17.8130   13.8950 C.3   201  GNP201      0.2158
     18  O3'       -4.5270   17.4290   13.1020 O.3   201  GNP201     -0.2175
     19  C2'       -2.9130   16.7460   14.8730 C.3   201  GNP201      0.2310
     20  O2'       -4.0280   15.8880   15.3050 O.3   201  GNP201     -0.2158
     21  C1'       -2.0620   15.9240   14.0070 C.3   201  GNP201      0.2293
     22  N9        -0.9850   15.2460   14.6960 N.pl3 201  GNP201     -0.2354
     23  C8        -0.1220   15.7940   15.6050 C.3   201  GNP201      0.2246
     24  N7         0.7110   14.8370   15.9130 N.2   201  GNP201     -0.2322
     25  C5         0.4230   13.6820   15.2460 C.2   201  GNP201      0.2182
     26  C6         0.9760   12.3610   15.2240 C.1   201  GNP201      0.2372
     27  O6         1.9610   12.0050   15.8930 O.2   201  GNP201     -0.2069
     28  N1         0.4060   11.4040   14.3850 N.2   201  GNP201     -0.2485
     29  C2        -0.7120   11.7540   13.5970 C.1   201  GNP201      0.2531
     30  N2        -1.2640   10.8140   12.7840 N.pl3 201  GNP201     -0.0226
     31  N3        -1.1920   13.0420   13.6380 N.2   201  GNP201     -0.3074
     32  C4        -0.6560   13.9820   14.4530 C.2   201  GNP201      0.2300
@<TRIPOS>BOND
     1    30    29    1
     2    15    16    1
     3    15    14    1
     4    15    17    1
     5    18    17    1
     6    16    21    1
     7    29    31    2
     8    29    28    2
     9    31    32    2
    10    14    13    1
    11    17    19    1
    12    21    22    1
    13    21    19    1
    14     2     1    2
    15    28    26    2
    16    32    22    1
    17    32    25    1
    18    22    23    1
    19    19    20    1
    20     5     1    1
    21     5     6    1
    22    13    10    1
    23    26    25    1
    24    26    27    2
    25     1     4    1
    26     1     3    1
    27    25    24    2
    28     9     6    1
    29     9    10    1
    30    23    24    1
    31     7     6    2
    32     6     8    1
    33    10    12    2
    34    10    11    1
