@<TRIPOS>MOLECULE
3tsq_CA0_A_1.pdb
 26 28 0 0 0
SMALL
GASTEIGER

@<TRIPOS>ATOM
      1  N1        20.2050   26.7420   34.3850 N.2   748  CA0748      0.0021
      2  C2        20.3540   26.0390   33.2250 C.3   748  CA0748      0.5254
      3  N3        19.9640   26.4940   31.9750 N.2   748  CA0748     -0.0055
      4  C4        19.3820   27.7220   31.8010 C.2   748  CA0748      0.3518
      5  C5        19.1740   28.5570   33.0190 C.2   748  CA0748      0.2526
      6  C6        19.6250   27.9950   34.3610 C.2   748  CA0748      0.4393
      7  N6        19.4370   28.7160   35.5060 N.pl3 748  CA0748      0.2180
      8  N7        18.5860   29.7270   32.5850 N.2   748  CA0748     -0.2095
      9  C8        18.4440   29.6560   31.2360 C.3   748  CA0748      0.3377
     10  N9        18.9140   28.4650   30.7470 N.pl3 748  CA0748     -0.1439
     11  PA        13.8830   28.3820   26.2990 P.3   748  CA0748      0.2738
     12  CB        12.1660   26.7480   25.3370 C.2   748  CA0748      0.4451
     13  C1'       18.8900   28.1070   29.2750 C.3   748  CA0748      0.3186
     14  O1A       13.7430   29.9120   26.1830 O.3   748  CA0748     -0.4273
     15  O1B       13.0150   25.8990   25.0930 O.2   748  CA0748     -0.2225
     16  C2'       18.3990   26.6780   28.9580 C.3   748  CA0748      0.2570
     17  O2'       19.3320   25.9090   28.1410 O.3   748  CA0748     -0.2130
     18  O2A       14.5920   27.5040   25.2780 O.2   748  CA0748     -0.5081
     19  N2B       10.9090   26.8210   24.6120 N.am  748  CA0748     -0.0473
     20  C3'       17.0390   26.9360   28.2980 C.3   748  CA0748      0.2184
     21  O3'       16.6880   26.0120   27.2570 O.3   748  CA0748     -0.2174
     22  O3A       12.4400   27.6840   26.3560 O.3   748  CA0748     -0.3938
     23  C4'       17.0490   28.3680   27.7710 C.3   748  CA0748      0.1822
     24  O4'       18.0830   29.0390   28.4860 O.3   748  CA0748     -0.3135
     25  C5'       15.7090   29.0240   28.0830 C.3   748  CA0748      0.1823
     26  O5'       14.6080   28.1540   27.7190 O.3   748  CA0748     -0.3024
@<TRIPOS>BOND
     1    19    12   am
     2    15    12    2
     3    18    11    2
     4    12    22    1
     5    14    11    1
     6    11    22    1
     7    11    26    1
     8    21    20    1
     9    26    25    1
    10    23    25    1
    11    23    20    1
    12    23    24    1
    13    17    16    1
    14    20    16    1
    15    24    13    1
    16    16    13    1
    17    13    10    1
    18    10     9    1
    19    10     4    1
    20     9     8    1
    21     4     3    2
    22     4     5    1
    23     3     2    1
    24     8     5    2
    25     5     6    1
    26     2     1    1
    27     6     1    2
    28     6     7    1
