@<TRIPOS>MOLECULE
3tsu_ANP_A_1.pdb
 31 33 0 0 0
SMALL
GASTEIGER

@<TRIPOS>ATOM
      1  PG        11.5020   27.9470   24.1410 P.3   748  ANP748      0.4884
      2  O1G       10.3430   28.0050   25.0000 O.3   748  ANP748     -0.1240
      3  O2G       12.5750   27.2940   24.9080 O.3   748  ANP748     -0.1240
      4  O3G       11.2960   27.1430   22.9560 O.2   748  ANP748     -0.2331
      5  PB        13.4580   29.4780   22.8840 P.3   748  ANP748      0.4669
      6  O1B       13.3220   28.9880   21.4530 O.2   748  ANP748     -0.2351
      7  O2B       14.1040   30.8070   23.0310 O.3   748  ANP748     -0.1253
      8  N3B       12.0250   29.3580   23.6440 N.3   748  ANP748     -0.0163
      9  PA        14.5240   28.3980   25.2570 P.3   748  ANP748      0.2220
     10  O1A       14.9870   27.0300   25.5300 O.2   748  ANP748     -0.5170
     11  O2A       13.6460   28.9870   26.1790 O.3   748  ANP748     -0.4370
     12  O3A       14.3770   28.4250   23.7090 O.3   748  ANP748     -0.2360
     13  O5'       15.1080   29.9670   25.6830 O.3   748  ANP748     -0.3111
     14  C5'       16.4250   30.5200   26.1220 C.3   748  ANP748      0.1813
     15  C4'       17.6010   29.6970   26.8450 C.3   748  ANP748      0.1821
     16  O4'       18.4690   30.1890   27.9290 O.3   748  ANP748     -0.3135
     17  C3'       17.3010   28.2920   27.3250 C.3   748  ANP748      0.2184
     18  O3'       18.2850   27.4980   26.7020 O.3   748  ANP748     -0.2174
     19  C2'       17.7160   28.2130   28.7550 C.3   748  ANP748      0.2570
     20  O2'       18.0420   26.8710   29.0780 O.3   748  ANP748     -0.2130
     21  C1'       18.9120   29.1340   28.8060 C.3   748  ANP748      0.3186
     22  N9        19.1000   29.3810   30.2710 N.pl3 748  ANP748     -0.1439
     23  C8        18.7220   30.4690   30.8830 C.3   748  ANP748      0.3377
     24  N7        18.9720   30.4570   32.1800 N.2   748  ANP748     -0.2095
     25  C5        19.5150   29.3150   32.4850 C.2   748  ANP748      0.2526
     26  C6        20.0130   28.6800   33.7390 C.2   748  ANP748      0.4393
     27  N6        19.9230   29.3290   34.8810 N.pl3 748  ANP748      0.2180
     28  N1        20.5340   27.4660   33.7020 N.2   748  ANP748      0.0021
     29  C2        20.6090   26.8480   32.5290 C.3   748  ANP748      0.5254
     30  N3        20.1700   27.3680   31.3670 N.2   748  ANP748     -0.0055
     31  C4        19.6140   28.5930   31.2310 C.2   748  ANP748      0.3518
@<TRIPOS>BOND
     1     6     5    2
     2     5     7    1
     3     5     8    1
     4     5    12    1
     5     4     1    2
     6     8     1    1
     7    12     9    1
     8     1     3    1
     9     1     2    1
    10     9    10    2
    11     9    13    1
    12     9    11    1
    13    13    14    1
    14    14    15    1
    15    18    17    1
    16    15    17    1
    17    15    16    1
    18    17    19    1
    19    16    21    1
    20    19    21    1
    21    19    20    1
    22    21    22    1
    23    22    23    1
    24    22    31    1
    25    23    24    1
    26    31    30    2
    27    31    25    1
    28    30    29    1
    29    24    25    2
    30    25    26    1
    31    29    28    1
    32    28    26    2
    33    26    27    1
