@<TRIPOS>MOLECULE
3tsu_ADP_A_1.pdb
 27 29 0 0 0
SMALL
GASTEIGER

@<TRIPOS>ATOM
      1  PB        19.4480   12.7480   24.7530 P.3   747  ADP747      0.5373
      2  O1B       18.0490   13.2070   24.2670 O.3   747  ADP747     -0.1143
      3  O2B       19.3980   12.1540   26.1160 O.3   747  ADP747     -0.1143
      4  O3B       20.1890   11.9500   23.6250 O.2   747  ADP747     -0.2221
      5  PA        21.5270   14.8120   25.3860 P.3   747  ADP747      0.2231
      6  O1A       21.5730   16.3580   25.0660 O.2   747  ADP747     -0.5169
      7  O2A       22.7480   13.9180   25.1440 O.3   747  ADP747     -0.4370
      8  O3A       20.1150   14.2340   24.8320 O.3   747  ADP747     -0.2261
      9  O5'       21.3110   14.6510   27.0210 O.3   747  ADP747     -0.3111
     10  C5'       20.2940   15.3960   27.6690 C.3   747  ADP747      0.1813
     11  C4'       19.8770   14.5910   28.8970 C.3   747  ADP747      0.1821
     12  O4'       21.0000   14.6110   29.8210 O.3   747  ADP747     -0.3135
     13  C3'       18.7510   15.2630   29.6770 C.3   747  ADP747      0.2184
     14  O3'       17.4410   14.9230   29.2510 O.3   747  ADP747     -0.2174
     15  C2'       18.9780   14.7810   31.1070 C.3   747  ADP747      0.2570
     16  O2'       18.5160   13.4200   31.1140 O.3   747  ADP747     -0.2130
     17  C1'       20.5130   14.7590   31.2010 C.3   747  ADP747      0.3186
     18  N9        21.0760   15.9380   31.9360 N.pl3 747  ADP747     -0.1439
     19  C8        21.0660   17.2590   31.5750 C.3   747  ADP747      0.3377
     20  N7        21.6750   18.0290   32.5240 N.2   747  ADP747     -0.2095
     21  C5        22.0900   17.2220   33.5050 C.2   747  ADP747      0.2526
     22  C6        22.7910   17.3780   34.8100 C.2   747  ADP747      0.4393
     23  N6        23.1970   18.5850   35.2580 N.pl3 747  ADP747      0.2180
     24  N1        23.0230   16.2550   35.5400 N.2   747  ADP747      0.0021
     25  C2        22.6370   15.0260   35.1060 C.3   747  ADP747      0.5254
     26  N3        21.9880   14.7890   33.9300 N.2   747  ADP747     -0.0055
     27  C4        21.6840   15.8440   33.1170 C.2   747  ADP747      0.3518
@<TRIPOS>BOND
     1     4     1    2
     2     2     1    1
     3     1     8    1
     4     1     3    1
     5     8     5    1
     6     6     5    2
     7     7     5    1
     8     5     9    1
     9     9    10    1
    10    10    11    1
    11    11    13    1
    12    11    12    1
    13    14    13    1
    14    13    15    1
    15    12    17    1
    16    15    16    1
    17    15    17    1
    18    17    18    1
    19    19    18    1
    20    19    20    1
    21    18    27    1
    22    20    21    2
    23    27    21    1
    24    27    26    2
    25    21    22    1
    26    26    25    1
    27    22    23    1
    28    22    24    2
    29    25    24    1
