@<TRIPOS>MOLECULE
3tt0_07J_A_1.pdb
 38 41 0 0 0
SMALL
GASTEIGER

@<TRIPOS>ATOM
      1  O1       -14.7870    7.6160   11.0550 O.2     1  07J1       -0.2214
      2  C2       -15.0830    8.6010   11.7220 C.2     1  07J1        0.4189
      3  N3       -14.2230    9.6760   11.8470 N.am    1  07J1       -0.1382
      4  C4       -12.9940    9.6860   11.1660 C.ar    1  07J1        0.1040
      5  C5       -11.8980    8.9800   11.6190 C.ar    1  07J1        0.1079
      6 CL1       -11.9720    8.0680   13.0810 Cl      1  07J1       -0.0777
      7  C7       -10.7150    9.0150   10.9080 C.ar    1  07J1        0.1535
      8  O8        -9.6610    8.2710   11.4250 O.3     1  07J1       -0.4704
      9  C9        -8.5480    8.2950   10.5400 C.3     1  07J1        0.2525
     10  C10      -10.6310    9.7380    9.7320 C.ar    1  07J1        0.0756
     11  C11      -11.7240   10.4550    9.2800 C.ar    1  07J1        0.1535
     12  O12      -11.7250   11.2120    8.1100 O.3     1  07J1       -0.4704
     13  C13      -10.4850   11.0810    7.4190 C.3     1  07J1        0.2525
     14  C14      -12.9000   10.4130    9.9980 C.ar    1  07J1        0.1079
     15 CL2       -14.2670   11.2940    9.4520 Cl      1  07J1       -0.0777
     16  N16      -16.2870    8.7110   12.4160 N.am    1  07J1       -0.1215
     17  C17      -17.2270    7.6110   12.3330 C.3     1  07J1        0.2626
     18  C18      -16.6840    9.8550   13.1610 C.2     1  07J1        0.3200
     19  C19      -18.0240   10.0120   13.4610 C.3     1  07J1        0.2379
     20  C20      -18.4230   11.1230   14.1770 C.2     1  07J1        0.3540
     21  N21      -17.5340   12.0480   14.5600 N.2     1  07J1       -0.0073
     22  C22      -16.2620   11.8130   14.2190 C.3     1  07J1        0.5246
     23  N23      -15.7790   10.7660   13.5430 N.2     1  07J1       -0.0109
     24  N24      -19.7720   11.3540   14.5090 N.pl3   1  07J1       -0.0094
     25  C25      -20.8340   10.4330   14.5710 C.ar    1  07J1        0.1831
     26  C26      -21.2860    9.7510   13.4590 C.ar    1  07J1        0.0457
     27  C27      -22.3480    8.8740   13.5560 C.ar    1  07J1        0.0182
     28  C28      -22.9940    8.6710   14.7650 C.ar    1  07J1        0.0482
     29  C29      -22.5480    9.3700   15.8690 C.ar    1  07J1        0.0182
     30  C30      -21.4830   10.2410   15.7750 C.ar    1  07J1        0.0457
     31  N31      -24.0890    7.7890   14.9220 N.pl3   1  07J1       -0.3046
     32  C32      -25.2060    8.4450   15.6040 C.3     1  07J1        0.1081
     33  C33      -26.2870    7.4190   15.8840 C.3     1  07J1        0.0938
     34  N34      -26.6260    6.7980   14.5730 N.3     1  07J1       -0.2698
     35  C35      -27.8920    6.0240   14.6160 C.3     1  07J1        0.0722
     36  C36      -29.0250    7.0140   14.7620 C.3     1  07J1        0.0188
     37  C37      -25.4980    6.0430   13.9490 C.3     1  07J1        0.0938
     38  C38      -24.3750    7.0340   13.7000 C.3     1  07J1        0.1081
@<TRIPOS>BOND
     1    13    12    1
     2    12    11    1
     3    11    10   ar
     4    11    14   ar
     5    15    14    1
     6    10     7   ar
     7    14     4   ar
     8     9     8    1
     9     7     8    1
    10     7     5   ar
    11     1     2    2
    12     4     5   ar
    13     4     3    1
    14     5     6    1
    15     2     3   am
    16     2    16   am
    17    17    16    1
    18    16    18    1
    19    18    19    1
    20    18    23    2
    21    26    27   ar
    22    26    25   ar
    23    19    20    1
    24    23    22    1
    25    27    28   ar
    26    38    37    1
    27    38    31    1
    28    37    34    1
    29    20    24    1
    30    20    21    2
    31    22    21    1
    32    24    25    1
    33    25    30   ar
    34    34    35    1
    35    34    33    1
    36    35    36    1
    37    28    31    1
    38    28    29   ar
    39    31    32    1
    40    32    33    1
    41    30    29   ar
