@<TRIPOS>MOLECULE
3tt4_E1S_A_1.pdb
 26 27 0 0 0
SMALL
GASTEIGER

@<TRIPOS>ATOM
      1  C1        -4.9630   10.5390  -13.5630 C.3     1  E1S1        0.0915
      2  N1        -4.1280    9.1250  -15.5490 N.am    1  E1S1       -0.1977
      3  C2        -4.7810    9.1960  -14.2370 C.2     1  E1S1        0.2421
      4  O2        -5.2360    8.1930  -13.7430 O.2     1  E1S1       -0.2733
      5  C3        -4.5240    8.0240  -17.7020 C.3     1  E1S1        0.0429
      6  N3        -1.6970    7.7810  -15.2520 N.am    1  E1S1       -0.0863
      7  C4        -6.0280    8.1530  -17.5780 C.3     1  E1S1        0.1163
      8  C5        -6.5770    9.5340  -17.6660 C.2     1  E1S1        0.3649
      9  O5        -1.9210    7.1330  -17.2950 O.2     1  E1S1       -0.2698
     10  O6        -7.7410    9.7860  -17.2190 O.co2   1  E1S1       -0.2457
     11  O7        -5.8980   10.4810  -18.1770 O.co2   1  E1S1       -0.2457
     12  C13       -2.4510    7.5700  -16.2990 C.2     1  E1S1        0.2806
     13  C14       -6.4280   10.9790  -13.7750 C.3     1  E1S1        0.0360
     14  C15       -6.6820   12.3590  -13.2120 C.ar    1  E1S1       -0.0217
     15  C16       -7.5830   12.5120  -12.1720 C.ar    1  E1S1       -0.0042
     16  C17       -7.7880   13.8870  -11.5950 C.ar    1  E1S1        0.0002
     17  C18       -5.9290   13.5260  -13.7520 C.ar    1  E1S1       -0.0042
     18  C19       -7.3260   16.3490  -11.5670 C.ar    1  E1S1        0.0291
     19  C20       -6.9950   17.6080  -12.1550 C.ar    1  E1S1        0.0067
     20  C21       -7.3890   18.7110  -11.3010 C.ar    1  E1S1        0.0027
     21  S23       -8.1230   16.5420  -10.0180 S.2     1  E1S1       -0.0913
     22  C24       -8.5150   19.1110   -8.9910 C.3     1  E1S1        0.0382
     23  C27       -8.0070   18.2600  -10.1390 C.ar    1  E1S1        0.0076
     24  C30       -7.1040   14.9650  -12.1410 C.ar    1  E1S1        0.0060
     25  C31       -6.1280   14.7690  -13.2100 C.ar    1  E1S1        0.0002
     26  C35       -3.9420    7.8760  -16.2890 C.3     1  E1S1        0.1749
@<TRIPOS>BOND
     1    11     8   ar
     2     5     7    1
     3     5    26    1
     4     8     7    1
     5     8    10   ar
     6     9    12    2
     7    12    26    1
     8    12     6   am
     9    26     2    1
    10     2     3   am
    11     3     4    2
    12     3     1    1
    13    13     1    1
    14    13    14    1
    15    17    14   ar
    16    17    25   ar
    17    14    15   ar
    18    25    24   ar
    19    15    16   ar
    20    19    18   ar
    21    19    20   ar
    22    24    16   ar
    23    24    18    1
    24    18    21   ar
    25    20    23   ar
    26    23    21   ar
    27    23    22    1
