@<TRIPOS>MOLECULE
3tt7_DFP_A_1.pdb
 10 9 0 0 0
SMALL
GASTEIGER

@<TRIPOS>ATOM
      1  C1       -42.8320  -16.4870   34.2760 C.3   300  DFP300      0.1236
      2  C2       -42.2490  -15.0600   34.2930 C.3   300  DFP300      0.0325
      3  C3       -44.2550  -16.4670   33.6260 C.3   300  DFP300      0.0325
      4  C1'      -39.8410  -18.9080   36.7340 C.3   300  DFP300      0.1236
      5  C2'      -39.5910  -20.3760   36.2780 C.3   300  DFP300      0.0325
      6  C3'      -38.5500  -18.0520   36.8570 C.3   300  DFP300      0.0325
      7  P        -41.1500  -18.7520   34.3180 P.3   300  DFP300      0.3659
      8  O1P      -41.9650  -17.4510   33.5830 O.3   300  DFP300     -0.2993
      9  O2P      -40.7640  -18.2470   35.8510 O.3   300  DFP300     -0.2993
     10  O3P      -40.0350  -19.4380   33.5840 O.3   300  DFP300     -0.1446
@<TRIPOS>BOND
     1     8     1    1
     2     8     7    1
     3    10     7    1
     4     3     1    1
     5     1     2    1
     6     7     9    1
     7     9     4    1
     8     5     4    1
     9     4     6    1
