@<TRIPOS>MOLECULE
3tta_UMP_A_1.pdb
 20 21 0 0 0
SMALL
GASTEIGER

@<TRIPOS>ATOM
      1  N1        -5.0580   57.6520   30.7180 N.am  777  UMP777     -0.1790
      2  C2        -3.8320   57.1850   30.2870 C.1   777  UMP777      0.2844
      3  N3        -2.9410   58.0240   29.6460 N.2   777  UMP777     -0.2452
      4  C4        -3.2660   59.3310   29.4050 C.1   777  UMP777      0.2182
      5  C5        -4.5170   59.8160   29.7940 C.2   777  UMP777      0.1242
      6  C6        -5.4210   58.9790   30.4640 C.2   777  UMP777      0.0928
      7  O2        -3.4720   56.0220   30.4810 O.2   777  UMP777     -0.1918
      8  O4        -2.4290   60.0270   28.8100 O.2   777  UMP777     -0.2085
      9  C1'       -5.9630   56.7310   31.4380 C.3   777  UMP777      0.2090
     10  C2'       -5.9450   57.0770   32.9670 C.3   777  UMP777      0.0874
     11  C3'       -7.2500   57.7920   33.1840 C.3   777  UMP777      0.1857
     12  C4'       -8.1060   57.0350   32.1580 C.3   777  UMP777      0.1774
     13  O3'       -7.7270   57.8040   34.5310 O.3   777  UMP777     -0.2203
     14  O4'       -7.3000   56.8660   31.0160 O.3   777  UMP777     -0.3339
     15  C5'       -9.3520   57.7680   31.6760 C.3   777  UMP777      0.1858
     16  O5'       -8.9660   58.9840   31.0860 O.3   777  UMP777     -0.2675
     17  P        -10.0590   59.9920   30.4310 P.3   777  UMP777      0.5327
     18  OP1       -9.2580   61.2800   30.2550 O.3   777  UMP777     -0.1145
     19  OP2      -11.2550   60.2120   31.2990 O.3   777  UMP777     -0.1145
     20  OP3      -10.6390   59.4790   29.1790 O.2   777  UMP777     -0.2224
@<TRIPOS>BOND
     1     8     4    2
     2    20    17    2
     3     4     3    2
     4     4     5    1
     5     3     2    2
     6     5     6    2
     7    18    17    1
     8     2     7    2
     9     2     1   am
    10    17    16    1
    11    17    19    1
    12     6     1    1
    13     1     9    1
    14    14     9    1
    15    14    12    1
    16    16    15    1
    17     9    10    1
    18    15    12    1
    19    12    11    1
    20    10    11    1
    21    11    13    1
