@<TRIPOS>MOLECULE
3ttb_HEC_A_1.pdb
 43 50 0 0 0
SMALL
GASTEIGER

@<TRIPOS>ATOM
      1 FE        -28.6840  -10.1960  -45.9060 Fe    1004  HEC1004     0.0000
      2  CHA      -27.6330  -11.0840  -42.8640 C.2   1004  HEC1004     0.0000
      3  CHB      -26.7040  -12.5480  -47.3790 C.2   1004  HEC1004     0.0000
      4  CHC      -30.0300   -9.4730  -48.8820 C.2   1004  HEC1004     0.0000
      5  CHD      -30.3820   -7.5120  -44.4830 C.2   1004  HEC1004     0.0000
      6  NA       -27.4430  -11.5270  -45.2570 N.ar  1004  HEC1004     0.0000
      7  C1A      -27.0560  -11.6850  -43.9300 C.ar  1004  HEC1004     0.0000
      8  C2A      -25.9830  -12.6290  -43.8380 C.ar  1004  HEC1004     0.0000
      9  C3A      -25.7510  -13.0160  -45.1010 C.ar  1004  HEC1004     0.0000
     10  C4A      -26.6390  -12.3420  -46.0110 C.ar  1004  HEC1004     0.0000
     11  CMA      -24.6780  -14.0270  -45.5210 C.3   1004  HEC1004     0.0000
     12  CAA      -25.2100  -13.1430  -42.5680 C.3   1004  HEC1004     0.0000
     13  CBA      -25.9780  -14.2810  -41.8610 C.3   1004  HEC1004     0.0000
     14  CGA      -26.2660  -15.4120  -42.8430 C.2   1004  HEC1004     0.0000
     15  O1A      -25.3740  -16.2720  -43.1080 O.co2 1004  HEC1004     0.0000
     16  O2A      -27.4310  -15.4510  -43.3590 O.co2 1004  HEC1004     0.0000
     17  NB       -28.3910  -10.8860  -47.7980 N.2   1004  HEC1004     0.0000
     18  C1B      -27.6460  -11.9700  -48.1900 C.2   1004  HEC1004     0.0000
     19  C2B      -28.0270  -12.3520  -49.5370 C.2   1004  HEC1004     0.0000
     20  C3B      -28.9350  -11.4590  -49.9870 C.2   1004  HEC1004     0.0000
     21  C4B      -29.2040  -10.5660  -48.8730 C.2   1004  HEC1004     0.0000
     22  CMB      -27.2890  -13.5130  -50.2510 C.3   1004  HEC1004     0.0000
     23  CAB      -29.6410  -11.3210  -51.3900 C.3   1004  HEC1004     0.0000
     24  CBB      -30.2520  -12.6990  -51.7130 C.3   1004  HEC1004     0.0000
     25  NC       -29.9660   -8.7890  -46.5020 N.ar  1004  HEC1004     0.0000
     26  C1C      -30.3230   -8.6490  -47.8310 C.ar  1004  HEC1004     0.0000
     27  C2C      -31.2470   -7.5560  -47.9330 C.ar  1004  HEC1004     0.0000
     28  C3C      -31.2820   -6.9460  -46.7330 C.ar  1004  HEC1004     0.0000
     29  C4C      -30.5260   -7.7540  -45.8260 C.ar  1004  HEC1004     0.0000
     30  CMC      -31.6900   -7.0290  -49.3170 C.3   1004  HEC1004     0.0000
     31  CAC      -31.9720   -5.6180  -46.3380 C.3   1004  HEC1004     0.0000
     32  CBC      -33.5240   -5.5020  -46.5050 C.3   1004  HEC1004     0.0000
     33  ND       -28.9580   -9.4340  -44.0560 N.2   1004  HEC1004     0.0000
     34  C1D      -29.7330   -8.3610  -43.6420 C.2   1004  HEC1004     0.0000
     35  C2D      -29.7180   -8.2190  -42.1970 C.2   1004  HEC1004     0.0000
     36  C3D      -28.8840   -9.3480  -41.7070 C.2   1004  HEC1004     0.0000
     37  C4D      -28.4570  -10.0280  -42.9090 C.2   1004  HEC1004     0.0000
     38  CMD      -30.4420   -7.1780  -41.3200 C.3   1004  HEC1004     0.0000
     39  CAD      -28.6310   -9.7000  -40.2300 C.3   1004  HEC1004     0.0000
     40  CBD      -29.8670  -10.5680  -39.7770 C.3   1004  HEC1004     0.0000
     41  CGD      -29.8180  -12.0460  -40.1620 C.2   1004  HEC1004     0.0000
     42  O1D      -28.6960  -12.6150  -40.0920 O.co2 1004  HEC1004     0.0000
     43  O2D      -30.8220  -12.7780  -40.5630 O.co2 1004  HEC1004     0.0000
@<TRIPOS>BOND
     1    24    23    1
     2    23    20    1
     3    22    19    1
     4    20    19    2
     5    20    21    1
     6    19    18    1
     7    30    27    1
     8     4    21    2
     9     4    26    1
    10    21    17    1
    11    18    17    2
    12    18     3    1
    13    27    26   ar
    14    27    28   ar
    15    26    25   ar
    16    17     1    1
    17     3    10    2
    18    28    31    1
    19    28    29   ar
    20    32    31    1
    21    25     1    1
    22    25    29   ar
    23    10     6   ar
    24    10     9   ar
    25     1     6    1
    26     1    33    1
    27    29     5    1
    28    11     9    1
    29     6     7   ar
    30     9     8   ar
    31     5    34    2
    32    33    34    1
    33    33    37    2
    34     7     8   ar
    35     7     2    2
    36     8    12    1
    37    34    35    1
    38    16    14   ar
    39    15    14   ar
    40    37     2    1
    41    37    36    1
    42    14    13    1
    43    12    13    1
    44    35    36    2
    45    35    38    1
    46    36    39    1
    47    43    41   ar
    48    39    40    1
    49    41    42   ar
    50    41    40    1
