@<TRIPOS>MOLECULE
3ttc_ADP_A_1.pdb
 27 29 0 0 0
SMALL
GASTEIGER

@<TRIPOS>ATOM
      1  PB        14.5940   31.1980   28.2460 P.3   747  ADP747      0.5373
      2  O1B       14.1260   31.8460   26.9490 O.2   747  ADP747     -0.2221
      3  O2B       16.0760   30.8640   28.2080 O.3   747  ADP747     -0.1143
      4  O3B       14.1480   31.8840   29.5260 O.3   747  ADP747     -0.1143
      5  PA        13.5160   28.7670   27.0540 P.3   747  ADP747      0.2231
      6  O1A       13.4000   29.5890   25.7950 O.2   747  ADP747     -0.5169
      7  O2A       12.3640   27.8860   27.4670 O.3   747  ADP747     -0.4370
      8  O3A       13.8600   29.7440   28.3100 O.3   747  ADP747     -0.2261
      9  O5'       14.8340   27.8260   26.8610 O.3   747  ADP747     -0.3111
     10  C5'       15.6090   27.3590   27.9660 C.3   747  ADP747      0.1813
     11  C4'       17.1110   27.4180   27.7110 C.3   747  ADP747      0.1821
     12  O4'       17.7000   28.4520   28.5200 O.3   747  ADP747     -0.3135
     13  C3'       17.7610   26.1000   28.1090 C.3   747  ADP747      0.2184
     14  O3'       18.5490   25.5720   27.0390 O.3   747  ADP747     -0.2174
     15  C2'       18.6850   26.4090   29.2690 C.3   747  ADP747      0.2570
     16  O2'       19.9900   25.8190   29.0810 O.3   747  ADP747     -0.2130
     17  C1'       18.7610   27.9380   29.3440 C.3   747  ADP747      0.3186
     18  N9        18.6920   28.4360   30.7600 N.pl3 747  ADP747     -0.1439
     19  C8        18.1670   29.6250   31.1740 C.3   747  ADP747      0.3377
     20  N7        18.2670   29.7690   32.5210 N.2   747  ADP747     -0.2095
     21  C5        18.8790   28.6470   33.0020 C.2   747  ADP747      0.2526
     22  C6        19.3140   28.1290   34.3370 C.2   747  ADP747      0.4393
     23  N6        19.1100   28.8330   35.4830 N.pl3 747  ADP747      0.2180
     24  N1        19.9150   26.9160   34.3850 N.2   747  ADP747      0.0021
     25  C2        20.1330   26.1640   33.2790 C.3   747  ADP747      0.5254
     26  N3        19.7740   26.5680   32.0440 N.2   747  ADP747     -0.0055
     27  C4        19.1570   27.7750   31.8410 C.2   747  ADP747      0.3518
@<TRIPOS>BOND
     1     6     5    2
     2     9     5    1
     3     9    10    1
     4     2     1    2
     5    14    13    1
     6     5     7    1
     7     5     8    1
     8    11    10    1
     9    11    13    1
    10    11    12    1
    11    13    15    1
    12     3     1    1
    13     1     8    1
    14     1     4    1
    15    12    17    1
    16    16    15    1
    17    15    17    1
    18    17    18    1
    19    18    19    1
    20    18    27    1
    21    19    20    1
    22    27    26    2
    23    27    21    1
    24    26    25    1
    25    20    21    2
    26    21    22    1
    27    25    24    1
    28    22    24    2
    29    22    23    1
