@<TRIPOS>MOLECULE
3tte_SMN_A_1.pdb
 11 11 0 0 0
SMALL
GASTEIGER

@<TRIPOS>ATOM
      1  C1         4.2330   31.2930  -17.3850 C.ar  362  SMN362      0.0188
      2  C2         4.5410   32.2550  -18.3440 C.ar  362  SMN362     -0.0013
      3  C3         4.5510   33.6030  -17.9980 C.ar  362  SMN362     -0.0002
      4  C4         4.2520   33.9910  -16.6950 C.ar  362  SMN362     -0.0000
      5  C5         3.9450   33.0350  -15.7360 C.ar  362  SMN362     -0.0002
      6  C6         3.9380   31.6890  -16.0820 C.ar  362  SMN362     -0.0013
      7  C7         4.2200   29.8510  -17.7530 C.3   362  SMN362      0.2763
      8  C10        5.6450   29.3140  -17.8140 C.2   362  SMN362      0.3989
      9  O8         3.3290   29.1250  -16.8590 O.3   362  SMN362     -0.2060
     10  O11        6.5940   30.1140  -18.0070 O.co2 362  SMN362     -0.2424
     11  O12        5.8600   28.0870  -17.6960 O.co2 362  SMN362     -0.2424
@<TRIPOS>BOND
     1     2     3   ar
     2     2     1   ar
     3    10     8   ar
     4     3     4   ar
     5     8     7    1
     6     8    11   ar
     7     7     1    1
     8     7     9    1
     9     1     6   ar
    10     4     5   ar
    11     6     5   ar
