@<TRIPOS>MOLECULE
3ttf_AMP_A_1.pdb
 23 25 0 0 0
SMALL
GASTEIGER

@<TRIPOS>ATOM
      1  P         21.5360   14.4760   25.1450 P.3   747  AMP747      0.5327
      2  O1P       22.8290   13.7580   24.9330 O.3   747  AMP747     -0.1145
      3  O2P       21.5450   15.9790   24.8540 O.3   747  AMP747     -0.1145
      4  O3P       20.3090   13.7630   24.5550 O.2   747  AMP747     -0.2224
      5  O5'       21.2810   14.3240   26.7680 O.3   747  AMP747     -0.2675
      6  C5'       20.2750   15.0390   27.4880 C.3   747  AMP747      0.1860
      7  C4'       19.8180   14.1740   28.6490 C.3   747  AMP747      0.1823
      8  O4'       20.8710   14.0440   29.6140 O.3   747  AMP747     -0.3135
      9  C3'       18.6440   14.7690   29.4290 C.3   747  AMP747      0.2184
     10  O3'       17.3760   14.3560   28.9160 O.3   747  AMP747     -0.2174
     11  C2'       18.8230   14.2300   30.8420 C.3   747  AMP747      0.2570
     12  O2'       18.2240   12.9170   30.9190 O.3   747  AMP747     -0.2130
     13  C1'       20.3460   14.1740   30.9720 C.3   747  AMP747      0.3186
     14  N9        20.8760   15.3710   31.7170 N.pl3 747  AMP747     -0.1439
     15  C8        20.8100   16.6720   31.3350 C.3   747  AMP747      0.3377
     16  N7        21.3860   17.5000   32.2580 N.2   747  AMP747     -0.2095
     17  C5        21.8550   16.7420   33.2730 C.2   747  AMP747      0.2526
     18  C6        22.5570   16.9690   34.5740 C.2   747  AMP747      0.4393
     19  N6        22.9170   18.1990   35.0160 N.pl3 747  AMP747      0.2180
     20  N1        22.8400   15.8920   35.3320 N.2   747  AMP747      0.0021
     21  C2        22.5130   14.6410   34.9470 C.3   747  AMP747      0.5254
     22  N3        21.8670   14.3700   33.7910 N.2   747  AMP747     -0.0055
     23  C4        21.5060   15.3480   32.9220 C.2   747  AMP747      0.3518
@<TRIPOS>BOND
     1     4     1    2
     2     3     1    1
     3     2     1    1
     4     1     5    1
     5     5     6    1
     6     6     7    1
     7     7     9    1
     8     7     8    1
     9    10     9    1
    10     9    11    1
    11     8    13    1
    12    11    12    1
    13    11    13    1
    14    13    14    1
    15    15    14    1
    16    15    16    1
    17    14    23    1
    18    16    17    2
    19    23    17    1
    20    23    22    2
    21    17    18    1
    22    22    21    1
    23    18    19    1
    24    18    20    2
    25    21    20    1
