@<TRIPOS>MOLECULE
3tti_KBI_A_1.pdb
 32 36 0 0 0
SMALL
GASTEIGER

@<TRIPOS>ATOM
      1  C1       -21.7190    6.4800  -31.8720 C.1   465  KBI465      0.1623
      2  F1       -18.8410   13.9840  -31.8750 F     465  KBI465     -0.2026
      3  N1       -20.5040    6.2270  -32.4040 N.2   465  KBI465     -0.1886
      4  O1       -27.5190    4.7390  -28.9410 O.3   465  KBI465     -0.2231
      5  C2       -21.4250    8.7760  -32.1970 C.2   465  KBI465      0.2303
      6  F2       -16.2950   14.2720  -35.8540 F     465  KBI465     -0.2040
      7  N2       -22.1730    7.7440  -31.7710 N.2   465  KBI465     -0.3185
      8  O2       -23.4120   10.2370  -29.5240 O.3   465  KBI465     -0.3519
      9  C3       -20.1720    8.5360  -32.7450 C.2   465  KBI465      0.1823
     10  F3       -19.8610   11.1560  -35.5580 F     465  KBI465     -0.2026
     11  N3       -21.6020   10.0950  -32.2340 N.pl3 465  KBI465     -0.2210
     12  C4       -19.7320    7.2140  -32.8350 C.3   465  KBI465      0.2012
     13  N4       -19.6350    9.7170  -33.0850 N.2   465  KBI465     -0.3696
     14  C5       -20.5190   10.6700  -32.7620 C.cat 465  KBI465      0.2678
     15  N5       -20.3740   11.9940  -32.9520 N.pl3 465  KBI465     -0.1655
     16  C6       -19.3840   12.5400  -33.6810 C.ar  465  KBI465      0.1291
     17  N6       -22.4750    5.4630  -31.4470 N.pl3 465  KBI465     -0.1641
     18  C7       -23.8780    5.6490  -31.0260 C.3   465  KBI465      0.1048
     19  C8       -23.9390    5.8040  -29.4930 C.3   465  KBI465      0.0251
     20  C9       -25.3850    5.8730  -28.9800 C.3   465  KBI465      0.0347
     21  C10      -26.1760    4.6320  -29.4100 C.3   465  KBI465      0.1521
     22  C11      -26.1590    4.5260  -30.9430 C.3   465  KBI465      0.0347
     23  C12      -24.7150    4.4360  -31.4650 C.3   465  KBI465      0.0251
     24  C13      -22.7840   10.8200  -31.7430 C.3   465  KBI465      0.1152
     25  C14      -22.5640   11.1410  -30.2570 C.3   465  KBI465      0.1624
     26  C15      -24.5910   10.0880  -30.3360 C.3   465  KBI465      0.1440
     27  C16      -24.0380    9.9480  -31.7590 C.3   465  KBI465      0.0549
     28  C17      -19.1200   12.1240  -34.9860 C.ar  465  KBI465      0.1598
     29  C18      -18.0800   12.7050  -35.7120 C.ar  465  KBI465      0.0607
     30  C19      -17.3010   13.7130  -35.1520 C.ar  465  KBI465      0.1447
     31  C20      -17.5640   14.1380  -33.8540 C.ar  465  KBI465      0.0607
     32  C21      -18.5990   13.5540  -33.1270 C.ar  465  KBI465      0.1598
@<TRIPOS>BOND
     1     6    30    1
     2    29    30   ar
     3    29    28   ar
     4    10    28    1
     5    30    31   ar
     6    28    16   ar
     7    31    32   ar
     8    16    32   ar
     9    16    15    1
    10    32     2    1
    11    13    14    2
    12    13     9    2
    13    15    14    1
    14    12     9    1
    15    12     3    1
    16    14    11    1
    17     9     5    1
    18     3     1    2
    19    11     5    1
    20    11    24    1
    21     5     7    2
    22     1     7    2
    23     1    17    1
    24    27    24    1
    25    27    26    1
    26    24    25    1
    27    23    18    1
    28    23    22    1
    29    17    18    1
    30    18    19    1
    31    22    21    1
    32    26     8    1
    33    25     8    1
    34    19    20    1
    35    21    20    1
    36    21     4    1
