@<TRIPOS>MOLECULE
3ttj_JBI_A_1.pdb
 31 35 0 0 0
SMALL
GASTEIGER

@<TRIPOS>ATOM
      1  C1        21.1560    8.4700   31.8570 C.2   465  JBI465      0.2302
      2  F1        19.8610   10.9390   35.3800 F     465  JBI465     -0.2028
      3  N1        20.1700    5.9710   32.1430 N.2   465  JBI465     -0.1884
      4  O1        27.1140    5.0640   29.0550 O.3   465  JBI465     -0.4714
      5  C2        19.9580    8.2670   32.5200 C.2   465  JBI465      0.1823
      6  N2        21.8260    7.4190   31.3590 N.2   465  JBI465     -0.3182
      7  C3        19.4760    6.9720   32.6510 C.3   465  JBI465      0.2012
      8  N3        21.3810    9.7820   31.8910 N.pl3 465  JBI465     -0.2236
      9  C4        21.3360    6.1740   31.5070 C.1   465  JBI465      0.1668
     10  N4        19.4990    9.4550   32.9200 N.2   465  JBI465     -0.3696
     11  C5        20.3730   10.3770   32.5260 C.cat 465  JBI465      0.2677
     12  N5        21.9740    5.1110   31.0090 N.pl3 465  JBI465     -0.1360
     13  C6        22.5480   10.4690   31.2970 C.3   465  JBI465      0.0832
     14  N6        20.2660   11.6930   32.7460 N.pl3 465  JBI465     -0.1678
     15  C7        23.2270    5.1230   30.5340 C.ar  465  JBI465      0.0828
     16  C8        19.2860   12.2470   33.4750 C.ar  465  JBI465      0.1017
     17  C9        23.8390    9.7120   31.6240 C.3   465  JBI465      0.0203
     18  C10       24.7150    9.9780   30.4070 C.3   465  JBI465      0.0018
     19  C11       23.7390    9.8110   29.2450 C.3   465  JBI465      0.0018
     20  C12       22.4370   10.4430   29.7540 C.3   465  JBI465      0.0203
     21  C13       19.0830   11.8800   34.8060 C.ar  465  JBI465      0.1554
     22  C14       18.0750   12.4730   35.5550 C.ar  465  JBI465      0.0310
     23  C15       17.2580   13.4490   34.9820 C.ar  465  JBI465      0.0024
     24  C16       17.4610   13.8280   33.6570 C.ar  465  JBI465      0.0015
     25  C17       18.4740   13.2290   32.9080 C.ar  465  JBI465      0.0189
     26  C18       23.6250    6.0390   29.5660 C.ar  465  JBI465      0.0205
     27  C19       24.9270    6.0210   29.0740 C.ar  465  JBI465      0.0383
     28  C20       25.8370    5.0770   29.5430 C.ar  465  JBI465      0.1388
     29  C21       25.4380    4.1560   30.5070 C.ar  465  JBI465      0.0383
     30  C22       24.1360    4.1790   30.9970 C.ar  465  JBI465      0.0205
     31  C23       27.9360    4.0870   29.7190 C.3   465  JBI465      0.2525
@<TRIPOS>BOND
     1     4    28    1
     2     4    31    1
     3    27    28   ar
     4    27    26   ar
     5    19    20    1
     6    19    18    1
     7    28    29   ar
     8    26    15   ar
     9    20    13    1
    10    18    17    1
    11    29    30   ar
    12    15    30   ar
    13    15    12    1
    14    12     9    1
    15    13    17    1
    16    13     8    1
    17     6     9    2
    18     6     1    2
    19     9     3    2
    20     1     8    1
    21     1     5    1
    22     8    11    1
    23     3     7    1
    24     5     7    1
    25     5    10    2
    26    11    14    1
    27    11    10    2
    28    14    16    1
    29    25    16   ar
    30    25    24   ar
    31    16    21   ar
    32    24    23   ar
    33    21     2    1
    34    21    22   ar
    35    23    22   ar
