@<TRIPOS>MOLECULE
3ttn_SPD_A_1.pdb
 10 9 0 0 0
SMALL
GASTEIGER

@<TRIPOS>ATOM
      1  N1        26.0240   27.2880   31.8790 N.3   363  SPD363     -0.1314
      2  C2        25.6740   28.6610   32.2050 C.3   363  SPD363      0.1094
      3  C3        24.2020   28.7490   32.5890 C.3   363  SPD363      0.0220
      4  C4        23.9270   30.0630   33.3210 C.3   363  SPD363      0.0203
      5  C5        22.4580   30.3970   33.1780 C.3   363  SPD363      0.0887
      6  N6        21.6720   30.0550   34.3210 N.3   363  SPD363     -0.2180
      7  C7        20.4990   30.8570   34.6400 C.3   363  SPD363      0.0902
      8  C8        19.2470   29.9820   34.6890 C.3   363  SPD363      0.0393
      9  C9        18.0790   30.6230   35.4490 C.3   363  SPD363      0.1108
     10  N10       16.8560   30.0850   34.8730 N.3   363  SPD363     -0.1313
@<TRIPOS>BOND
     1     1     2    1
     2     2     3    1
     3     3     4    1
     4     5     4    1
     5     5     6    1
     6     6     7    1
     7     7     8    1
     8     8     9    1
     9    10     9    1
