@<TRIPOS>MOLECULE
3ttp_017_A_1.pdb
 38 41 0 0 0
SMALL
GASTEIGER

@<TRIPOS>ATOM
      1  N1       -10.1180   15.7390   35.0410 N.pl3 201  017201     -0.1281
      2  C2        -9.8680   15.5250   33.7290 C.ar  201  017201      0.0892
      3  C3        -9.2720   16.5370   33.0040 C.ar  201  017201      0.0194
      4  C4        -9.0040   16.3610   31.6610 C.ar  201  017201      0.0213
      5  C5        -9.3320   15.1620   31.0310 C.ar  201  017201      0.1223
      6  C6        -9.9280   14.1320   31.7540 C.ar  201  017201      0.0213
      7  C7       -10.1930   14.3100   33.1160 C.ar  201  017201      0.0194
      8  S8        -9.0120   15.0020   29.4820 S.O2  201  017201      0.0634
      9  O9        -7.7980   15.7080   29.1980 O.2   201  017201     -0.1528
     10  O10       -8.7770   13.6090   29.2320 O.2   201  017201     -0.1528
     11  N11      -10.2060   15.5340   28.5050 N.3   201  017201     -0.1529
     12  C12      -11.5450   14.9960   28.8260 C.3   201  017201      0.0958
     13  C13      -12.3850   14.7400   27.5670 C.3   201  017201      0.0178
     14  C14      -11.5830   14.1430   26.4120 C.3   201  017201      0.0015
     15  C15      -13.5540   13.8200   27.8920 C.3   201  017201      0.0015
     16  C16      -10.2440   17.0030   28.4310 C.3   201  017201      0.1304
     17  C17       -9.9630   17.4030   26.9750 C.3   201  017201      0.1898
     18  O18      -10.3090   18.7700   26.7610 O.3   201  017201     -0.2197
     19  C19       -8.5200   17.1360   26.5300 C.3   201  017201      0.1347
     20  N20       -8.4960   17.3790   25.0930 N.am  201  017201     -0.1675
     21  C21       -8.3800   16.4490   24.1390 C.2   201  017201      0.4211
     22  O22       -8.2800   15.2430   24.3030 O.2   201  017201     -0.2246
     23  O23       -8.3830   16.9510   22.7820 O.3   201  017201     -0.4345
     24  C24       -7.9640   16.0660   21.7630 C.3   201  017201      0.2048
     25  C25       -8.9760   16.3060   20.6720 C.3   201  017201      0.1884
     26  O26       -8.4460   17.4010   19.9050 O.3   201  017201     -0.3265
     27  C27       -7.1030   17.7070   20.2910 C.3   201  017201      0.2388
     28  O28       -7.0080   18.9160   21.0680 O.3   201  017201     -0.3304
     29  C29       -6.1270   18.7650   22.1960 C.3   201  017201      0.1451
     30  C30       -5.7280   17.2740   22.2030 C.3   201  017201      0.0409
     31  C31       -6.6560   16.5920   21.2020 C.3   201  017201      0.1016
     32  C32       -7.5180   18.1280   27.1180 C.3   201  017201      0.0508
     33  C33       -5.5040   18.6740   25.7120 C.ar  201  017201     -0.0042
     34  C34       -4.2300   18.3740   25.2270 C.ar  201  017201     -0.0003
     35  C35       -3.6020   17.1960   25.6110 C.ar  201  017201     -0.0000
     36  C36       -4.2400   16.3220   26.4870 C.ar  201  017201     -0.0003
     37  C37       -5.5040   16.6240   26.9850 C.ar  201  017201     -0.0042
     38  C38       -6.1430   17.7990   26.5910 C.ar  201  017201     -0.0204
@<TRIPOS>BOND
     1    26    27    1
     2    26    25    1
     3    27    28    1
     4    27    31    1
     5    25    24    1
     6    28    29    1
     7    31    24    1
     8    31    30    1
     9    24    23    1
    10    29    30    1
    11    23    21    1
    12    21    22    2
    13    21    20   am
    14    20    19    1
    15    34    35   ar
    16    34    33   ar
    17    35    36   ar
    18    33    38   ar
    19    14    13    1
    20    36    37   ar
    21    19    17    1
    22    19    32    1
    23    38    37   ar
    24    38    32    1
    25    18    17    1
    26    17    16    1
    27    13    15    1
    28    13    12    1
    29    16    11    1
    30    11    12    1
    31    11     8    1
    32     9     8    2
    33    10     8    2
    34     8     5    1
    35     5     4   ar
    36     5     6   ar
    37     4     3   ar
    38     6     7   ar
    39     3     2   ar
    40     7     2   ar
    41     2     1    1
