@<TRIPOS>MOLECULE
3ttr_LQZ_A_1.pdb
 17 17 0 0 0
SMALL
GASTEIGER

@<TRIPOS>ATOM
      1  C         16.1750   19.3930   16.3000 C.2    90  LQZ90       0.2619
      2  N         17.0700   17.4590   15.4500 N.3    90  LQZ90      -0.2650
      3  O         15.9880   19.8100   17.4450 O.2    90  LQZ90      -0.2715
      4  CA        17.3330   18.4730   16.4670 C.3    90  LQZ90       0.1606
      5  CAA       14.7040   17.2070   14.8500 C.3    90  LQZ90       0.0188
      6  CAB       18.7030   16.4350   13.9830 C.3    90  LQZ90       0.0188
      7  CAC       13.5870   20.4050   16.4740 C.3    90  LQZ90       0.0324
      8  CAD       16.4780   20.8960   12.5360 C.3    90  LQZ90       0.0324
      9  CAF       12.9200   21.8890   13.1650 C.ar   90  LQZ90      -0.0006
     10  CAG       12.6540   21.2690   14.3730 C.ar   90  LQZ90      -0.0030
     11  CAH       14.1600   21.7570   12.5750 C.ar   90  LQZ90      -0.0030
     12  CAI       15.7870   16.8270   15.7590 C.3    90  LQZ90       0.0726
     13  CAJ       18.1540   16.4860   15.3840 C.3    90  LQZ90       0.0726
     14  NAL       15.9020   19.6330   15.0100 N.am   90  LQZ90      -0.1787
     15  CAN       13.6410   20.5290   14.9870 C.ar   90  LQZ90      -0.0068
     16  CAO       15.1350   21.0040   13.1930 C.ar   90  LQZ90      -0.0068
     17  CAP       14.8860   20.3980   14.4110 C.ar   90  LQZ90       0.0654
@<TRIPOS>BOND
     1     8    16    1
     2    11     9   ar
     3    11    16   ar
     4     9    10   ar
     5    16    17   ar
     6     6    13    1
     7    10    15   ar
     8    17    15   ar
     9    17    14    1
    10     5    12    1
    11    15     7    1
    12    14     1   am
    13    13     2    1
    14     2    12    1
    15     2     4    1
    16     1     4    1
    17     1     3    2
