@<TRIPOS>MOLECULE
3ttt_HEM_A_1.pdb
 43 50 0 0 0
SMALL
GASTEIGER

@<TRIPOS>ATOM
      1  CHA        1.6360   -3.1090   20.8660 C.2   760  HEM760      0.0000
      2  CHB       -2.3390   -3.8360   23.6760 C.2   760  HEM760      0.0000
      3  CHC       -4.2930    0.2660   21.8960 C.2   760  HEM760      0.0000
      4  CHD       -0.6780    0.5630   18.6270 C.2   760  HEM760      0.0000
      5  C1A        0.7520   -3.6070   21.8580 C.2   760  HEM760      0.0000
      6  C2A        1.0270   -4.7990   22.6520 C.2   760  HEM760      0.0000
      7  C3A       -0.1170   -4.9750   23.5260 C.2   760  HEM760      0.0000
      8  C4A       -1.0320   -3.9120   23.1650 C.2   760  HEM760      0.0000
      9  CMA       -0.3340   -6.0280   24.5610 C.3   760  HEM760      0.0000
     10  CAA        2.3250   -5.5710   22.7090 C.3   760  HEM760      0.0000
     11  CBA        2.1680   -6.8340   21.7590 C.3   760  HEM760      0.0000
     12  CGA        3.4870   -7.5640   21.9310 C.2   760  HEM760      0.0000
     13  O1A        4.3100   -7.5500   21.0190 O.co2 760  HEM760      0.0000
     14  O2A        3.7630   -8.1710   23.0090 O.co2 760  HEM760      0.0000
     15  C1B       -3.2130   -2.7180   23.3640 C.ar  760  HEM760      0.0000
     16  C2B       -4.4930   -2.6850   24.1030 C.ar  760  HEM760      0.0000
     17  C3B       -5.0490   -1.4790   23.5880 C.ar  760  HEM760      0.0000
     18  C4B       -4.1060   -0.9450   22.6290 C.ar  760  HEM760      0.0000
     19  CMB       -5.0600   -3.6270   25.0390 C.3   760  HEM760      0.0000
     20  CAB       -6.3610   -0.8670   23.9470 C.2   760  HEM760      0.0000
     21  CBB       -7.3930   -1.6000   24.2560 C.2   760  HEM760      0.0000
     22  C1C       -3.5060    0.6850   20.8200 C.2   760  HEM760      0.0000
     23  C2C       -3.8490    1.8140   19.9550 C.2   760  HEM760      0.0000
     24  C3C       -2.8530    1.8030   19.0000 C.2   760  HEM760      0.0000
     25  C4C       -1.9020    0.7520   19.3350 C.2   760  HEM760      0.0000
     26  CMC       -5.1230    2.6480   20.0600 C.3   760  HEM760      0.0000
     27  CAC       -2.5670    2.6510   17.8230 C.2   760  HEM760      0.0000
     28  CBC       -3.6030    3.1940   17.2130 C.2   760  HEM760      0.0000
     29  C1D        0.3490   -0.3840   19.0820 C.ar  760  HEM760      0.0000
     30  C2D        1.5840   -0.5190   18.3380 C.ar  760  HEM760      0.0000
     31  C3D        2.2880   -1.5950   18.9520 C.ar  760  HEM760      0.0000
     32  C4D        1.3360   -2.0240   19.9290 C.ar  760  HEM760      0.0000
     33  CMD        2.1940    0.4290   17.3610 C.3   760  HEM760      0.0000
     34  CAD        3.6860   -2.0640   18.6630 C.3   760  HEM760      0.0000
     35  CBD        3.2810   -3.3620   17.8440 C.3   760  HEM760      0.0000
     36  CGD        4.5030   -3.9790   17.2700 C.2   760  HEM760      0.0000
     37  O1D        5.5910   -3.3400   17.0040 O.co2 760  HEM760      0.0000
     38  O2D        4.5250   -5.1890   16.9350 O.co2 760  HEM760      0.0000
     39  NA        -0.5350   -3.1040   22.1060 N.2   760  HEM760      0.0000
     40  NB        -2.9340   -1.7280   22.5540 N.ar  760  HEM760      0.0000
     41  NC        -2.2210    0.0840   20.4900 N.2   760  HEM760      0.0000
     42  ND         0.1710   -1.3210   20.0230 N.ar  760  HEM760      0.0000
     43 FE         -1.4970   -1.6570   21.1140 Fe    760  HEM760      0.0000
@<TRIPOS>BOND
     1    38    36   ar
     2    37    36   ar
     3    28    27    2
     4    36    35    1
     5    33    30    1
     6    27    24    1
     7    35    34    1
     8    30    31   ar
     9    30    29   ar
    10     4    29    2
    11     4    25    1
    12    34    31    1
    13    31    32   ar
    14    24    25    1
    15    24    23    2
    16    29    42   ar
    17    25    41    2
    18    32    42   ar
    19    32     1    2
    20    23    26    1
    21    23    22    1
    22    42    43    1
    23    41    22    1
    24    41    43    1
    25    22     3    2
    26     1     5    1
    27    13    12   ar
    28    43    39    1
    29    43    40    1
    30    11    12    1
    31    11    10    1
    32     5    39    2
    33     5     6    1
    34     3    18    1
    35    12    14   ar
    36    39     8    1
    37    40    18   ar
    38    40    15   ar
    39    18    17   ar
    40     6    10    1
    41     6     7    2
    42     8     7    1
    43     8     2    2
    44    15     2    1
    45    15    16   ar
    46     7     9    1
    47    17    20    1
    48    17    16   ar
    49    20    21    2
    50    16    19    1
