@<TRIPOS>MOLECULE
3ttu_HEM_A_1.pdb
 43 50 0 0 0
SMALL
GASTEIGER

@<TRIPOS>ATOM
      1  CHA        1.6870   -3.1340   20.9740 C.2   760  HEM760      0.0000
      2  CHB       -2.2190   -3.9380   23.7380 C.2   760  HEM760      0.0000
      3  CHC       -4.1660    0.2450   22.1070 C.2   760  HEM760      0.0000
      4  CHD       -0.6460    0.5350   18.7400 C.2   760  HEM760      0.0000
      5  C1A        0.8230   -3.6520   21.8950 C.2   760  HEM760      0.0000
      6  C2A        1.0900   -4.8280   22.7190 C.2   760  HEM760      0.0000
      7  C3A        0.0090   -5.0350   23.4890 C.2   760  HEM760      0.0000
      8  C4A       -0.9720   -4.0300   23.1810 C.2   760  HEM760      0.0000
      9  CMA       -0.1570   -6.1720   24.5300 C.3   760  HEM760      0.0000
     10  CAA        2.3970   -5.6950   22.7100 C.3   760  HEM760      0.0000
     11  CBA        2.3020   -6.9760   21.8280 C.3   760  HEM760      0.0000
     12  CGA        3.6340   -7.6250   21.9520 C.2   760  HEM760      0.0000
     13  O1A        4.4840   -7.5170   20.9890 O.co2 760  HEM760      0.0000
     14  O2A        3.8420   -8.1980   23.0520 O.co2 760  HEM760      0.0000
     15  C1B       -3.0850   -2.8550   23.5640 C.ar  760  HEM760      0.0000
     16  C2B       -4.3880   -2.7000   24.1760 C.ar  760  HEM760      0.0000
     17  C3B       -4.9430   -1.5450   23.7100 C.ar  760  HEM760      0.0000
     18  C4B       -4.0120   -0.9440   22.7870 C.ar  760  HEM760      0.0000
     19  CMB       -5.0010   -3.7620   25.1220 C.3   760  HEM760      0.0000
     20  CAB       -6.2730   -0.9180   24.1140 C.2   760  HEM760      0.0000
     21  CBB       -7.3650   -1.6490   24.3020 C.2   760  HEM760      0.0000
     22  C1C       -3.4460    0.6390   21.0040 C.2   760  HEM760      0.0000
     23  C2C       -3.7500    1.7630   20.1400 C.2   760  HEM760      0.0000
     24  C3C       -2.8180    1.7830   19.1660 C.2   760  HEM760      0.0000
     25  C4C       -1.8310    0.7580   19.4410 C.2   760  HEM760      0.0000
     26  CMC       -5.0440    2.6610   20.2710 C.3   760  HEM760      0.0000
     27  CAC       -2.6430    2.7560   17.9950 C.3   760  HEM760      0.0000
     28  CBC       -3.7770    3.1160   17.3920 C.3   760  HEM760      0.0000
     29  C1D        0.3690   -0.3540   19.0930 C.ar  760  HEM760      0.0000
     30  C2D        1.6370   -0.5110   18.4670 C.ar  760  HEM760      0.0000
     31  C3D        2.3070   -1.6810   19.0770 C.ar  760  HEM760      0.0000
     32  C4D        1.4200   -2.0860   20.1090 C.ar  760  HEM760      0.0000
     33  CMD        2.1310    0.2880   17.2390 C.3   760  HEM760      0.0000
     34  CAD        3.7030   -2.2480   18.7250 C.3   760  HEM760      0.0000
     35  CBD        3.3190   -3.5070   17.9070 C.3   760  HEM760      0.0000
     36  CGD        4.5570   -4.0860   17.2390 C.2   760  HEM760      0.0000
     37  O1D        4.5650   -5.2730   16.8510 O.co2 760  HEM760      0.0000
     38  O2D        5.5720   -3.3490   17.0980 O.co2 760  HEM760      0.0000
     39  NA        -0.4750   -3.2080   22.1460 N.2   760  HEM760      0.0000
     40  NB        -2.9420   -1.8260   22.6740 N.ar  760  HEM760      0.0000
     41  NC        -2.3070    0.0470   20.5240 N.2   760  HEM760      0.0000
     42  ND         0.2570   -1.3370   20.0390 N.ar  760  HEM760      0.0000
     43 FE         -1.4500   -1.6930   21.2280 Fe    760  HEM760      0.0000
@<TRIPOS>BOND
     1    37    36   ar
     2    38    36   ar
     3    33    30    1
     4    36    35    1
     5    28    27    1
     6    35    34    1
     7    27    24    1
     8    30    31   ar
     9    30    29   ar
    10    34    31    1
    11     4    29    2
    12     4    25    1
    13    31    32   ar
    14    29    42   ar
    15    24    25    1
    16    24    23    2
    17    25    41    2
    18    42    32   ar
    19    42    43    1
    20    32     1    2
    21    23    26    1
    22    23    22    1
    23    41    22    1
    24    41    43    1
    25     1     5    1
    26    13    12   ar
    27    22     3    2
    28    43    39    1
    29    43    40    1
    30    11    12    1
    31    11    10    1
    32     5    39    2
    33     5     6    1
    34    12    14   ar
    35     3    18    1
    36    39     8    1
    37    40    18   ar
    38    40    15   ar
    39    10     6    1
    40     6     7    2
    41    18    17   ar
    42     8     7    1
    43     8     2    2
    44     7     9    1
    45    15     2    1
    46    15    16   ar
    47    17    20    1
    48    17    16   ar
    49    20    21    2
    50    16    19    1
