@<TRIPOS>MOLECULE
3ttv_HEM_A_1.pdb
 43 50 0 0 0
SMALL
GASTEIGER

@<TRIPOS>ATOM
      1  CHA        1.7120   -3.1530   20.9760 C.2   760  HEM760      0.0000
      2  CHB       -2.2470   -3.9330   23.8960 C.2   760  HEM760      0.0000
      3  CHC       -4.1920    0.2370   22.0880 C.2   760  HEM760      0.0000
      4  CHD       -0.5860    0.5880   18.9140 C.2   760  HEM760      0.0000
      5  C1A        0.8740   -3.6940   21.9650 C.2   760  HEM760      0.0000
      6  C2A        1.1340   -4.8910   22.7920 C.2   760  HEM760      0.0000
      7  C3A       -0.0340   -5.0850   23.6300 C.2   760  HEM760      0.0000
      8  C4A       -0.9670   -4.0060   23.3390 C.2   760  HEM760      0.0000
      9  CMA       -0.2310   -6.1220   24.6540 C.3   760  HEM760      0.0000
     10  CAA        2.4040   -5.6770   22.7480 C.3   760  HEM760      0.0000
     11  CBA        2.2670   -6.9970   21.9250 C.3   760  HEM760      0.0000
     12  CGA        3.6050   -7.6260   22.0820 C.2   760  HEM760      0.0000
     13  O1A        4.4200   -7.6050   21.1170 O.co2 760  HEM760      0.0000
     14  O2A        3.7960   -8.2290   23.1620 O.co2 760  HEM760      0.0000
     15  C1B       -3.1440   -2.8610   23.5730 C.ar  760  HEM760      0.0000
     16  C2B       -4.4670   -2.7380   24.2450 C.ar  760  HEM760      0.0000
     17  C3B       -4.9530   -1.5190   23.7800 C.ar  760  HEM760      0.0000
     18  C4B       -4.0380   -0.9540   22.8300 C.ar  760  HEM760      0.0000
     19  CMB       -4.9980   -3.7510   25.1460 C.3   760  HEM760      0.0000
     20  CAB       -6.2820   -0.9070   24.1200 C.2   760  HEM760      0.0000
     21  CBB       -7.3570   -1.6130   24.4100 C.2   760  HEM760      0.0000
     22  C1C       -3.4290    0.6710   21.0340 C.2   760  HEM760      0.0000
     23  C2C       -3.7460    1.7750   20.1920 C.2   760  HEM760      0.0000
     24  C3C       -2.7470    1.8520   19.1990 C.2   760  HEM760      0.0000
     25  C4C       -1.7910    0.8050   19.5730 C.2   760  HEM760      0.0000
     26  CMC       -5.0380    2.6270   20.3190 C.3   760  HEM760      0.0000
     27  CAC       -2.5860    2.7630   18.0490 C.2   760  HEM760      0.0000
     28  CBC       -3.7090    3.1370   17.3680 C.2   760  HEM760      0.0000
     29  C1D        0.4550   -0.3460   19.2800 C.ar  760  HEM760      0.0000
     30  C2D        1.7090   -0.3870   18.5560 C.ar  760  HEM760      0.0000
     31  C3D        2.3430   -1.5520   19.1450 C.ar  760  HEM760      0.0000
     32  C4D        1.4360   -2.0170   20.1340 C.ar  760  HEM760      0.0000
     33  CMD        2.2010    0.5040   17.4300 C.3   760  HEM760      0.0000
     34  CAD        3.6980   -2.1240   18.8270 C.3   760  HEM760      0.0000
     35  CBD        3.2960   -3.3970   18.0520 C.3   760  HEM760      0.0000
     36  CGD        4.5670   -3.9960   17.4200 C.2   760  HEM760      0.0000
     37  O1D        4.5870   -5.2170   17.0780 O.co2 760  HEM760      0.0000
     38  O2D        5.6300   -3.3390   17.1540 O.co2 760  HEM760      0.0000
     39  NA        -0.4230   -3.1320   22.2940 N.2   760  HEM760      0.0000
     40  NB        -2.9020   -1.7640   22.7910 N.ar  760  HEM760      0.0000
     41  NC        -2.1210    0.1000   20.6790 N.2   760  HEM760      0.0000
     42  ND         0.2750   -1.3060   20.2310 N.ar  760  HEM760      0.0000
     43 FE         -1.4210   -1.6780   21.3140 Fe    760  HEM760      0.0000
@<TRIPOS>BOND
     1    37    36   ar
     2    38    36   ar
     3    28    27    2
     4    36    35    1
     5    33    30    1
     6    27    24    1
     7    35    34    1
     8    30    31   ar
     9    30    29   ar
    10    34    31    1
    11     4    29    2
    12     4    25    1
    13    31    32   ar
    14    24    25    1
    15    24    23    2
    16    29    42   ar
    17    25    41    2
    18    32    42   ar
    19    32     1    2
    20    23    26    1
    21    23    22    1
    22    42    43    1
    23    41    22    1
    24    41    43    1
    25     1     5    1
    26    22     3    2
    27    13    12   ar
    28    43    39    1
    29    43    40    1
    30    11    12    1
    31    11    10    1
    32     5    39    2
    33     5     6    1
    34    12    14   ar
    35     3    18    1
    36    39     8    1
    37    10     6    1
    38    40    18   ar
    39    40    15   ar
    40     6     7    2
    41    18    17   ar
    42     8     7    1
    43     8     2    2
    44    15     2    1
    45    15    16   ar
    46     7     9    1
    47    17    20    1
    48    17    16   ar
    49    20    21    2
    50    16    19    1
