@<TRIPOS>MOLECULE
3ttw_HEM_A_1.pdb
 43 50 0 0 0
SMALL
GASTEIGER

@<TRIPOS>ATOM
      1  CHA        1.6130   -3.1960   20.9110 C.2   760  HEM760      0.0000
      2  CHB       -2.3080   -3.9010   23.7430 C.2   760  HEM760      0.0000
      3  CHC       -4.2170    0.2860   22.0110 C.2   760  HEM760      0.0000
      4  CHD       -0.6190    0.5470   18.7130 C.2   760  HEM760      0.0000
      5  C1A        0.7700   -3.6590   21.8680 C.2   760  HEM760      0.0000
      6  C2A        1.0120   -4.8440   22.6970 C.2   760  HEM760      0.0000
      7  C3A       -0.0710   -5.0160   23.5020 C.2   760  HEM760      0.0000
      8  C4A       -1.0480   -3.9850   23.1860 C.2   760  HEM760      0.0000
      9  CMA       -0.2970   -6.0820   24.6010 C.3   760  HEM760      0.0000
     10  CAA        2.3320   -5.6100   22.6520 C.3   760  HEM760      0.0000
     11  CBA        2.2170   -6.9490   21.8230 C.3   760  HEM760      0.0000
     12  CGA        3.5780   -7.6080   21.9780 C.2   760  HEM760      0.0000
     13  O1A        4.3310   -7.5380   20.9890 O.co2 760  HEM760      0.0000
     14  O2A        3.8260   -8.1610   23.0440 O.co2 760  HEM760      0.0000
     15  C1B       -3.1530   -2.8450   23.4560 C.ar  760  HEM760      0.0000
     16  C2B       -4.4990   -2.7100   24.0590 C.ar  760  HEM760      0.0000
     17  C3B       -4.9750   -1.5320   23.5800 C.ar  760  HEM760      0.0000
     18  C4B       -4.0330   -0.9200   22.6860 C.ar  760  HEM760      0.0000
     19  CMB       -5.1100   -3.7670   25.0550 C.3   760  HEM760      0.0000
     20  CAB       -6.2990   -0.8960   23.9090 C.2   760  HEM760      0.0000
     21  CBB       -7.3060   -1.5060   24.4700 C.2   760  HEM760      0.0000
     22  C1C       -3.4650    0.6640   20.8970 C.2   760  HEM760      0.0000
     23  C2C       -3.7750    1.7630   20.0310 C.2   760  HEM760      0.0000
     24  C3C       -2.8030    1.7670   19.0980 C.2   760  HEM760      0.0000
     25  C4C       -1.7990    0.7530   19.4140 C.2   760  HEM760      0.0000
     26  CMC       -5.0940    2.6320   20.1040 C.3   760  HEM760      0.0000
     27  CAC       -2.6270    2.6960   17.9070 C.2   760  HEM760      0.0000
     28  CBC       -3.7710    3.1250   17.2930 C.2   760  HEM760      0.0000
     29  C1D        0.3110   -0.4040   19.0560 C.ar  760  HEM760      0.0000
     30  C2D        1.5800   -0.4640   18.3950 C.ar  760  HEM760      0.0000
     31  C3D        2.2440   -1.6250   19.0330 C.ar  760  HEM760      0.0000
     32  C4D        1.3710   -2.0890   20.0700 C.ar  760  HEM760      0.0000
     33  CMD        2.1260    0.4470   17.3000 C.3   760  HEM760      0.0000
     34  CAD        3.6470   -2.0660   18.7490 C.3   760  HEM760      0.0000
     35  CBD        3.1780   -3.3770   18.0360 C.3   760  HEM760      0.0000
     36  CGD        4.3820   -3.9400   17.3540 C.2   760  HEM760      0.0000
     37  O1D        4.3830   -5.0980   16.9000 O.co2 760  HEM760      0.0000
     38  O2D        5.5250   -3.3140   17.2550 O.co2 760  HEM760      0.0000
     39  NA        -0.5320   -3.2070   22.1740 N.2   760  HEM760      0.0000
     40  NB        -2.9210   -1.7660   22.6120 N.ar  760  HEM760      0.0000
     41  NC        -2.2290    0.1120   20.5210 N.2   760  HEM760      0.0000
     42  ND         0.1670   -1.3610   20.0740 N.ar  760  HEM760      0.0000
     43 FE         -1.4650   -1.6700   21.2560 Fe    760  HEM760      0.0000
@<TRIPOS>BOND
     1    37    36   ar
     2    38    36   ar
     3    28    27    2
     4    33    30    1
     5    36    35    1
     6    27    24    1
     7    35    34    1
     8    30    31   ar
     9    30    29   ar
    10     4    29    2
    11     4    25    1
    12    34    31    1
    13    31    32   ar
    14    29    42   ar
    15    24    25    1
    16    24    23    2
    17    25    41    2
    18    23    26    1
    19    23    22    1
    20    32    42   ar
    21    32     1    2
    22    42    43    1
    23    41    22    1
    24    41    43    1
    25    22     3    2
    26     1     5    1
    27    13    12   ar
    28    43    39    1
    29    43    40    1
    30    11    12    1
    31    11    10    1
    32     5    39    2
    33     5     6    1
    34    12    14   ar
    35     3    18    1
    36    39     8    1
    37    40    18   ar
    38    40    15   ar
    39    10     6    1
    40    18    17   ar
    41     6     7    2
    42     8     7    1
    43     8     2    2
    44    15     2    1
    45    15    16   ar
    46     7     9    1
    47    17    20    1
    48    17    16   ar
    49    20    21    2
    50    16    19    1
