@<TRIPOS>MOLECULE
3ttx_HEM_A_1.pdb
 43 50 0 0 0
SMALL
GASTEIGER

@<TRIPOS>ATOM
      1  CHA        1.6110   -3.1760   20.8380 C.2   760  HEM760      0.0000
      2  CHB       -2.2840   -3.9140   23.6530 C.2   760  HEM760      0.0000
      3  CHC       -4.2340    0.3460   22.0070 C.2   760  HEM760      0.0000
      4  CHD       -0.6860    0.5420   18.6650 C.2   760  HEM760      0.0000
      5  C1A        0.7570   -3.6530   21.7980 C.2   760  HEM760      0.0000
      6  C2A        1.0450   -4.8070   22.6570 C.2   760  HEM760      0.0000
      7  C3A       -0.0540   -5.0050   23.4250 C.2   760  HEM760      0.0000
      8  C4A       -1.0320   -3.9950   23.0990 C.2   760  HEM760      0.0000
      9  CMA       -0.2760   -6.0430   24.5150 C.3   760  HEM760      0.0000
     10  CAA        2.3570   -5.6230   22.6910 C.3   760  HEM760      0.0000
     11  CBA        2.2410   -6.8790   21.7590 C.3   760  HEM760      0.0000
     12  CGA        3.5420   -7.6340   21.8400 C.2   760  HEM760      0.0000
     13  O1A        4.3640   -7.5400   20.8650 O.co2 760  HEM760      0.0000
     14  O2A        3.7700   -8.1910   22.9210 O.co2 760  HEM760      0.0000
     15  C1B       -3.1580   -2.8360   23.3910 C.ar  760  HEM760      0.0000
     16  C2B       -4.4590   -2.6730   24.0570 C.ar  760  HEM760      0.0000
     17  C3B       -4.9880   -1.5150   23.6000 C.ar  760  HEM760      0.0000
     18  C4B       -4.0640   -0.8790   22.6820 C.ar  760  HEM760      0.0000
     19  CMB       -5.1570   -3.7120   24.9980 C.3   760  HEM760      0.0000
     20  CAB       -6.3240   -0.9150   24.0190 C.2   760  HEM760      0.0000
     21  CBB       -7.4540   -1.5690   24.1970 C.2   760  HEM760      0.0000
     22  C1C       -3.4460    0.7000   20.9470 C.2   760  HEM760      0.0000
     23  C2C       -3.7660    1.7600   19.9890 C.2   760  HEM760      0.0000
     24  C3C       -2.8330    1.7700   19.0920 C.2   760  HEM760      0.0000
     25  C4C       -1.8170    0.7460   19.4280 C.2   760  HEM760      0.0000
     26  CMC       -5.0740    2.6910   20.0230 C.3   760  HEM760      0.0000
     27  CAC       -2.6340    2.6710   17.8710 C.2   760  HEM760      0.0000
     28  CBC       -3.7520    3.0610   17.2190 C.2   760  HEM760      0.0000
     29  C1D        0.2790   -0.3960   19.0120 C.ar  760  HEM760      0.0000
     30  C2D        1.5450   -0.4870   18.3710 C.ar  760  HEM760      0.0000
     31  C3D        2.2310   -1.6500   19.0270 C.ar  760  HEM760      0.0000
     32  C4D        1.3240   -2.1230   20.0060 C.ar  760  HEM760      0.0000
     33  CMD        2.1930    0.4750   17.3860 C.3   760  HEM760      0.0000
     34  CAD        3.6600   -2.0540   18.6540 C.3   760  HEM760      0.0000
     35  CBD        3.0670   -3.2870   17.8630 C.3   760  HEM760      0.0000
     36  CGD        4.2690   -3.9780   17.3000 C.2   760  HEM760      0.0000
     37  O1D        4.2850   -5.1470   16.8600 O.co2 760  HEM760      0.0000
     38  O2D        5.4450   -3.3930   17.1650 O.co2 760  HEM760      0.0000
     39  NA        -0.5090   -3.1850   22.0350 N.2   760  HEM760      0.0000
     40  NB        -2.9720   -1.7360   22.5890 N.ar  760  HEM760      0.0000
     41  NC        -2.2870    0.0830   20.5170 N.2   760  HEM760      0.0000
     42  ND         0.1620   -1.4010   19.9620 N.ar  760  HEM760      0.0000
     43 FE         -1.4820   -1.6540   21.1770 Fe    760  HEM760      0.0000
@<TRIPOS>BOND
     1    37    36   ar
     2    38    36   ar
     3    28    27    2
     4    36    35    1
     5    33    30    1
     6    35    34    1
     7    27    24    1
     8    30    29   ar
     9    30    31   ar
    10    34    31    1
    11     4    29    2
    12     4    25    1
    13    29    42   ar
    14    31    32   ar
    15    24    25    1
    16    24    23    2
    17    25    41    2
    18    42    32   ar
    19    42    43    1
    20    23    26    1
    21    23    22    1
    22    32     1    2
    23    41    22    1
    24    41    43    1
    25     1     5    1
    26    13    12   ar
    27    22     3    2
    28    43    39    1
    29    43    40    1
    30    11    12    1
    31    11    10    1
    32     5    39    2
    33     5     6    1
    34    12    14   ar
    35     3    18    1
    36    39     8    1
    37    40    18   ar
    38    40    15   ar
    39     6    10    1
    40     6     7    2
    41    18    17   ar
    42     8     7    1
    43     8     2    2
    44    15     2    1
    45    15    16   ar
    46     7     9    1
    47    17    20    1
    48    17    16   ar
    49    20    21    2
    50    16    19    1
