@<TRIPOS>MOLECULE
3tty_GLA_A_1.pdb
 12 12 0 0 0
SMALL
GASTEIGER

@<TRIPOS>ATOM
      1  C1        41.7200   95.9360    5.7090 C.3   677  GLA677      0.3024
      2  C2        40.8880   94.9650    6.5830 C.3   677  GLA677      0.2434
      3  C3        40.8060   95.4030    8.0560 C.3   677  GLA677      0.2199
      4  C4        42.2160   95.7370    8.5190 C.3   677  GLA677      0.2144
      5  C5        42.8350   96.7680    7.5700 C.3   677  GLA677      0.1836
      6  C6        44.2230   97.1450    8.1020 C.3   677  GLA677      0.2142
      7  O1        41.1110   97.2130    5.4470 O.3   677  GLA677     -0.1869
      8  O2        39.5730   94.8400    6.0660 O.3   677  GLA677     -0.2148
      9  O3        40.2840   94.3600    8.8980 O.3   677  GLA677     -0.2174
     10  O4        42.9580   94.5260    8.4530 O.3   677  GLA677     -0.2176
     11  O5        43.0000   96.1760    6.2770 O.3   677  GLA677     -0.3236
     12  O6        44.6720   98.3610    7.4890 O.3   677  GLA677     -0.2176
@<TRIPOS>BOND
     1     7     1    1
     2     1    11    1
     3     1     2    1
     4     8     2    1
     5    11     5    1
     6     2     3    1
     7    12     6    1
     8     5     6    1
     9     5     4    1
    10     3     4    1
    11     3     9    1
    12    10     4    1
