@<TRIPOS>MOLECULE
3ttz_07N_A_1.pdb
 26 28 0 0 0
SMALL
GASTEIGER

@<TRIPOS>ATOM
      1  C1         5.7890    8.4620   23.5650 C.3     1  07N1        0.0674
      2 CL1         1.1250    6.7100   21.7690 Cl      1  07N1       -0.0785
      3  C2         4.4900    7.7050   23.4750 C.2     1  07N1        0.1210
      4 CL2         3.6540    8.7680   21.0530 Cl      1  07N1       -0.0790
      5  C3         3.5760    7.7840   22.4780 C.2     1  07N1        0.0961
      6  C4         2.5240    6.9190   22.7780 C.2     1  07N1        0.1044
      7  C5         2.8340    6.3210   23.9900 C.2     1  07N1        0.1970
      8  N6         4.0470    6.8220   24.4000 N.2     1  07N1       -0.3998
      9  C8         2.0780    5.3350   24.7600 C.2     1  07N1        0.2954
     10  O9         2.5340    4.9900   25.8350 O.2     1  07N1       -0.2655
     11  N10        0.9220    4.8220   24.2850 N.am    1  07N1       -0.1983
     12  C11        0.1330    3.8280   25.0260 C.3     1  07N1        0.1316
     13  C13        0.8580    2.4680   25.0340 C.3     1  07N1        0.0460
     14  C14       -0.0310    1.4200   25.7140 C.3     1  07N1        0.0946
     15  N15       -1.3090    1.3830   24.9890 N.pl3   1  07N1       -0.2852
     16  C16       -2.0990    2.6190   24.9790 C.3     1  07N1        0.1296
     17  C17       -1.2340    3.7110   24.3300 C.3     1  07N1        0.2004
     18  F19       -1.0060    3.3840   22.9900 F       1  07N1       -0.2336
     19  C20       -1.9080    0.1570   24.7740 C.ar    1  07N1        0.1634
     20  N21       -2.9950   -0.0470   24.0770 N.ar    1  07N1       -0.2223
     21  C22       -3.4100   -1.2860   23.9640 C.ar    1  07N1        0.1140
     22  C23       -2.6140   -2.1980   24.6070 C.ar    1  07N1        0.1308
     23  S24       -1.2940   -1.3230   25.3690 S.2     1  07N1       -0.0449
     24  C25       -2.7850   -3.6030   24.6680 C.2     1  07N1        0.3953
     25  O26       -3.7150   -4.1450   24.1010 O.co2   1  07N1       -0.2399
     26  O27       -1.8880   -4.3430   25.3500 O.co2   1  07N1       -0.2399
@<TRIPOS>BOND
     1     4     5    1
     2     2     6    1
     3     5     6    2
     4     5     3    1
     5     6     7    1
     6    18    17    1
     7     3     1    1
     8     3     8    2
     9    21    20   ar
    10    21    22   ar
    11     7     8    2
    12     7     9    1
    13    20    19   ar
    14    25    24   ar
    15    11     9   am
    16    11    12    1
    17    17    16    1
    18    17    12    1
    19    22    24    1
    20    22    23   ar
    21    24    26   ar
    22     9    10    2
    23    19    15    1
    24    19    23   ar
    25    16    15    1
    26    15    14    1
    27    12    13    1
    28    13    14    1
