@<TRIPOS>MOLECULE
3tu1_07G_A_1.pdb
 33 35 0 0 0
SMALL
GASTEIGER

@<TRIPOS>ATOM
      1  C3         7.2600    2.2350   20.9840 C.ar    1  07G1        0.0294
      2  C4         6.7170    3.4980   20.7750 C.ar    1  07G1        0.1671
      3  F1         7.4630    4.6110   20.9280 F       1  07G1       -0.2018
      4  C5         5.3860    3.6090   20.4110 C.ar    1  07G1        0.1674
      5  F2         4.8660    4.8280   20.2120 F       1  07G1       -0.2018
      6  C6         4.6050    2.4680   20.2480 C.ar    1  07G1        0.0317
      7  C1         5.1530    1.2030   20.4620 C.ar    1  07G1       -0.0002
      8  C2         6.4880    1.0800   20.8290 C.ar    1  07G1        0.0001
      9  C7         7.1230   -0.2900   21.1030 C.3     1  07G1        0.1214
     10  N1         6.6320   -1.3660   20.2320 N.am    1  07G1       -0.2581
     11  C8         5.6610   -2.1920   20.5980 C.2     1  07G1        0.3037
     12  O1         5.0690   -2.0370   21.6680 O.2     1  07G1       -0.2649
     13  C9         7.4400   -1.4280   19.0360 C.3     1  07G1        0.1798
     14  C10        8.4890   -2.4580   18.8870 C.2     1  07G1        0.2638
     15  O2         9.1050   -2.7100   19.9160 O.2     1  07G1       -0.2712
     16  N3         8.8010   -2.9060   17.6550 N.am    1  07G1       -0.2072
     17  C20        9.9610   -3.7900   17.3680 C.3     1  07G1        0.0788
     18  C22        9.9380   -5.0580   18.2180 C.3     1  07G1        0.0217
     19  C23        9.9680   -4.1620   15.8870 C.3     1  07G1        0.0217
     20  C21       11.2300   -2.9800   17.6630 C.3     1  07G1        0.0217
     21  C11        7.1730   -0.4030   17.9290 C.2     1  07G1        0.0433
     22  C14        8.1940    0.4940   17.7010 C.ar    1  07G1        0.0304
     23  C15        9.4800    0.6030   18.2310 C.ar    1  07G1        0.0032
     24  C16       10.3200    1.6060   17.7850 C.ar    1  07G1        0.0116
     25  C17        9.8850    2.4920   16.8080 C.ar    1  07G1        0.0602
     26 CL1        10.9280    3.7540   16.2560 Cl      1  07G1       -0.0822
     27  C18        8.6020    2.3730   16.2800 C.ar    1  07G1        0.0434
     28  C13        7.7500    1.3690   16.7250 C.ar    1  07G1        0.1323
     29  N2         6.4950    1.0340   16.3990 N.2     1  07G1       -0.3954
     30  C12        6.1120   -0.0270   17.1220 C.2     1  07G1        0.2087
     31  C19        4.7310   -0.6430   16.9740 C.2     1  07G1        0.4165
     32  O4         4.3320   -1.4890   17.7940 O.co2   1  07G1       -0.2377
     33  O3         4.0650   -0.2090   16.0230 O.co2   1  07G1       -0.2377
@<TRIPOS>BOND
     1    19    17    1
     2    33    31   ar
     3    26    25    1
     4    27    28   ar
     5    27    25   ar
     6    29    28    2
     7    29    30    2
     8    28    22   ar
     9    25    24   ar
    10    31    30    1
    11    31    32   ar
    12    30    21    1
    13    17    16    1
    14    17    20    1
    15    17    18    1
    16    16    14   am
    17    22    21    2
    18    22    23   ar
    19    24    23   ar
    20    21    13    1
    21    14    13    1
    22    14    15    2
    23    13    10    1
    24     5     4    1
    25    10    11   am
    26    10     9    1
    27     6     4   ar
    28     6     7   ar
    29     4     2   ar
    30     7     8   ar
    31    11    12    2
    32     2     3    1
    33     2     1   ar
    34     8     1   ar
    35     8     9    1
