@<TRIPOS>MOLECULE
3tu5_ATP_A_1.pdb
 31 33 0 0 0
SMALL
GASTEIGER

@<TRIPOS>ATOM
      1  PG        16.7830   -6.2220   23.6270 P.3   377  ATP377      0.5373
      2  O1G       17.9220   -5.7600   24.4940 O.3   377  ATP377     -0.1143
      3  O2G       15.7860   -5.1070   23.3960 O.3   377  ATP377     -0.1143
      4  O3G       17.4710   -6.9520   22.3710 O.2   377  ATP377     -0.2221
      5  PB        15.8700   -8.8870   24.1350 P.3   377  ATP377      0.2277
      6  O1B       15.4730   -9.4070   25.4130 O.3   377  ATP377     -0.4368
      7  O2B       17.1550   -9.5340   23.8370 O.2   377  ATP377     -0.5168
      8  O3B       15.8880   -7.3380   24.3370 O.3   377  ATP377     -0.2258
      9  PA        14.1460  -10.3500   22.3670 P.3   377  ATP377      0.2189
     10  O1A       14.6550  -11.6810   22.9250 O.3   377  ATP377     -0.4371
     11  O2A       14.4930  -10.2230   20.8150 O.2   377  ATP377     -0.5170
     12  O3A       14.8050   -9.1380   23.0640 O.3   377  ATP377     -0.2700
     13  O5'       12.5630  -10.3820   22.5520 O.3   377  ATP377     -0.3112
     14  C5'       11.9120  -10.7550   23.7530 C.3   377  ATP377      0.1813
     15  C4'       10.7480   -9.7530   23.7380 C.3   377  ATP377      0.1821
     16  O4'        9.9030   -9.7540   22.5720 O.3   377  ATP377     -0.3135
     17  C3'        9.7660   -9.6470   24.8550 C.3   377  ATP377      0.2184
     18  O3'        9.3220   -8.2680   25.0080 O.3   377  ATP377     -0.2174
     19  C2'        8.6840  -10.5250   24.2820 C.3   377  ATP377      0.2570
     20  O2'        7.4830  -10.2360   25.0120 O.3   377  ATP377     -0.2130
     21  C1'        8.5460  -10.0280   22.8930 C.3   377  ATP377      0.3186
     22  N9         8.0430  -11.1180   22.1500 N.pl3 377  ATP377     -0.1439
     23  C8         8.5320  -12.4340   22.1000 C.3   377  ATP377      0.3377
     24  N7         7.8290  -13.2950   21.3680 N.2   377  ATP377     -0.2095
     25  C5         6.8240  -12.4450   20.8890 C.2   377  ATP377      0.2526
     26  C6         5.7310  -12.7180   20.0250 C.2   377  ATP377      0.4393
     27  N6         5.6000  -14.0280   19.5730 N.pl3 377  ATP377      0.2180
     28  N1         4.8330  -11.6810   19.6880 N.2   377  ATP377      0.0021
     29  C2         5.0520  -10.3970   20.1730 C.3   377  ATP377      0.5254
     30  N3         6.0810  -10.0170   21.0000 N.2   377  ATP377     -0.0055
     31  C4         6.9300  -11.0830   21.3380 C.2   377  ATP377      0.3518
@<TRIPOS>BOND
     1    27    26    1
     2    28    26    2
     3    28    29    1
     4    26    25    1
     5    29    30    1
     6    11     9    2
     7    25    31    1
     8    25    24    2
     9    30    31    2
    10    31    22    1
    11    24    23    1
    12    23    22    1
    13    22    21    1
    14     9    13    1
    15     9    10    1
    16     9    12    1
    17     4     1    2
    18    13    14    1
    19    16    21    1
    20    16    15    1
    21    21    19    1
    22    12     5    1
    23     3     1    1
    24     1     8    1
    25     1     2    1
    26    15    14    1
    27    15    17    1
    28     7     5    2
    29     5     8    1
    30     5     6    1
    31    19    17    1
    32    19    20    1
    33    17    18    1
