@<TRIPOS>MOLECULE
3tu7_0BM_H_1.pdb
 33 35 0 0 0
SMALL
GASTEIGER

@<TRIPOS>ATOM
      1  S10       25.1880    6.8250   23.5700 S.O2    1  0BM1        0.0596
      2  O11       25.4090    6.4220   24.9210 O.2     1  0BM1       -0.1561
      3  O12       24.8250    8.1800   23.2980 O.2     1  0BM1       -0.1561
      4  C13       23.9730    5.7800   22.8720 C.3     1  0BM1        0.1975
      5  N9        26.6110    6.5780   22.7990 N.3     1  0BM1       -0.0738
      6  C8        27.3440    5.3200   22.8690 C.3     1  0BM1        0.1776
      7  C15       26.9480    4.5060   21.6280 C.2     1  0BM1        0.2440
      8  O16       26.8810    5.0780   20.5540 O.2     1  0BM1       -0.2733
      9  C7        28.8430    5.6500   22.8740 C.3     1  0BM1        0.0550
     10  C6        29.7150    4.4230   22.9550 C.ar    1  0BM1       -0.0202
     11  C1        30.4780    4.0190   21.8630 C.ar    1  0BM1       -0.0042
     12  C5        29.7700    3.6620   24.1190 C.ar    1  0BM1       -0.0042
     13  C2        31.2690    2.8820   21.9310 C.ar    1  0BM1       -0.0003
     14  C4        30.5640    2.5250   24.1870 C.ar    1  0BM1       -0.0003
     15  C3        31.3130    2.1350   23.0950 C.ar    1  0BM1       -0.0000
     16  N17       26.6090    3.2040   21.7600 N.am    1  0BM1       -0.2718
     17  C21       26.2120    2.4040   20.5940 C.3     1  0BM1        0.1535
     18  C22       24.8490    2.8670   20.0890 C.2     1  0BM1        0.2595
     19  O23       24.0050    3.2950   20.8750 O.2     1  0BM1       -0.2716
     20  C20       26.1330    0.9690   21.1500 C.3     1  0BM1        0.0310
     21  C19       26.8060    1.0140   22.4990 C.3     1  0BM1        0.0237
     22  C18       26.5430    2.4040   22.9930 C.3     1  0BM1        0.0939
     23  N24       24.6430    2.8100   18.7790 N.am    1  0BM1       -0.2040
     24  C25       23.4130    3.3180   18.1880 C.3     1  0BM1        0.1154
     25  C26       23.4260    4.7010   17.5500 C.3     1  0BM1        0.0282
     26  C27       24.2250    4.7340   16.2500 C.3     1  0BM1        0.0424
     27  C28       24.0700    6.0750   15.5150 C.3     1  0BM1        0.1679
     28  N29       24.4140    7.2150   16.3830 N.pl3   1  0BM1       -0.1885
     29  C30       23.6990    7.2310   17.6770 C.3     1  0BM1        0.1679
     30  C31       23.8340    5.8930   18.4170 C.3     1  0BM1        0.0424
     31  C32       24.8860    8.4200   15.7470 C.cat   1  0BM1        0.4954
     32  N33       24.7240    9.6360   16.5220 N.pl3   1  0BM1        0.1298
     33  N34       25.4370    8.5360   14.5790 N.pl3   1  0BM1        0.1298
@<TRIPOS>BOND
     1    33    31    2
     2    27    26    1
     3    27    28    1
     4    31    28    1
     5    31    32    1
     6    26    25    1
     7    28    29    1
     8    25    24    1
     9    25    30    1
    10    29    30    1
    11    24    23    1
    12    23    18   am
    13    18    17    1
    14    18    19    2
    15     8     7    2
    16    17    20    1
    17    17    16    1
    18    20    21    1
    19     7    16   am
    20     7     6    1
    21    16    22    1
    22    11    13   ar
    23    11    10   ar
    24    13    15   ar
    25    21    22    1
    26     5     6    1
    27     5     1    1
    28     6     9    1
    29     4     1    1
    30     9    10    1
    31    10    12   ar
    32    15    14   ar
    33     3     1    2
    34     1     2    2
    35    12    14   ar
