@<TRIPOS>MOLECULE
3tu9_5MM_A_1.pdb
 21 20 0 0 0
SMALL
GASTEIGER

@<TRIPOS>ATOM
      1  C01        6.3660  -30.2430   52.5290 C.3   364  5MM364      0.1742
      2  O02        5.2890  -31.0550   52.1170 O.3   364  5MM364     -0.3483
      3  C03        4.0530  -30.4630   51.7420 C.3   364  5MM364      0.1782
      4  C04        2.8910  -31.2170   52.4480 C.3   364  5MM364      0.1858
      5  O05        1.6330  -30.7640   51.9920 O.3   364  5MM364     -0.2675
      6  P06        0.2750  -30.8770   52.9460 P.3   364  5MM364      0.5327
      7  O07       -0.7800  -30.0030   52.4210 O.2   364  5MM364     -0.2224
      8  O08       -0.2130  -32.4540   52.9560 O.3   364  5MM364     -0.1145
      9  O09        0.6270  -30.3860   54.4690 O.3   364  5MM364     -0.1145
     10  C10        3.9180  -30.4860   50.1860 C.3   364  5MM364      0.2141
     11  O11        2.6620  -29.9740   49.8010 O.3   364  5MM364     -0.2176
     12  C12        5.0550  -29.6570   49.5090 C.3   364  5MM364      0.2173
     13  O13        4.9980  -28.3080   49.8760 O.3   364  5MM364     -0.2175
     14  C14        5.0030  -29.7330   47.9570 C.3   364  5MM364      0.2147
     15  O15        3.9120  -30.5090   47.5400 O.3   364  5MM364     -0.2176
     16  C16        6.3190  -30.3960   47.4820 C.3   364  5MM364      0.1892
     17  O17        6.6480  -31.4420   48.3680 O.3   364  5MM364     -0.2674
     18  P18        7.4230  -32.7670   47.7420 P.3   364  5MM364      0.5327
     19  O19        7.6580  -33.7800   48.7760 O.3   364  5MM364     -0.1145
     20  O20        8.8700  -32.2370   47.1650 O.3   364  5MM364     -0.1145
     21  O21        6.5110  -33.3820   46.5000 O.2   364  5MM364     -0.2224
@<TRIPOS>BOND
     1    21    18    2
     2    20    18    1
     3    16    14    1
     4    16    17    1
     5    15    14    1
     6    18    17    1
     7    18    19    1
     8    14    12    1
     9    12    13    1
    10    12    10    1
    11    11    10    1
    12    10     3    1
    13     3     2    1
    14     3     4    1
    15     5     4    1
    16     5     6    1
    17     2     1    1
    18     7     6    2
    19     6     8    1
    20     6     9    1
