@<TRIPOS>MOLECULE
3tuc_FPW_A_1.pdb
 38 42 0 0 0
SMALL
GASTEIGER

@<TRIPOS>ATOM
      1  C1        22.5550   -6.3540   -7.8340 C.ar  999  FPW999      0.1645
      2  C2        23.9080   -6.4870   -7.5310 C.ar  999  FPW999      0.1377
      3  N3        24.8380   -6.1300   -8.4140 N.ar  999  FPW999     -0.2241
      4  C4        24.5250   -5.5960   -9.6000 C.ar  999  FPW999      0.1550
      5  C5        23.1700   -5.4480   -9.9680 C.ar  999  FPW999      0.0394
      6  C6        22.1670   -5.8320   -9.0750 C.ar  999  FPW999      0.0420
      7  C7        19.7440   -6.2590   -5.5260 C.ar  999  FPW999      0.0554
      8  C8        19.0480   -5.3450   -4.6960 C.ar  999  FPW999      0.0875
      9  N9        19.5060   -4.0870   -4.5560 N.ar  999  FPW999     -0.2435
     10  C10       20.5620   -3.6550   -5.2150 C.ar  999  FPW999      0.1020
     11  C11       21.3190   -4.5020   -6.0160 C.ar  999  FPW999      0.0581
     12  C12       20.9360   -5.8360   -6.1710 C.ar  999  FPW999      0.1484
     13  C13       18.1150   -7.9870   -5.0710 C.ar  999  FPW999      0.1726
     14  C14       17.4030   -7.0690   -4.2650 C.ar  999  FPW999      0.1739
     15  C15       17.8620   -5.7770   -4.0730 C.ar  999  FPW999      0.0592
     16  C16       19.2860   -7.5900   -5.6620 C.ar  999  FPW999      0.0446
     17  O17       21.6210   -6.7500   -6.9330 O.3   999  FPW999     -0.4518
     18  O18       17.6600   -9.2830   -5.1900 O.3   999  FPW999     -0.4684
     19  O19       16.2590   -7.5100   -3.6540 O.3   999  FPW999     -0.4683
     20  C20       18.2140  -10.2420   -6.1210 C.3   999  FPW999      0.2526
     21  C21       15.5480   -6.6630   -2.7590 C.3   999  FPW999      0.2526
     22  N22       25.5800   -5.2300  -10.4530 N.am  999  FPW999     -0.1565
     23  N23       29.0290   -4.4600  -12.6880 N.ar  999  FPW999     -0.2898
     24  C24       27.9180   -4.7620  -11.9610 C.ar  999  FPW999      0.2656
     25  C25       30.2980   -5.1760  -12.4760 C.3   999  FPW999      0.1358
     26  C26       29.0030   -3.4690  -13.6460 C.ar  999  FPW999      0.0786
     27  C27       26.7170   -3.9910  -12.1940 C.ar  999  FPW999      0.1115
     28  O28       27.9290   -5.6820  -11.1300 O.2   999  FPW999     -0.2668
     29  C29       31.1590   -4.5070  -11.4000 C.ar  999  FPW999      0.0005
     30  C30       27.8860   -2.7140  -13.9050 C.ar  999  FPW999      0.0190
     31  C31       26.7150   -2.9600  -13.1620 C.ar  999  FPW999      0.0109
     32  C32       25.5090   -4.2570  -11.4070 C.2   999  FPW999      0.2749
     33  C33       30.6090   -3.8470  -10.2980 C.ar  999  FPW999     -0.0024
     34  C34       32.5460   -4.6320  -11.4800 C.ar  999  FPW999     -0.0024
     35  O35       24.4920   -3.5710  -11.6000 O.2   999  FPW999     -0.2678
     36  C36       31.4240   -3.2950   -9.3130 C.ar  999  FPW999     -0.0003
     37  C37       33.3690   -4.0770  -10.5040 C.ar  999  FPW999     -0.0003
     38  C38       32.8030   -3.4270   -9.4040 C.ar  999  FPW999     -0.0000
@<TRIPOS>BOND
     1    30    26   ar
     2    30    31   ar
     3    26    23   ar
     4    31    27   ar
     5    23    25    1
     6    23    24   ar
     7    25    29    1
     8    27    24   ar
     9    27    32    1
    10    24    28    2
    11    35    32    2
    12    34    29   ar
    13    34    37   ar
    14    32    22   am
    15    29    33   ar
    16    37    38   ar
    17    22     4    1
    18    33    36   ar
    19     5     4   ar
    20     5     6   ar
    21     4     3   ar
    22    38    36   ar
    23     6     1   ar
    24     3     2   ar
    25     1     2   ar
    26     1    17    1
    27    17    12    1
    28    12    11   ar
    29    12     7   ar
    30    20    18    1
    31    11    10   ar
    32    16     7   ar
    33    16    13   ar
    34     7     8   ar
    35    10     9   ar
    36    18    13    1
    37    13    14   ar
    38     8     9   ar
    39     8    15   ar
    40    14    15   ar
    41    14    19    1
    42    19    21    1
