@<TRIPOS>MOLECULE
3tud_FPX_A_1.pdb
 39 43 0 0 0
SMALL
GASTEIGER

@<TRIPOS>ATOM
      1  C1       -25.6620   -5.8090    5.3800 C.3     1  FPX1        0.0310
      2  C2       -25.6620   -5.1560    6.7380 C.ar    1  FPX1       -0.0216
      3  C3       -26.8730   -5.0770    7.4740 C.ar    1  FPX1       -0.0029
      4  C4       -26.9020   -4.4230    8.7160 C.ar    1  FPX1        0.0163
      5  C5       -25.7270   -3.9040    9.2890 C.ar    1  FPX1        0.0737
      6  N6       -25.8760   -3.2920   10.5700 N.am    1  FPX1       -0.1754
      7  C7       -25.1390   -2.2780   11.1250 C.2     1  FPX1        0.2690
      8  O8       -24.1870   -1.7710   10.5760 O.2     1  FPX1       -0.2680
      9  C9       -25.4900   -1.7280   12.4310 C.ar    1  FPX1        0.0553
     10  C10      -26.5760   -2.2150   13.2230 C.ar    1  FPX1        0.0046
     11  C11      -26.8460   -1.5930   14.4430 C.ar    1  FPX1        0.0001
     12  C12      -26.0260   -0.5060   14.8870 C.ar    1  FPX1        0.0039
     13  C13      -24.9670   -0.0400   14.0970 C.ar    1  FPX1        0.0716
     14  C14      -24.7050   -0.6490   12.8820 C.ar    1  FPX1        0.0084
     15  C15      -24.1370    1.1270   14.5150 C.3     1  FPX1        0.4186
     16  F16      -23.5470    0.9870   15.7640 F       1  FPX1       -0.1659
     17  F17      -23.2230    1.5070   13.5520 F       1  FPX1       -0.1659
     18  F18      -24.9960    2.1930   14.5380 F       1  FPX1       -0.1659
     19  C19      -24.5210   -3.9770    8.5650 C.ar    1  FPX1        0.0164
     20  C20      -24.4680   -4.5880    7.3000 C.ar    1  FPX1        0.0019
     21  C21      -23.1520   -4.6810    6.5650 C.ar    1  FPX1        0.0562
     22  C22      -22.5970   -3.6260    5.8690 C.ar    1  FPX1        0.0104
     23  C23      -21.3020   -3.8580    5.2130 C.ar    1  FPX1        0.0676
     24  C24      -20.6080   -2.8470    4.4990 C.2     1  FPX1        0.1158
     25  N25      -19.4260   -3.1490    3.9240 N.2     1  FPX1       -0.1682
     26  C26      -18.8910   -4.3870    4.0140 C.1     1  FPX1        0.1711
     27  N27      -17.6630   -4.6310    3.4150 N.pl3   1  FPX1       -0.1357
     28  C28      -16.9040   -5.8230    3.4010 C.ar    1  FPX1        0.0826
     29  C29      -17.0900   -6.8930    4.3560 C.ar    1  FPX1        0.0173
     30  C30      -16.2220   -8.0160    4.2940 C.ar    1  FPX1        0.0014
     31  C31      -15.1780   -8.0920    3.2960 C.ar    1  FPX1        0.0001
     32  C32      -15.0100   -7.0490    2.4190 C.ar    1  FPX1        0.0014
     33  C33      -15.9020   -5.9180    2.4270 C.ar    1  FPX1        0.0173
     34  N34      -19.5280   -5.3420    4.6530 N.2     1  FPX1       -0.3179
     35  C35      -20.6860   -5.1480    5.2600 C.ar    1  FPX1        0.2117
     36  N36      -21.2740   -6.1990    5.9400 N.ar    1  FPX1       -0.2681
     37  C37      -20.6150   -7.5580    5.9970 C.3     1  FPX1        0.1361
     38  C38      -22.4630   -6.0020    6.5880 C.ar    1  FPX1        0.2627
     39  O39      -22.9590   -6.9350    7.1910 O.2     1  FPX1       -0.2669
@<TRIPOS>BOND
     1    32    33   ar
     2    32    31   ar
     3    33    28   ar
     4    31    30   ar
     5    28    27    1
     6    28    29   ar
     7    27    26    1
     8    25    26    2
     9    25    24    1
    10    26    34    2
    11    30    29   ar
    12    24    23    2
    13    34    35    2
    14    23    35   ar
    15    23    22   ar
    16    35    36   ar
    17     1     2    1
    18    22    21   ar
    19    36    37    1
    20    36    38   ar
    21    21    38   ar
    22    21    20    1
    23    38    39    2
    24     2    20   ar
    25     2     3   ar
    26    20    19   ar
    27     3     4   ar
    28    19     5   ar
    29     4     5   ar
    30     5     6    1
    31     6     7   am
    32     8     7    2
    33     7     9    1
    34     9    14   ar
    35     9    10   ar
    36    14    13   ar
    37    10    11   ar
    38    17    15    1
    39    13    15    1
    40    13    12   ar
    41    11    12   ar
    42    15    18    1
    43    15    16    1
