@<TRIPOS>MOLECULE
3tuh_TUH_A_1.pdb
 27 30 0 0 0
SMALL
GASTEIGER

@<TRIPOS>ATOM
      1  C4        20.1170   -5.7930    8.0810 C.ar    1  TUH1        0.1248
      2  C5        19.1350   -5.2330    7.2580 C.ar    1  TUH1        0.2061
      3  C6        18.7740   -3.8780    7.3660 C.ar    1  TUH1        0.0839
      4  C7        20.5930   -7.1910    7.9580 C.2     1  TUH1        0.3732
      5  C13       23.1200   -5.7210    6.6400 C.ar    1  TUH1        0.0430
      6  C15       24.1570   -4.7810    6.5510 C.ar    1  TUH1        0.0207
      7  C17       24.9210   -5.6130    8.7100 C.ar    1  TUH1        0.0207
      8  C20       26.7270   -4.2980    9.0240 C.ar    1  TUH1        0.0760
      9  C21       26.6870   -2.9070    6.9570 C.3     1  TUH1        0.1305
     10  C22       21.0420   -2.7530   10.2000 C.3     1  TUH1        0.0255
     11  C24       22.5020   -3.1210   10.5620 C.3     1  TUH1        0.0048
     12  C1        19.3730   -3.0220    8.3110 C.ar    1  TUH1        0.1949
     13  C2        20.3570   -3.5900    9.1270 C.ar    1  TUH1        0.0169
     14  C3        20.7090   -4.9290    9.0090 C.ar    1  TUH1        0.0096
     15  N8        21.9060   -7.4870    7.7530 N.am    1  TUH1       -0.0683
     16  C9        21.9280   -8.8320    7.6440 C.1     1  TUH1        0.3527
     17  N10       20.6790   -9.3360    7.7300 N.2     1  TUH1        0.0795
     18  N11       19.8400   -8.3110    7.9120 N.2     1  TUH1        0.0954
     19  C12       22.9610   -6.6160    7.7130 C.ar    1  TUH1        0.1557
     20  C14       23.8800   -6.5490    8.7740 C.ar    1  TUH1        0.0430
     21  C16       25.0750   -4.7370    7.6240 C.ar    1  TUH1        0.0602
     22  C18       25.9770   -5.3290    9.5800 C.ar    1  TUH1        0.0202
     23  N19       26.1680   -3.9540    7.8390 N.ar    1  TUH1       -0.3240
     24  C23       20.1420   -2.8270   11.4550 C.3     1  TUH1        0.0048
     25  O25       19.0150   -1.7410    8.3790 O.3     1  TUH1       -0.2868
     26  O26       18.5490   -6.0320    6.3570 O.3     1  TUH1       -0.2862
     27  O27       23.0610   -9.4950    7.4750 O.2     1  TUH1       -0.1767
@<TRIPOS>BOND
     1    26     2    1
     2     6     5   ar
     3     6    21   ar
     4     5    19   ar
     5     9    23    1
     6     2     3   ar
     7     2     1   ar
     8     3    12   ar
     9    27    16    2
    10    21    23   ar
    11    21     7   ar
    12    16    17    2
    13    16    15   am
    14    19    15    1
    15    19    20   ar
    16    17    18    1
    17    15     4    1
    18    23     8   ar
    19    18     4    2
    20     4     1    1
    21     1    14   ar
    22    12    25    1
    23    12    13   ar
    24     7    20   ar
    25     7    22   ar
    26    14    13   ar
    27     8    22   ar
    28    13    10    1
    29    10    11    1
    30    10    24    1
