@<TRIPOS>MOLECULE
3tui_ADP_C_1.pdb
 27 29 0 0 0
SMALL
GASTEIGER

@<TRIPOS>ATOM
      1  PB        -5.8610    8.2360   38.8280 P.3   2500  ADP2500     0.5373
      2  O1B       -6.8940    8.1200   39.9180 O.3   2500  ADP2500    -0.1143
      3  O2B       -5.0030    7.0080   38.6790 O.3   2500  ADP2500    -0.1143
      4  O3B       -6.3870    8.7440   37.5160 O.2   2500  ADP2500    -0.2221
      5  PA        -3.3080    9.1910   39.7010 P.3   2500  ADP2500     0.2231
      6  O1A       -2.7930   10.4270   40.4030 O.3   2500  ADP2500    -0.4370
      7  O2A       -3.1030    7.8380   40.3620 O.2   2500  ADP2500    -0.5169
      8  O3A       -4.8810    9.4090   39.3560 O.3   2500  ADP2500    -0.2261
      9  O5'       -2.6580    9.1250   38.2160 O.3   2500  ADP2500    -0.3111
     10  C5'       -1.4060    9.7140   37.8360 C.3   2500  ADP2500     0.1813
     11  C4'       -0.4930    8.7060   37.1140 C.3   2500  ADP2500     0.1821
     12  O4'        0.8730    9.1190   37.2330 O.3   2500  ADP2500    -0.3135
     13  C3'       -0.5830    7.2900   37.6790 C.3   2500  ADP2500     0.2184
     14  O3'       -1.2280    6.4120   36.7520 O.3   2500  ADP2500    -0.2174
     15  C2'        0.8460    6.8410   37.9190 C.3   2500  ADP2500     0.2570
     16  O2'        1.2880    5.9460   36.8940 O.3   2500  ADP2500    -0.2130
     17  C1'        1.6610    8.1180   37.8890 C.3   2500  ADP2500     0.3186
     18  N9         1.9080    8.5380   39.2910 N.pl3 2500  ADP2500    -0.1439
     19  C8         0.9820    9.0860   40.1080 C.3   2500  ADP2500     0.3377
     20  N7         1.5060    9.3670   41.3280 N.2   2500  ADP2500    -0.2095
     21  C5         2.8060    8.9920   41.3080 C.2   2500  ADP2500     0.2526
     22  C6         3.9400    9.0100   42.2750 C.2   2500  ADP2500     0.4393
     23  N6         3.7940    9.4940   43.5410 N.pl3 2500  ADP2500     0.2180
     24  N1         5.1250    8.5170   41.8310 N.2   2500  ADP2500     0.0021
     25  C2         5.2910    8.0320   40.5790 C.3   2500  ADP2500     0.5254
     26  N3         4.3130    7.9840   39.6530 N.2   2500  ADP2500    -0.0055
     27  C4         3.0680    8.4430   39.9550 C.2   2500  ADP2500     0.3518
@<TRIPOS>BOND
     1    14    13    1
     2    16    15    1
     3    11    12    1
     4    11    13    1
     5    11    10    1
     6    12    17    1
     7     4     1    2
     8    13    15    1
     9    10     9    1
    10    17    15    1
    11    17    18    1
    12     9     5    1
    13     3     1    1
    14     1     8    1
    15     1     2    1
    16    18    27    1
    17    18    19    1
    18     8     5    1
    19    26    27    2
    20    26    25    1
    21     5     7    2
    22     5     6    1
    23    27    21    1
    24    19    20    1
    25    25    24    1
    26    21    20    2
    27    21    22    1
    28    24    22    2
    29    22    23    1
