@<TRIPOS>MOLECULE
3tum_NAD_A_1.pdb
 44 48 0 0 0
SMALL
GASTEIGER

@<TRIPOS>ATOM
      1  PA         7.7760   40.3800  -66.8380 P.3   272  NAD272      0.2189
      2  O1A        6.6190   40.7980  -67.3890 O.2   272  NAD272     -0.5170
      3  O2A        8.2670   41.2390  -65.8430 O.3   272  NAD272     -0.4371
      4  O5B        8.7770   40.3450  -67.8980 O.3   272  NAD272     -0.3112
      5  C5B        8.6250   39.6710  -69.0460 C.3   272  NAD272      0.1813
      6  C4B        9.3000   40.3090  -70.2090 C.3   272  NAD272      0.1821
      7  O4B        9.0660   39.5340  -71.3290 O.3   272  NAD272     -0.3135
      8  C3B        8.7250   41.6790  -70.5080 C.3   272  NAD272      0.2184
      9  O3B        9.7250   42.6090  -70.4990 O.3   272  NAD272     -0.2174
     10  C2B        8.1850   41.4460  -71.8980 C.3   272  NAD272      0.2570
     11  O2B        8.2700   42.5600  -72.6510 O.3   272  NAD272     -0.2130
     12  C1B        9.1070   40.3030  -72.3740 C.3   272  NAD272      0.3186
     13  N9A        8.7100   39.6380  -73.6450 N.pl3 272  NAD272     -0.1439
     14  C8A        7.4930   39.3980  -74.0040 C.3   272  NAD272      0.3377
     15  N7A        7.4610   38.8420  -75.1500 N.2   272  NAD272     -0.2095
     16  C5A        8.6700   38.6530  -75.5340 C.2   272  NAD272      0.2526
     17  C6A        9.2480   38.1080  -76.6510 C.2   272  NAD272      0.4393
     18  N6A        8.5500   37.5960  -77.6250 N.pl3 272  NAD272      0.2180
     19  N1A       10.5340   38.1050  -76.7640 N.2   272  NAD272      0.0021
     20  C2A       11.2640   38.5850  -75.8480 C.3   272  NAD272      0.5254
     21  N3A       10.7530   39.1100  -74.7880 N.2   272  NAD272     -0.0055
     22  C4A        9.4620   39.1770  -74.5870 C.2   272  NAD272      0.3518
     23  O3         7.6170   39.0220  -66.1510 O.3   272  NAD272     -0.2703
     24  PN         8.5510   38.2360  -65.3180 P.3   272  NAD272      0.2189
     25  O1N        8.2330   38.3520  -64.0530 O.3   272  NAD272     -0.4371
     26  O2N        9.8570   38.4070  -65.6560 O.2   272  NAD272     -0.5170
     27  O5D        8.2990   36.8600  -65.5430 O.3   272  NAD272     -0.3112
     28  C5D        8.3550   36.2410  -66.7910 C.3   272  NAD272      0.1813
     29  C4D        8.1060   34.7460  -66.8510 C.3   272  NAD272      0.1799
     30  O4D        8.9550   34.0900  -65.9340 O.3   272  NAD272     -0.3327
     31  C3D        6.6920   34.2940  -66.5000 C.3   272  NAD272      0.2158
     32  O3D        6.2750   33.1950  -67.2580 O.3   272  NAD272     -0.2175
     33  C2D        6.9210   33.8550  -65.0700 C.3   272  NAD272      0.2309
     34  O2D        5.9070   33.0310  -64.7030 O.3   272  NAD272     -0.2158
     35  C1D        8.2240   33.1440  -65.1940 C.3   272  NAD272      0.2263
     36  N1N        8.9970   32.8840  -63.9620 N.pl3 272  NAD272     -0.2787
     37  C2N        9.5760   31.6470  -63.6740 C.3   272  NAD272      0.1244
     38  C3N       10.3240   31.4470  -62.5020 C.2   272  NAD272      0.0544
     39  C7N       10.9900   30.1460  -62.1230 C.2   272  NAD272      0.2818
     40  O7N       11.5350   30.0390  -61.0530 O.2   272  NAD272     -0.2670
     41  N7N       10.9620   29.1930  -62.9980 N.am  272  NAD272     -0.0839
     42  C4N       10.5200   32.4890  -61.6330 C.2   272  NAD272      0.0033
     43  C5N        9.9480   33.6910  -61.9160 C.2   272  NAD272      0.0157
     44  C6N        9.1980   33.8800  -63.0690 C.2   272  NAD272      0.0633
@<TRIPOS>BOND
     1    18    17    1
     2    19    17    2
     3    19    20    1
     4    17    16    1
     5    20    21    1
     6    16    15    2
     7    16    22    1
     8    15    14    1
     9    21    22    2
    10    22    13    1
    11    14    13    1
    12    13    12    1
    13    11    10    1
    14    12    10    1
    15    12     7    1
    16    10     8    1
    17     7     6    1
    18     8     9    1
    19     8     6    1
    20     6     5    1
    21     5     4    1
    22     4     1    1
    23     2     1    2
    24    32    31    1
    25    29    28    1
    26    29    31    1
    27    29    30    1
    28     1    23    1
    29     1     3    1
    30    28    27    1
    31    31    33    1
    32    23    24    1
    33    30    35    1
    34    26    24    2
    35    27    24    1
    36    24    25    1
    37    35    33    1
    38    35    36    1
    39    33    34    1
    40    36    37    1
    41    36    44    1
    42    37    38    1
    43    44    43    2
    44    41    39   am
    45    38    39    1
    46    38    42    2
    47    39    40    2
    48    43    42    1
