@<TRIPOS>MOLECULE
3tun_C13_B_1.pdb
 23 24 0 0 0
SMALL
GASTEIGER

@<TRIPOS>ATOM
      1  OAA      -45.6710  -13.5930  -12.8160 O.2   805  C13805     -0.2488
      2 CLB       -37.1330  -14.9210   -7.0040 Cl    805  C13805     -0.0822
      3 CLC       -42.0290  -17.1580   -7.0600 Cl    805  C13805     -0.0822
      4  CAD      -44.8460  -17.6740  -15.9450 C.ar  805  C13805      0.0001
      5  CAE      -43.5250  -17.4980  -15.5850 C.ar  805  C13805      0.0013
      6  CAF      -45.7900  -16.7540  -15.5540 C.ar  805  C13805      0.0013
      7  CAG      -43.1440  -16.4030  -14.8270 C.ar  805  C13805      0.0166
      8  CAH      -45.4260  -15.6560  -14.7900 C.ar  805  C13805      0.0166
      9  CAI      -39.6570  -15.8940   -7.1660 C.ar  805  C13805      0.0228
     10  CAJ      -39.4470  -13.4940   -7.0490 C.ar  805  C13805      0.0086
     11  CAK      -41.6230  -14.5030   -7.0310 C.ar  805  C13805      0.0086
     12  CAL      -43.3760  -11.2930  -10.0180 C.3   805  C13805      0.0423
     13  CAM      -42.8490  -12.0950   -8.8410 C.3   805  C13805      0.0909
     14  CAN      -44.3740  -12.0220  -10.9010 C.3   805  C13805      0.1183
     15  CAO      -41.4930  -12.0160   -6.7890 C.3   805  C13805      0.1150
     16  NAP      -41.9250  -11.3180   -8.0090 N.3   805  C13805     -0.2132
     17  NAQ      -43.7400  -12.7870  -11.9690 N.am  805  C13805     -0.1869
     18  NAR      -43.6700  -14.4790  -13.4990 N.am  805  C13805     -0.1610
     19  CAS      -44.4420  -13.6070  -12.7750 C.2   805  C13805      0.3435
     20  CAT      -38.8810  -14.7550   -7.1130 C.ar  805  C13805      0.0582
     21  CAU      -41.0270  -15.7420   -7.1100 C.ar  805  C13805      0.0582
     22  CAV      -40.8350  -13.3620   -6.9910 C.ar  805  C13805     -0.0031
     23  CAW      -44.0980  -15.4810  -14.4090 C.ar  805  C13805      0.0750
@<TRIPOS>BOND
     1     4     5   ar
     2     4     6   ar
     3     5     7   ar
     4     6     8   ar
     5     7    23   ar
     6     8    23   ar
     7    23    18    1
     8    18    19   am
     9     1    19    2
    10    19    17   am
    11    17    14    1
    12    14    12    1
    13    12    13    1
    14    13    16    1
    15    16    15    1
    16     9    20   ar
    17     9    21   ar
    18    20    10   ar
    19    20     2    1
    20    21     3    1
    21    21    11   ar
    22    10    22   ar
    23    11    22   ar
    24    22    15    1
