@<TRIPOS>MOLECULE
3tur_6CL_A_1.pdb
 13 12 0 0 0
SMALL
GASTEIGER

@<TRIPOS>ATOM
      1  N         -9.8980  -11.1060   23.4150 N.3   506  6CL506     -0.1208
      2  CA        -8.7640  -10.2580   22.9390 C.3   506  6CL506      0.1943
      3  CB        -7.4300  -10.3810   23.6210 C.3   506  6CL506      0.0307
      4  CG        -7.3110  -11.3110   24.8140 C.3   506  6CL506      0.0041
      5  CD        -7.1600  -10.6340   26.0830 C.3   506  6CL506      0.0307
      6  CE        -5.9050  -11.0160   26.8390 C.3   506  6CL506      0.1943
      7  CZ        -5.7360  -10.3830   28.2040 C.2   506  6CL506      0.3819
      8  OH1       -6.6500   -9.6920   28.6860 O.co2 506  6CL506     -0.2441
      9  OH2       -4.6710  -10.5770   28.7800 O.co2 506  6CL506     -0.2441
     10  NZ        -4.6630  -10.6580   26.2600 N.3   506  6CL506     -0.1208
     11  C         -8.8020  -10.8380   21.5030 C.2   506  6CL506      0.3819
     12  O         -9.3960  -10.3000   20.5640 O.co2 506  6CL506     -0.2441
     13  OXT       -8.3210  -11.8660   21.2100 O.co2 506  6CL506     -0.2441
@<TRIPOS>BOND
     1    12    11   ar
     2    13    11   ar
     3    11     2    1
     4     2     1    1
     5     2     3    1
     6     3     4    1
     7     4     5    1
     8     5     6    1
     9    10     6    1
    10     6     7    1
    11     7     8   ar
    12     7     9   ar
