@<TRIPOS>MOLECULE
3tus_3HB_A_1.pdb
 10 10 0 0 0
SMALL
GASTEIGER

@<TRIPOS>ATOM
      1  C1'       11.0680   14.1400   12.6120 C.2   688  3HB688      0.3879
      2  O1'       10.0640   14.2470   13.1420 O.co2 688  3HB688     -0.2406
      3  O2'       11.0800   14.5610   11.4260 O.co2 688  3HB688     -0.2406
      4  C1        12.4130   13.9710   13.1950 C.ar  688  3HB688      0.0829
      5  C2        12.7040   14.4770   14.4840 C.ar  688  3HB688      0.0486
      6  C3        13.9870   14.2420   15.0560 C.ar  688  3HB688      0.1960
      7  C4        14.9530   13.5140   14.3510 C.ar  688  3HB688      0.0420
      8  C5        14.5840   13.0190   13.0770 C.ar  688  3HB688      0.0035
      9  C6        13.3680   13.1930   12.5470 C.ar  688  3HB688      0.0068
     10  O3        14.2090   14.6300   16.3510 O.3   688  3HB688     -0.2866
@<TRIPOS>BOND
     1     3     1   ar
     2     9     8   ar
     3     9     4   ar
     4     1     2   ar
     5     1     4    1
     6     8     7   ar
     7     4     5   ar
     8     7     6   ar
     9     5     6   ar
    10     6    10    1
