@<TRIPOS>MOLECULE
3tut_ATP_A_1.pdb
 31 33 0 0 0
SMALL
GASTEIGER

@<TRIPOS>ATOM
      1  PG        12.7410  -15.6270  -14.6880 P.3   401  ATP401      0.5373
      2  O1G       13.1210  -15.6090  -16.1580 O.2   401  ATP401     -0.2221
      3  O2G       11.3980  -16.2880  -14.4040 O.3   401  ATP401     -0.1143
      4  O3G       13.8690  -16.0740  -13.7930 O.3   401  ATP401     -0.1143
      5  PB        11.2420  -13.2500  -14.2440 P.3   401  ATP401      0.2277
      6  O1B       10.5400  -13.4080  -12.9120 O.3   401  ATP401     -0.4368
      7  O2B       10.5470  -13.4350  -15.5680 O.2   401  ATP401     -0.5168
      8  O3B       12.6120  -14.0960  -14.2270 O.3   401  ATP401     -0.2258
      9  PA        12.2920  -10.8220  -15.3580 P.3   401  ATP401      0.2189
     10  O1A       11.0720   -9.9690  -15.6210 O.3   401  ATP401     -0.4371
     11  O2A       12.9060  -11.6500  -16.4960 O.2   401  ATP401     -0.5170
     12  O3A       11.9700  -11.8410  -14.1330 O.3   401  ATP401     -0.2700
     13  O5'       13.3580   -9.8660  -14.6250 O.3   401  ATP401     -0.3112
     14  C5'       14.2340  -10.4010  -13.6450 C.3   401  ATP401      0.1813
     15  C4'       15.2070   -9.3080  -13.2200 C.3   401  ATP401      0.1821
     16  O4'       16.0220   -8.8760  -14.3280 O.3   401  ATP401     -0.3135
     17  C3'       14.4920   -8.0550  -12.6900 C.3   401  ATP401      0.2184
     18  O3'       15.2470   -7.6250  -11.5500 O.3   401  ATP401     -0.2174
     19  C2'       14.6500   -7.0600  -13.8340 C.3   401  ATP401      0.2570
     20  O2'       14.5980   -5.6860  -13.3950 O.3   401  ATP401     -0.2130
     21  C1'       16.0050   -7.4610  -14.4140 C.3   401  ATP401      0.3186
     22  N9        16.0180   -7.0450  -15.8180 N.pl3 401  ATP401     -0.1439
     23  C8        15.2550   -7.5550  -16.8150 C.3   401  ATP401      0.3377
     24  N7        15.5110   -6.8980  -17.9670 N.2   401  ATP401     -0.2095
     25  C5        16.4350   -5.9420  -17.7040 C.2   401  ATP401      0.2526
     26  C6        17.1210   -4.8830  -18.4720 C.2   401  ATP401      0.4393
     27  N6        16.8680   -4.7230  -19.7990 N.pl3 401  ATP401      0.2180
     28  N1        18.0030   -4.1020  -17.8020 N.2   401  ATP401      0.0021
     29  C2        18.2460   -4.2580  -16.4780 C.3   401  ATP401      0.5254
     30  N3        17.6710   -5.2080  -15.7280 N.2   401  ATP401     -0.0055
     31  C4        16.7560   -6.0400  -16.2770 C.2   401  ATP401      0.3518
@<TRIPOS>BOND
     1    27    26    1
     2    26    28    2
     3    26    25    1
     4    24    25    2
     5    24    23    1
     6    28    29    1
     7    25    31    1
     8    23    22    1
     9    11     9    2
    10    29    30    1
    11    31    22    1
    12    31    30    2
    13     2     1    2
    14    22    21    1
    15    10     9    1
    16     7     5    2
    17     9    13    1
    18     9    12    1
    19     1     3    1
    20     1     8    1
    21     1     4    1
    22    13    14    1
    23    21    16    1
    24    21    19    1
    25    16    15    1
    26     5     8    1
    27     5    12    1
    28     5     6    1
    29    19    20    1
    30    19    17    1
    31    14    15    1
    32    15    17    1
    33    17    18    1
