@<TRIPOS>MOLECULE
3tuv_ATP_A_1.pdb
 31 33 0 0 0
SMALL
GASTEIGER

@<TRIPOS>ATOM
      1  PG       -28.9680   16.8430   19.8220 P.3   1020  ATP1020     0.5373
      2  O1G      -30.2890   16.9890   20.5390 O.3   1020  ATP1020    -0.1143
      3  O2G      -28.2540   15.5400   20.0920 O.3   1020  ATP1020    -0.1143
      4  O3G      -28.9900   17.2330   18.3630 O.2   1020  ATP1020    -0.2221
      5  PB       -28.2210   19.5330   20.2490 P.3   1020  ATP1020     0.2277
      6  O1B      -29.6220   19.7860   19.7390 O.3   1020  ATP1020    -0.4368
      7  O2B      -27.0330   19.9800   19.4320 O.2   1020  ATP1020    -0.5168
      8  O3B      -28.0360   17.9560   20.5210 O.3   1020  ATP1020    -0.2258
      9  PA       -26.8070   20.9060   22.2910 P.3   1020  ATP1020     0.2189
     10  O1A      -27.1020   21.4190   23.6790 O.3   1020  ATP1020    -0.4371
     11  O2A      -25.6230   19.9940   22.0670 O.2   1020  ATP1020    -0.5170
     12  O3A      -28.1260   20.1670   21.7300 O.3   1020  ATP1020    -0.2700
     13  O5'      -26.6800   22.1820   21.3170 O.3   1020  ATP1020    -0.3112
     14  C5'      -25.4820   22.9530   21.2600 C.3   1020  ATP1020     0.1813
     15  C4'      -25.5850   23.9380   20.1020 C.3   1020  ATP1020     0.1821
     16  O4'      -25.9360   25.2330   20.5990 O.3   1020  ATP1020    -0.3135
     17  C3'      -24.2630   24.0710   19.3660 C.3   1020  ATP1020     0.2184
     18  O3'      -24.3750   23.5100   18.0540 O.3   1020  ATP1020    -0.2174
     19  C2'      -23.9560   25.5580   19.3200 C.3   1020  ATP1020     0.2570
     20  O2'      -24.1150   26.0800   17.9970 O.3   1020  ATP1020    -0.2130
     21  C1'      -24.9580   26.2170   20.2550 C.3   1020  ATP1020     0.3186
     22  N9       -24.2700   26.6960   21.4840 N.pl3 1020  ATP1020    -0.1439
     23  C8       -23.9020   25.9360   22.5370 C.3   1020  ATP1020     0.3377
     24  N7       -23.2950   26.6780   23.4970 N.2   1020  ATP1020    -0.2095
     25  C5       -23.2680   27.9500   23.0590 C.2   1020  ATP1020     0.2526
     26  C6       -22.7700   29.2490   23.5790 C.2   1020  ATP1020     0.4393
     27  N6       -22.1660   29.3290   24.7890 N.pl3 1020  ATP1020     0.2180
     28  N1       -22.9390   30.3480   22.8030 N.2   1020  ATP1020     0.0021
     29  C2       -23.5380   30.2830   21.5950 C.3   1020  ATP1020     0.5254
     30  N3       -24.0130   29.1380   21.0630 N.2   1020  ATP1020    -0.0055
     31  C4       -23.9110   27.9590   21.7320 C.2   1020  ATP1020     0.3518
@<TRIPOS>BOND
     1    20    19    1
     2    18    17    1
     3     4     1    2
     4    19    17    1
     5    19    21    1
     6    17    15    1
     7     7     5    2
     8     6     5    1
     9     1     3    1
    10     1     8    1
    11     1     2    1
    12    15    16    1
    13    15    14    1
    14     5     8    1
    15     5    12    1
    16    21    16    1
    17    21    22    1
    18    30    29    1
    19    30    31    2
    20    14    13    1
    21    13     9    1
    22    22    31    1
    23    22    23    1
    24    29    28    1
    25    12     9    1
    26    31    25    1
    27    11     9    2
    28     9    10    1
    29    23    24    1
    30    28    26    2
    31    25    24    2
    32    25    26    1
    33    26    27    1
