@<TRIPOS>MOLECULE
3tuv_III_B_1.pdb
 15 14 0 0 0
SMALL
GASTEIGER

@<TRIPOS>ATOM
      1  N        -20.2510   43.0910   31.1970 N.3     1  UNK1       -0.1231
      2  CA       -21.1050   41.8670   31.2120 C.3     1  UNK1        0.1694
      3  C        -21.8120   41.6940   32.5570 C.2     1  UNK1        0.2592
      4  O        -21.1830   41.7860   33.6150 O.2     1  UNK1       -0.2718
      5  CB       -20.2740   40.6330   30.8790 C.3     1  UNK1        0.0304
      6  N        -23.1190   41.4440   32.5010 N.am    2  UNK2       -0.1966
      7  CA       -23.9370   41.2510   33.7010 C.3     2  UNK2        0.1728
      8  C        -23.7410   39.8620   34.3170 C.2     2  UNK2        0.2616
      9  O        -23.2970   38.9310   33.6380 O.2     2  UNK2       -0.2715
     10  CB       -25.4100   41.5020   33.3880 C.3     2  UNK2        0.0334
     11  N        -24.0870   39.7450   35.6010 N.am    3  UNK3       -0.1977
     12  CA       -23.8960   38.5240   36.4110 C.3     3  UNK3        0.1597
     13  C        -22.4250   38.1830   36.6340 C.2     3  UNK3        0.2287
     14  O        -21.9250   38.2720   37.7570 O.2     3  UNK3       -0.2864
     15  CB       -24.6510   37.3280   35.8230 C.3     3  UNK3        0.0319
@<TRIPOS>BOND
     1     5     2    1
     2     1     2    1
     3     2     3    1
     4     6     3   am
     5     6     7    1
     6     3     4    2
     7    10     7    1
     8     9     8    2
     9     7     8    1
    10     8    11   am
    11    11    12    1
    12    15    12    1
    13    12    13    1
    14    13    14    2
