@<TRIPOS>MOLECULE
3tuw_HEM_A_1.pdb
 43 50 0 0 0
SMALL
GASTEIGER

@<TRIPOS>ATOM
      1  CHA        8.8910   -0.0030   29.1120 C.2   605  HEM605      0.0000
      2  CHB        9.0710    4.8420   28.7220 C.2   605  HEM605      0.0000
      3  CHC       11.1200    4.4340   24.3350 C.2   605  HEM605      0.0000
      4  CHD       11.0210   -0.4050   24.7040 C.2   605  HEM605      0.0000
      5  C1A        8.7790    1.3350   29.3940 C.2   605  HEM605      0.0000
      6  C2A        8.2350    1.9180   30.6250 C.2   605  HEM605      0.0000
      7  C3A        8.2950    3.2330   30.5180 C.2   605  HEM605      0.0000
      8  C4A        8.8600    3.5700   29.2250 C.2   605  HEM605      0.0000
      9  CMA        7.8360    4.2510   31.5840 C.3   605  HEM605      0.0000
     10  CAA        7.7180    1.1210   31.8320 C.3   605  HEM605      0.0000
     11  CBA        8.8730    0.7490   32.7530 C.3   605  HEM605      0.0000
     12  CGA        8.4540   -0.3570   33.6890 C.2   605  HEM605      0.0000
     13  O1A        8.6340   -1.5490   33.3300 O.co2 605  HEM605      0.0000
     14  O2A        7.9540   -0.0440   34.7980 O.co2 605  HEM605      0.0000
     15  C1B        9.6320    5.1530   27.5010 C.ar  605  HEM605      0.0000
     16  C2B        9.8050    6.4840   26.9690 C.ar  605  HEM605      0.0000
     17  C3B       10.3670    6.3680   25.7660 C.ar  605  HEM605      0.0000
     18  C4B       10.5770    4.9650   25.4820 C.ar  605  HEM605      0.0000
     19  CMB        9.4110    7.8030   27.6580 C.3   605  HEM605      0.0000
     20  CAB       10.7440    7.5430   24.8130 C.2   605  HEM605      0.0000
     21  CBB       10.5000    8.8090   25.1950 C.2   605  HEM605      0.0000
     22  C1C       11.2850    3.0970   24.0520 C.2   605  HEM605      0.0000
     23  C2C       11.8450    2.5340   22.8500 C.2   605  HEM605      0.0000
     24  C3C       11.8170    1.2020   22.9440 C.2   605  HEM605      0.0000
     25  C4C       11.2230    0.8700   24.2260 C.2   605  HEM605      0.0000
     26  CMC       12.4010    3.3340   21.6390 C.3   605  HEM605      0.0000
     27  CAC       12.3140    0.2030   21.8880 C.2   605  HEM605      0.0000
     28  CBC       12.8490    0.6540   20.7390 C.2   605  HEM605      0.0000
     29  C1D       10.3320   -0.7500   25.8590 C.ar  605  HEM605      0.0000
     30  C2D        9.8190   -2.0710   26.1590 C.ar  605  HEM605      0.0000
     31  C3D        9.1480   -1.9420   27.5280 C.ar  605  HEM605      0.0000
     32  C4D        9.3360   -0.5680   27.9220 C.ar  605  HEM605      0.0000
     33  CMD        9.9170   -3.3210   25.2710 C.3   605  HEM605      0.0000
     34  CAD        8.4450   -3.0680   28.3070 C.3   605  HEM605      0.0000
     35  CBD        7.0120   -3.2190   27.8090 C.3   605  HEM605      0.0000
     36  CGD        6.2940   -4.2810   28.5980 C.2   605  HEM605      0.0000
     37  O1D        6.0210   -4.0510   29.8040 O.co2 605  HEM605      0.0000
     38  O2D        5.9870   -5.3520   28.0190 O.co2 605  HEM605      0.0000
     39  NA         9.1430    2.3800   28.5640 N.2   605  HEM605      0.0000
     40  NB        10.1130    4.2510   26.5730 N.ar  605  HEM605      0.0000
     41  NC        10.9120    2.0460   24.8730 N.2   605  HEM605      0.0000
     42  ND        10.0270    0.1080   26.9280 N.ar  605  HEM605      0.0000
     43 FE         10.0540    2.1800   26.7380 Fe    605  HEM605      0.0000
@<TRIPOS>BOND
     1    28    27    2
     2    26    23    1
     3    27    24    1
     4    23    24    2
     5    23    22    1
     6    24    25    1
     7    22     3    2
     8    22    41    1
     9    25     4    1
    10    25    41    2
    11     3    18    1
    12     4    29    2
    13    20    21    2
    14    20    17    1
    15    41    43    1
    16    33    30    1
    17    18    17   ar
    18    18    40   ar
    19    17    16   ar
    20    29    30   ar
    21    29    42   ar
    22    30    31   ar
    23    40    43    1
    24    40    15   ar
    25    43    42    1
    26    43    39    1
    27    42    32   ar
    28    16    15   ar
    29    16    19    1
    30    15     2    1
    31    31    32   ar
    32    31    34    1
    33    35    34    1
    34    35    36    1
    35    32     1    2
    36    38    36   ar
    37    39     8    1
    38    39     5    2
    39    36    37   ar
    40     2     8    2
    41     1     5    1
    42     8     7    1
    43     5     6    1
    44     7     6    2
    45     7     9    1
    46     6    10    1
    47    10    11    1
    48    11    12    1
    49    13    12   ar
    50    12    14   ar
