@<TRIPOS>MOLECULE
3tux_ATP_A_1.pdb
 31 33 0 0 0
SMALL
GASTEIGER

@<TRIPOS>ATOM
      1  PG        10.8780  -15.5460  -15.8230 P.3   501  ATP501      0.5373
      2  O1G        9.9600  -14.3720  -15.5940 O.3   501  ATP501     -0.1143
      3  O2G       11.4580  -16.1440  -14.5530 O.3   501  ATP501     -0.1143
      4  O3G       10.2910  -16.5700  -16.7710 O.2   501  ATP501     -0.2221
      5  PB        12.7750  -13.4870  -16.5760 P.3   501  ATP501      0.2277
      6  O1B       11.8690  -12.5400  -17.3190 O.2   501  ATP501     -0.5168
      7  O2B       14.1720  -13.5830  -17.1500 O.3   501  ATP501     -0.4368
      8  O3B       12.1650  -14.9820  -16.6270 O.3   501  ATP501     -0.2258
      9  PA        12.0900  -12.1180  -14.0500 P.3   501  ATP501      0.2189
     10  O1A       11.2890  -12.8860  -13.0320 O.3   501  ATP501     -0.4371
     11  O2A       11.4730  -11.0440  -14.9040 O.2   501  ATP501     -0.5170
     12  O3A       12.8970  -13.1950  -14.9700 O.3   501  ATP501     -0.2700
     13  O5'       13.3020  -11.3010  -13.3450 O.3   501  ATP501     -0.3112
     14  C5'       13.8960  -10.2540  -14.1090 C.3   501  ATP501      0.1813
     15  C4'       14.9570   -9.4930  -13.3120 C.3   501  ATP501      0.1821
     16  O4'       15.9230   -9.0210  -14.2710 O.3   501  ATP501     -0.3135
     17  C3'       14.3400   -8.2300  -12.6980 C.3   501  ATP501      0.2184
     18  O3'       15.1520   -7.7800  -11.5980 O.3   501  ATP501     -0.2174
     19  C2'       14.5540   -7.2140  -13.8020 C.3   501  ATP501      0.2570
     20  O2'       14.5700   -5.8670  -13.3280 O.3   501  ATP501     -0.2130
     21  C1'       15.9130   -7.5970  -14.3560 C.3   501  ATP501      0.3186
     22  N9        15.9790   -7.1060  -15.7530 N.pl3 501  ATP501     -0.1439
     23  C8        15.2290   -7.5820  -16.7620 C.3   501  ATP501      0.3377
     24  N7        15.4850   -6.9180  -17.9120 N.2   501  ATP501     -0.2095
     25  C5        16.4140   -5.9910  -17.6380 C.2   501  ATP501      0.2526
     26  C6        17.1210   -4.9550  -18.4190 C.2   501  ATP501      0.4393
     27  N6        16.8630   -4.8050  -19.7460 N.pl3 501  ATP501      0.2180
     28  N1        18.0130   -4.1840  -17.7690 N.2   501  ATP501      0.0021
     29  C2        18.2630   -4.3430  -16.4550 C.3   501  ATP501      0.5254
     30  N3        17.6610   -5.2640  -15.6840 N.2   501  ATP501     -0.0055
     31  C4        16.7370   -6.1090  -16.2110 C.2   501  ATP501      0.3518
@<TRIPOS>BOND
     1    27    26    1
     2    26    28    2
     3    26    25    1
     4    24    25    2
     5    24    23    1
     6    28    29    1
     7    25    31    1
     8     6     5    2
     9     7     5    1
    10     4     1    2
    11    23    22    1
    12     8     5    1
    13     8     1    1
    14     5    12    1
    15    29    30    1
    16    31    22    1
    17    31    30    2
    18     1     2    1
    19     1     3    1
    20    22    21    1
    21    12     9    1
    22    11     9    2
    23    21    16    1
    24    21    19    1
    25    16    15    1
    26    14    13    1
    27    14    15    1
    28     9    13    1
    29     9    10    1
    30    19    20    1
    31    19    17    1
    32    15    17    1
    33    17    18    1
