@<TRIPOS>MOLECULE
3tuz_ADP_C_1.pdb
 27 29 0 0 0
SMALL
GASTEIGER

@<TRIPOS>ATOM
      1  PB        -6.0560    7.8420   38.8960 P.3   2000  ADP2000     0.5373
      2  O1B       -6.9040    7.6690   40.1570 O.3   2000  ADP2000    -0.1143
      3  O2B       -5.1750    6.6510   38.5510 O.3   2000  ADP2000    -0.1143
      4  O3B       -6.7670    8.4510   37.6920 O.2   2000  ADP2000    -0.2221
      5  PA        -3.3940    8.7320   39.3590 P.3   2000  ADP2000     0.2231
      6  O1A       -2.7880    9.9050   40.1110 O.3   2000  ADP2000    -0.4370
      7  O2A       -3.1470    7.3190   39.8660 O.2   2000  ADP2000    -0.5169
      8  O3A       -4.9870    9.0080   39.2510 O.3   2000  ADP2000    -0.2261
      9  O5'       -2.9180    8.8780   37.8100 O.3   2000  ADP2000    -0.3111
     10  C5'       -1.7860    9.6970   37.4880 C.3   2000  ADP2000     0.1813
     11  C4'       -0.6840    8.8620   36.8540 C.3   2000  ADP2000     0.1821
     12  O4'        0.5710    9.2620   37.4050 O.3   2000  ADP2000    -0.3135
     13  C3'       -0.8610    7.3910   37.1890 C.3   2000  ADP2000     0.2184
     14  O3'       -1.3960    6.7000   36.0520 O.3   2000  ADP2000    -0.2174
     15  C2'        0.5310    6.8910   37.5060 C.3   2000  ADP2000     0.2570
     16  O2'        1.0980    6.3400   36.3160 O.3   2000  ADP2000    -0.2130
     17  C1'        1.2940    8.1380   37.9300 C.3   2000  ADP2000     0.3186
     18  N9         1.4400    8.2970   39.4080 N.pl3 2000  ADP2000    -0.1439
     19  C8         0.4750    8.7190   40.2470 C.3   2000  ADP2000     0.3377
     20  N7         0.9170    8.7700   41.5330 N.2   2000  ADP2000    -0.2095
     21  C5         2.2110    8.3710   41.5560 C.2   2000  ADP2000     0.2526
     22  C6         3.2880    8.2030   42.5970 C.2   2000  ADP2000     0.4393
     23  N6         3.0980    8.4530   43.9260 N.pl3 2000  ADP2000     0.2180
     24  N1         4.4970    7.7730   42.1610 N.2   2000  ADP2000     0.0021
     25  C2         4.7210    7.5160   40.8520 C.3   2000  ADP2000     0.5254
     26  N3         3.8060    7.6380   39.8640 N.2   2000  ADP2000    -0.0055
     27  C4         2.5410    8.0490   40.1430 C.2   2000  ADP2000     0.3518
@<TRIPOS>BOND
     1    14    13    1
     2    16    15    1
     3    11    13    1
     4    11    12    1
     5    11    10    1
     6    13    15    1
     7    12    17    1
     8    10     9    1
     9    15    17    1
    10     4     1    2
    11     9     5    1
    12    17    18    1
    13     3     1    1
    14     1     8    1
    15     1     2    1
    16     8     5    1
    17     5     7    2
    18     5     6    1
    19    18    27    1
    20    18    19    1
    21    26    27    2
    22    26    25    1
    23    27    21    1
    24    19    20    1
    25    25    24    1
    26    20    21    2
    27    21    22    1
    28    24    22    2
    29    22    23    1
