@<TRIPOS>MOLECULE
3tv1_AMP_A_1.pdb
 23 25 0 0 0
SMALL
GASTEIGER

@<TRIPOS>ATOM
      1  P        -22.0680   -1.3290   -6.8340 P.3   401  AMP401      0.5327
      2  O1P      -23.3900   -0.8900   -6.8700 O.3   401  AMP401     -0.1145
      3  O2P      -21.6130   -2.4300   -7.6690 O.2   401  AMP401     -0.2224
      4  O3P      -21.5270   -1.5250   -5.5140 O.3   401  AMP401     -0.1145
      5  O5'      -21.2400   -0.0660   -7.3610 O.3   401  AMP401     -0.2675
      6  C5'      -19.8970   -0.1630   -7.7820 C.3   401  AMP401      0.1860
      7  C4'      -19.2230    1.1980   -7.7560 C.3   401  AMP401      0.1823
      8  O4'      -19.8860    2.0710   -8.6470 O.3   401  AMP401     -0.3135
      9  C3'      -19.2340    1.8890   -6.3990 C.3   401  AMP401      0.2184
     10  O3'      -18.0990    2.7050   -6.2780 O.3   401  AMP401     -0.2174
     11  C2'      -20.4540    2.7800   -6.4810 C.3   401  AMP401      0.2570
     12  O2'      -20.4530    3.9140   -5.6450 O.3   401  AMP401     -0.2130
     13  C1'      -20.4580    3.1470   -7.9640 C.3   401  AMP401      0.3186
     14  N9       -21.8080    3.5510   -8.4190 N.pl3 401  AMP401     -0.1439
     15  C8       -22.8420    2.7460   -8.6470 C.3   401  AMP401      0.3377
     16  N7       -23.8980    3.4220   -9.0360 N.2   401  AMP401     -0.2095
     17  C5       -23.5730    4.6930   -9.0640 C.2   401  AMP401      0.2526
     18  C6       -24.2710    5.9510   -9.3860 C.2   401  AMP401      0.4393
     19  N6       -25.5680    5.9410   -9.7340 N.pl3 401  AMP401      0.2180
     20  N1       -23.5560    7.0840   -9.2820 N.2   401  AMP401      0.0021
     21  C2       -22.2870    7.0940   -8.9110 C.3   401  AMP401      0.5254
     22  N3       -21.6120    6.0000   -8.6220 N.2   401  AMP401     -0.0055
     23  C4       -22.1830    4.7840   -8.6610 C.2   401  AMP401      0.3518
@<TRIPOS>BOND
     1    19    18    1
     2    18    20    2
     3    18    17    1
     4    20    21    1
     5    17    16    2
     6    17    23    1
     7    16    15    1
     8    21    22    1
     9    23    22    2
    10    23    14    1
    11     8    13    1
    12     8     7    1
    13    15    14    1
    14    14    13    1
    15    13    11    1
    16     6     7    1
    17     6     5    1
    18     7     9    1
    19     3     1    2
    20     5     1    1
    21     2     1    1
    22     1     4    1
    23    11     9    1
    24    11    12    1
    25     9    10    1
