@<TRIPOS>MOLECULE
3tv3_MAN_L_1.pdb
 11 11 0 0 0
SMALL
GASTEIGER

@<TRIPOS>ATOM
      1  C1       -21.8400   -7.7080   42.9540 C.3   308  MAN308      0.1777
      2  C2       -22.1210   -8.7870   41.9120 C.3   308  MAN308      0.2141
      3  C3       -20.8430   -9.1570   41.1570 C.3   308  MAN308      0.2173
      4  C4       -20.2060   -7.8990   40.5800 C.3   308  MAN308      0.2142
      5  C5       -19.9750   -6.9160   41.7310 C.3   308  MAN308      0.1810
      6  C6       -19.3130   -5.6160   41.2860 C.3   308  MAN308      0.2141
      7  O2       -23.1110   -8.3740   40.9880 O.3   308  MAN308     -0.2176
      8  O3       -21.1330  -10.0640   40.1090 O.3   308  MAN308     -0.2175
      9  O4       -18.9790   -8.2220   39.9630 O.3   308  MAN308     -0.2176
     10  O5       -21.2100   -6.5970   42.3360 O.3   308  MAN308     -0.3481
     11  O6       -20.1200   -4.9170   40.3620 O.3   308  MAN308     -0.2176
@<TRIPOS>BOND
     1     9     4    1
     2     8     3    1
     3    11     6    1
     4     4     3    1
     5     4     5    1
     6     7     2    1
     7     3     2    1
     8     6     5    1
     9     5    10    1
    10     2     1    1
    11    10     1    1
