@<TRIPOS>MOLECULE
3tv4_TV4_A_1.pdb
 26 27 0 0 0
SMALL
GASTEIGER

@<TRIPOS>ATOM
      1  N1        18.3810  -25.6150   -0.6190 N.ar    1  TV41       -0.2241
      2  C2        18.0520  -24.3380   -0.3160 C.ar    1  TV41        0.1760
      3  C3        16.7420  -23.8490   -0.4090 C.ar    1  TV41        0.0706
      4  C4        15.7270  -24.7220   -0.8380 C.ar    1  TV41        0.0278
      5  C5        16.0450  -26.0510   -1.1690 C.ar    1  TV41        0.0934
      6  C6        17.3870  -26.4370   -1.0370 C.ar    1  TV41        0.1170
      7  N7        19.1310  -23.5380    0.1050 N.pl3   1  TV41       -0.1067
      8 BR8        16.3760  -22.0330    0.0410 Br      1  TV41       -0.0459
      9  N9        15.0820  -27.0230   -1.5870 N.am    1  TV41       -0.1737
     10  C10       13.9650  -26.9080   -2.3940 C.2     1  TV41        0.2735
     11  O11       13.6270  -25.8740   -2.9440 O.2     1  TV41       -0.2679
     12  C12       13.1360  -28.1180   -2.6430 C.ar    1  TV41        0.1115
     13  C13       12.6050  -28.9260   -1.6360 C.ar    1  TV41        0.1468
     14  C14       11.8250  -30.0420   -1.9570 C.ar    1  TV41        0.0313
     15  C15       11.5540  -30.3650   -3.2860 C.ar    1  TV41        0.0226
     16  C16       12.0710  -29.5560   -4.2940 C.ar    1  TV41        0.1183
     17  C17       12.8460  -28.4490   -3.9580 C.ar    1  TV41        0.1633
     18  F18       13.3470  -27.6760   -4.9220 F       1  TV41       -0.2025
     19  F19       12.8430  -28.6370   -0.3510 F       1  TV41       -0.2039
     20  N20       11.8710  -29.7900   -5.6570 N.pl3   1  TV41       -0.0984
     21  S21       10.9680  -31.1190   -6.1760 S.O2    1  TV41        0.0732
     22  O22       10.9440  -31.0460   -7.6260 O.2     1  TV41       -0.1529
     23  O23        9.7840  -31.1940   -5.3580 O.2     1  TV41       -0.1529
     24  C24       12.0310  -32.4750   -5.6610 C.3     1  TV41        0.1744
     25  C25       13.0570  -32.9150   -6.7030 C.3     1  TV41        0.0274
     26  C26       14.3300  -32.0820   -6.7210 C.3     1  TV41        0.0019
@<TRIPOS>BOND
     1    22    21    2
     2    26    25    1
     3    25    24    1
     4    21    24    1
     5    21    20    1
     6    21    23    2
     7    20    16    1
     8    18    17    1
     9    16    17   ar
    10    16    15   ar
    11    17    12   ar
    12    15    14   ar
    13    11    10    2
    14    12    10    1
    15    12    13   ar
    16    10     9   am
    17    14    13   ar
    18    13    19    1
    19     9     5    1
    20     5     6   ar
    21     5     4   ar
    22     6     1   ar
    23     4     3   ar
    24     1     2   ar
    25     3     2   ar
    26     3     8    1
    27     2     7    1
