@<TRIPOS>MOLECULE
3tv5_RCP_A_1.pdb
 36 41 0 0 0
SMALL
GASTEIGER

@<TRIPOS>ATOM
      1  C29        6.1790   34.1550   17.0120 C.3     1  RCP1        0.1255
      2  C30        6.8150   34.4570   15.6470 C.3     1  RCP1        0.1636
      3  O28        5.8470   34.5870   14.6040 O.3     1  RCP1       -0.3501
      4  C28        4.6310   35.2090   15.0310 C.3     1  RCP1        0.1636
      5  C27        3.8690   34.3850   16.0780 C.3     1  RCP1        0.1255
      6  N26        4.8290   33.5910   16.8530 N.am    1  RCP1       -0.2744
      7  C26        4.4710   32.4240   17.4090 C.2     1  RCP1        0.2267
      8  O26        3.3430   31.9460   17.3180 O.2     1  RCP1       -0.2748
      9  C25        5.5360   31.7150   18.1940 C.3     1  RCP1        0.0927
     10  C24        4.9590   31.4550   19.5830 C.3     1  RCP1        0.0812
     11  C23        6.0500   30.4980   17.4470 C.3     1  RCP1        0.0119
     12  C22        6.9410   29.6680   18.3500 C.3     1  RCP1        0.0179
     13  C21        6.2330   29.1550   19.6040 C.3     1  RCP1        0.0721
     14  N20        5.4090   30.2090   20.2000 N.3     1  RCP1       -0.2734
     15  C20        4.8540   29.9730   21.5380 C.3     1  RCP1        0.0609
     16  C19        5.8120   29.1780   22.4200 C.3     1  RCP1        0.0375
     17  C18        5.1070   28.8400   23.7390 C.3     1  RCP1        0.0951
     18  C17        4.5830   31.2960   22.2450 C.3     1  RCP1        0.0375
     19  C16        3.9240   31.0140   23.5940 C.3     1  RCP1        0.0951
     20  N15        4.8070   30.1250   24.3680 N.am    1  RCP1       -0.2760
     21  C15        5.2880   30.4440   25.5900 C.2     1  RCP1        0.2490
     22  O15        5.9970   29.6740   26.2390 O.2     1  RCP1       -0.2699
     23  C14        4.9550   31.7790   26.2340 C.ar    1  RCP1        0.0536
     24  C1         5.8710   32.8330   26.1970 C.ar    1  RCP1        0.0044
     25  C2         7.0600   32.6850   25.4850 C.ar    1  RCP1        0.0001
     26  C3         7.9420   33.7590   25.3910 C.ar    1  RCP1        0.0000
     27  C4         7.6490   34.9790   26.0120 C.ar    1  RCP1        0.0000
     28  C5         6.4540   35.1470   26.7140 C.ar    1  RCP1        0.0000
     29  C6         5.5730   34.0660   26.8290 C.ar    1  RCP1        0.0001
     30  C7         4.3740   34.2490   27.5090 C.ar    1  RCP1        0.0000
     31  C8         3.4940   33.1790   27.6060 C.ar    1  RCP1        0.0001
     32  C13        3.7530   31.9620   26.9290 C.ar    1  RCP1        0.0044
     33  C12        2.8380   30.9060   27.0150 C.ar    1  RCP1        0.0001
     34  C11        1.6860   31.0460   27.7830 C.ar    1  RCP1        0.0000
     35  C10        1.4270   32.2480   28.4540 C.ar    1  RCP1        0.0000
     36  C9         2.3270   33.3220   28.3690 C.ar    1  RCP1        0.0000
@<TRIPOS>BOND
     1     3     4    1
     2     3     2    1
     3     4     5    1
     4     2     1    1
     5     5     6    1
     6     6     1    1
     7     6     7   am
     8     8     7    2
     9     7     9    1
    10    11     9    1
    11    11    12    1
    12     9    10    1
    13    12    13    1
    14    10    14    1
    15    13    14    1
    16    14    15    1
    17    15    18    1
    18    15    16    1
    19    18    19    1
    20    16    17    1
    21    19    20    1
    22    17    20    1
    23    20    21   am
    24    26    25   ar
    25    26    27   ar
    26    25    24   ar
    27    21    23    1
    28    21    22    2
    29    27    28   ar
    30    24    23   ar
    31    24    29   ar
    32    23    32   ar
    33    28    29   ar
    34    29    30   ar
    35    32    33   ar
    36    32    31   ar
    37    33    34   ar
    38    30    31   ar
    39    31    36   ar
    40    34    35   ar
    41    36    35   ar
