@<TRIPOS>MOLECULE
3tv6_B0R_A_1.pdb
 29 31 0 0 0
SMALL
GASTEIGER

@<TRIPOS>ATOM
      1  C1        17.2570  -23.9250   -0.4770 C.2     1  B0R1        0.1200
      2  C2        18.5020  -24.5400   -0.2590 C.1     1  B0R1        0.0613
      3  N3        18.6510  -25.8760   -0.4060 N.2     1  B0R1       -0.1894
      4  C4        17.5690  -26.6080   -0.7740 C.2     1  B0R1        0.1262
      5  C5        16.2830  -26.0520   -1.0090 C.2     1  B0R1        0.0944
      6  C6        16.0990  -24.6500   -0.8590 C.2     1  B0R1        0.0330
      7  C7        17.4580  -22.5490   -0.2380 C.2     1  B0R1        0.2541
      8  N8        18.7620  -22.3740    0.1050 N.2     1  B0R1       -0.1007
      9  N9        19.4020  -23.5900    0.0930 N.2     1  B0R1       -0.0905
     10  N10       15.2570  -26.9820   -1.3860 N.am    1  B0R1       -0.1737
     11  C11       14.0850  -26.8630   -2.0360 C.2     1  B0R1        0.2735
     12  C12       13.3150  -28.1390   -2.2380 C.ar    1  B0R1        0.1115
     13  O13       13.6480  -25.8010   -2.4840 O.2     1  B0R1       -0.2679
     14  C14       13.0560  -28.5170   -3.5660 C.ar    1  B0R1        0.1633
     15  C15       12.3480  -29.6910   -3.8700 C.ar    1  B0R1        0.1183
     16  C16       11.8710  -30.5240   -2.8350 C.ar    1  B0R1        0.0226
     17  C17       12.1170  -30.1590   -1.4920 C.ar    1  B0R1        0.0313
     18  C18       12.8320  -28.9720   -1.1960 C.ar    1  B0R1        0.1468
     19  F19       13.0490  -28.6500    0.1010 F       1  B0R1       -0.2039
     20  F20       13.5010  -27.7370   -4.5660 F       1  B0R1       -0.2025
     21  N21       12.1570  -29.9740   -5.1500 N.pl3   1  B0R1       -0.0984
     22  S22       11.3580  -31.3210   -5.8090 S.O2    1  B0R1        0.0732
     23  C23       12.4350  -32.7270   -5.3310 C.3     1  B0R1        0.1744
     24  C24       13.5480  -33.0470   -6.3420 C.3     1  B0R1        0.0274
     25  C25       14.9050  -32.4730   -5.9190 C.3     1  B0R1        0.0019
     26  O26       10.0950  -31.4170   -5.0660 O.2     1  B0R1       -0.1529
     27  O27       11.4170  -31.1480   -7.2700 O.2     1  B0R1       -0.1529
     28  O28       16.6070  -21.4910   -0.2950 O.2     1  B0R1       -0.4547
     29  C29       16.7240  -20.4970    0.7200 C.3     1  B0R1        0.2543
@<TRIPOS>BOND
     1    27    22    2
     2    24    25    1
     3    24    23    1
     4    22    23    1
     5    22    21    1
     6    22    26    2
     7    21    15    1
     8    20    14    1
     9    15    14   ar
    10    15    16   ar
    11    14    12   ar
    12    16    17   ar
    13    13    11    2
    14    12    11    1
    15    12    18   ar
    16    11    10   am
    17    17    18   ar
    18    10     5    1
    19    18    19    1
    20     5     6    1
    21     5     4    2
    22     6     1    2
    23     4     3    1
    24     1     2    1
    25     1     7    1
    26     3     2    2
    27    28     7    1
    28    28    29    1
    29     2     9    2
    30     7     8    2
    31     9     8    1
