@<TRIPOS>MOLECULE
3tv7_07Q_A_1.pdb
 25 27 0 0 0
SMALL
GASTEIGER

@<TRIPOS>ATOM
      1  O01        1.0910  -46.9370   12.9000 O.2     1  07Q1       -0.2487
      2  C02        2.2820  -46.6240   12.8010 C.2     1  07Q1        0.3463
      3  N03        2.8900  -46.5020   11.4730 N.am    1  07Q1       -0.1841
      4  C04        2.9890  -45.2190   10.7360 C.3     1  07Q1        0.1193
      5  C05        3.7970  -44.1850   11.5090 C.3     1  07Q1        0.0284
      6  C06        1.6520  -44.6180   10.2890 C.ar    1  07Q1        0.0005
      7  C07        1.2570  -43.3310   10.6920 C.ar    1  07Q1       -0.0024
      8  C08        0.0310  -42.7870   10.2780 C.ar    1  07Q1        0.0028
      9  C09       -0.8170  -43.5370    9.4460 C.ar    1  07Q1        0.0369
     10  C10       -0.4410  -44.8230    9.0310 C.ar    1  07Q1        0.1385
     11  O11       -1.2680  -45.5880    8.2160 O.3     1  07Q1       -0.4714
     12  C12       -1.4460  -46.9390    8.5250 C.3     1  07Q1        0.2525
     13  C13        0.7970  -45.3660    9.4550 C.ar    1  07Q1        0.0343
     14  N14        3.1010  -46.3650   14.0090 N.am    1  07Q1       -0.1252
     15  C15        2.6190  -46.5280   15.3960 C.2     1  07Q1        0.2342
     16  N16        3.2850  -45.9580   16.5080 N.2     1  07Q1       -0.3824
     17  C17        2.6020  -46.2620   17.8140 C.2     1  07Q1        0.1226
     18  C18        3.0800  -45.7950   19.1800 C.ar    1  07Q1        0.0295
     19  C19        4.0880  -44.7950   19.3060 C.ar    1  07Q1        0.0229
     20  C20        4.5170  -44.3870   20.5820 C.ar    1  07Q1        0.0990
     21  N21        3.9790  -44.9420   21.6830 N.ar    1  07Q1       -0.2423
     22  C22        3.0070  -45.9080   21.6010 C.ar    1  07Q1        0.0990
     23  C23        2.5480  -46.3550   20.3540 C.ar    1  07Q1        0.0229
     24  C24        1.4510  -47.0750   17.5560 C.3     1  07Q1        0.1247
     25  S25        1.3000  -47.3560   15.9480 S.3     1  07Q1       -0.0576
@<TRIPOS>BOND
     1    11    12    1
     2    11    10    1
     3    10     9   ar
     4    10    13   ar
     5     9     8   ar
     6    13     6   ar
     7     8     7   ar
     8     6     7   ar
     9     6     4    1
    10     4     3    1
    11     4     5    1
    12     3     2   am
    13     2     1    2
    14     2    14   am
    15    14    15    1
    16    15    25    1
    17    15    16    2
    18    25    24    1
    19    16    17    2
    20    24    17    1
    21    17    18    1
    22    18    19   ar
    23    18    23   ar
    24    19    20   ar
    25    23    22   ar
    26    20    21   ar
    27    22    21   ar
