@<TRIPOS>MOLECULE
3tv8_DGJ_A_1.pdb
 11 11 0 0 0
SMALL
GASTEIGER

@<TRIPOS>ATOM
      1  C1       -17.8010   61.5930  105.6910 C.3   801  DGJ801      0.1243
      2  C2       -16.9140   60.5440  106.3290 C.3   801  DGJ801      0.2020
      3  O2       -15.8610   61.1910  107.0540 O.3   801  DGJ801     -0.2188
      4  C3       -16.3890   59.6060  105.2450 C.3   801  DGJ801      0.2151
      5  O3       -15.4800   58.6600  105.8140 O.3   801  DGJ801     -0.2176
      6  C4       -17.5530   58.8870  104.5690 C.3   801  DGJ801      0.2031
      7  O4       -18.2230   58.0580  105.5260 O.3   801  DGJ801     -0.2187
      8  C5       -18.5250   59.9010  103.9680 C.3   801  DGJ801      0.1386
      9  N5       -18.8440   60.9210  104.9440 N.3   801  DGJ801     -0.2113
     10  C6       -19.8150   59.2410  103.4970 C.3   801  DGJ801      0.2020
     11  O6       -20.6710   60.1880  102.8460 O.3   801  DGJ801     -0.2188
@<TRIPOS>BOND
     1    11    10    1
     2    10     8    1
     3     8     6    1
     4     8     9    1
     5     6     4    1
     6     6     7    1
     7     9     1    1
     8     4     5    1
     9     4     2    1
    10     1     2    1
    11     2     3    1
