@<TRIPOS>MOLECULE
3tv8_NAG_A_1.pdb
 14 14 0 0 0
SMALL
GASTEIGER

@<TRIPOS>ATOM
      1  C1       -32.0140   70.6540  111.5440 C.3   639  NAG639      0.1665
      2  C2       -31.1530   71.4590  112.5270 C.3   639  NAG639      0.1576
      3  C3       -31.9850   72.3690  113.4400 C.3   639  NAG639      0.2069
      4  C4       -33.0660   73.1450  112.6840 C.3   639  NAG639      0.2134
      5  C5       -33.8430   72.1850  111.7850 C.3   639  NAG639      0.1809
      6  C6       -34.9460   72.8870  110.9870 C.3   639  NAG639      0.2141
      7  C7       -29.0510   70.3300  113.1370 C.2   639  NAG639      0.2420
      8  C8       -28.3880   69.3830  114.0960 C.3   639  NAG639      0.0964
      9  N2       -30.3470   70.5700  113.3510 N.am  639  NAG639     -0.2019
     10  O3       -31.1320   73.2710  114.1110 O.3   639  NAG639     -0.2184
     11  O4       -33.9310   73.7860  113.6010 O.3   639  NAG639     -0.2176
     12  O5       -32.9300   71.5400  110.9110 O.3   639  NAG639     -0.3489
     13  O6       -34.3970   73.6860  109.9600 O.3   639  NAG639     -0.2176
     14  O7       -28.3970   70.8300  112.2200 O.2   639  NAG639     -0.2733
@<TRIPOS>BOND
     1    13     6    1
     2    12     1    1
     3    12     5    1
     4     6     5    1
     5     1     2    1
     6     5     4    1
     7    14     7    2
     8     2     9    1
     9     2     3    1
    10     4     3    1
    11     4    11    1
    12     7     9   am
    13     7     8    1
    14     3    10    1
