@<TRIPOS>MOLECULE
3tvc_E3P_A_1.pdb
 32 34 0 0 0
SMALL
GASTEIGER

@<TRIPOS>ATOM
      1  C1       -10.3980  -30.1510    1.6300 C.2     1  E3P1        0.3649
      2  N1       -12.6170  -29.1180   -0.3150 N.am    1  E3P1       -0.1977
      3  C2       -10.6610  -31.2060    0.5970 C.3     1  E3P1        0.1163
      4  O2       -11.4330  -28.5160   -2.1770 O.2     1  E3P1       -0.2733
      5  C3       -12.1340  -31.3940    0.4020 C.3     1  E3P1        0.0429
      6  N3       -14.8690  -30.0020   -1.5950 N.am    1  E3P1       -0.0863
      7  C4       -12.6630  -30.5120   -0.7160 C.3     1  E3P1        0.1749
      8  C5       -14.0710  -30.8830   -1.0560 C.2     1  E3P1        0.2806
      9  O5       -14.4880  -32.0180   -0.8360 O.2     1  E3P1       -0.2698
     10  C6       -11.9550  -28.1470   -1.1450 C.2     1  E3P1        0.2421
     11  O6        -9.2500  -29.6560    1.7680 O.co2   1  E3P1       -0.2457
     12  C7       -11.8760  -26.6930   -0.7210 C.3     1  E3P1        0.0915
     13  O7       -11.3300  -29.7540    2.3830 O.co2   1  E3P1       -0.2457
     14  C8       -10.5470  -26.5770   -0.0110 C.3     1  E3P1        0.0360
     15  C9       -10.4830  -25.2440    0.6920 C.ar    1  E3P1       -0.0217
     16  C10       -9.5620  -24.3290    0.2750 C.ar    1  E3P1       -0.0043
     17  C11       -9.4520  -22.9970    0.9440 C.ar    1  E3P1       -0.0003
     18  C12      -10.2920  -22.6970    1.9510 C.ar    1  E3P1       -0.0000
     19  C13      -11.2970  -23.6890    2.4190 C.ar    1  E3P1       -0.0003
     20  C14      -11.3980  -24.9210    1.8160 C.ar    1  E3P1       -0.0043
     21  C15       -9.9850  -18.8270    3.9210 C.ar    1  E3P1        0.0000
     22  C16      -10.8530  -19.8840    4.4860 C.ar    1  E3P1        0.0000
     23  C17      -10.9480  -21.1010    3.8580 C.ar    1  E3P1       -0.0000
     24  C19      -10.1750  -21.3460    2.6150 C.ar    1  E3P1       -0.0000
     25  C35       -9.3700  -20.3750    2.0920 C.ar    1  E3P1       -0.0000
     26  C36       -9.2570  -19.0440    2.7850 C.ar    1  E3P1        0.0000
     27  C37       -9.8910  -17.5350    4.6580 C.ar    1  E3P1        0.0000
     28  C38       -9.6200  -16.2550    3.9410 C.ar    1  E3P1        0.0000
     29  C39       -9.5220  -15.1040    4.6660 C.ar    1  E3P1        0.0000
     30  C40       -9.6690  -15.1420    6.1540 C.ar    1  E3P1        0.0000
     31  C41       -9.9010  -16.3170    6.8060 C.ar    1  E3P1        0.0000
     32  C42      -10.0150  -17.5770    6.0170 C.ar    1  E3P1        0.0000
@<TRIPOS>BOND
     1     4    10    2
     2     6     8   am
     3    10    12    1
     4    10     2   am
     5     8     9    2
     6     8     7    1
     7    12    14    1
     8     7     2    1
     9     7     5    1
    10    14    15    1
    11    16    15   ar
    12    16    17   ar
    13     5     3    1
    14     3     1    1
    15    15    20   ar
    16    17    18   ar
    17     1    11   ar
    18     1    13   ar
    19    20    19   ar
    20    18    19   ar
    21    18    24    1
    22    25    24   ar
    23    25    26   ar
    24    24    23   ar
    25    26    21   ar
    26    23    22   ar
    27    21    22   ar
    28    21    27    1
    29    28    27   ar
    30    28    29   ar
    31    27    32   ar
    32    29    30   ar
    33    32    31   ar
    34    30    31   ar
