@<TRIPOS>MOLECULE
3tvd_GSP_A_1.pdb
 32 34 0 0 0
SMALL
GASTEIGER

@<TRIPOS>ATOM
      1  PG         4.4650  -32.9760   23.0530 P.3   538  GSP538      0.4340
      2  O3B        3.7400  -32.5830   24.4620 O.3   538  GSP538     -0.2405
      3  S1G        6.0570  -32.3260   23.1700 S.3   538  GSP538      0.0416
      4  O2G        4.4890  -34.5320   22.8760 O.3   538  GSP538     -0.1305
      5  O3G        3.7870  -32.3300   21.8040 O.2   538  GSP538     -0.2423
      6  PB         2.2150  -32.0550   24.6040 P.3   538  GSP538      0.2262
      7  O1B        2.2070  -30.6450   25.0150 O.3   538  GSP538     -0.4369
      8  O2B        1.5080  -32.2030   23.3200 O.2   538  GSP538     -0.5168
      9  PA         1.3650  -34.5780   25.5520 P.3   538  GSP538      0.2189
     10  O1A        0.3300  -34.8050   24.5150 O.2   538  GSP538     -0.5170
     11  O2A        2.6100  -35.2980   25.1550 O.3   538  GSP538     -0.4371
     12  O3A        1.5980  -32.9900   25.7750 O.3   538  GSP538     -0.2701
     13  O5'        0.7280  -35.0170   26.9690 O.3   538  GSP538     -0.3112
     14  C5'        1.1230  -34.3930   28.1780 C.3   538  GSP538      0.1813
     15  C4'        0.5580  -35.1440   29.3960 C.3   538  GSP538      0.1799
     16  O4'       -0.7760  -34.7170   29.6410 O.3   538  GSP538     -0.3326
     17  C3'        0.5250  -36.6700   29.2270 C.3   538  GSP538      0.2158
     18  O3'        1.1360  -37.3070   30.3370 O.3   538  GSP538     -0.2175
     19  C2'       -0.9400  -37.0700   29.1680 C.3   538  GSP538      0.2310
     20  O2'       -1.2240  -38.1150   30.0850 O.3   538  GSP538     -0.2158
     21  C1'       -1.6970  -35.8050   29.5650 C.3   538  GSP538      0.2293
     22  N9        -2.7690  -35.5090   28.5840 N.pl3 538  GSP538     -0.2354
     23  C8        -2.6230  -35.2580   27.2400 C.3   538  GSP538      0.2246
     24  N7        -3.8480  -35.0350   26.7080 N.2   538  GSP538     -0.2322
     25  C5        -4.7820  -35.1430   27.6840 C.2   538  GSP538      0.2182
     26  C6        -6.1790  -35.0130   27.6830 C.1   538  GSP538      0.2372
     27  O6        -6.8240  -34.7460   26.6510 O.2   538  GSP538     -0.2069
     28  N1        -6.8450  -35.1880   28.8850 N.2   538  GSP538     -0.2485
     29  C2        -6.1460  -35.4860   30.0530 C.1   538  GSP538      0.2531
     30  N2        -6.7980  -35.6490   31.2080 N.pl3 538  GSP538     -0.0226
     31  N3        -4.7690  -35.6120   30.0370 N.2   538  GSP538     -0.3074
     32  C4        -4.1070  -35.4400   28.8710 C.2   538  GSP538      0.2300
@<TRIPOS>BOND
     1     5     1    2
     2     4     1    1
     3     1     3    1
     4     1     2    1
     5     8     6    2
     6     2     6    1
     7    10     9    2
     8     6     7    1
     9     6    12    1
    10    11     9    1
    11     9    12    1
    12     9    13    1
    13    27    26    2
    14    24    23    1
    15    24    25    2
    16    13    14    1
    17    23    22    1
    18    26    25    1
    19    26    28    2
    20    25    32    1
    21    14    15    1
    22    22    32    1
    23    22    21    1
    24    32    31    2
    25    28    29    2
    26    19    17    1
    27    19    21    1
    28    19    20    1
    29    17    15    1
    30    17    18    1
    31    15    16    1
    32    21    16    1
    33    31    29    2
    34    29    30    1
