@<TRIPOS>MOLECULE
3tvi_LYS_A_1.pdb
 10 9 0 0 0
SMALL
GASTEIGER

@<TRIPOS>ATOM
      1  N        -10.6480   41.6080  -17.4720 N.3   501  LYS501     -0.1208
      2  CA       -10.3590   40.1880  -17.8100 C.3   501  LYS501      0.1943
      3  C         -9.1090   40.0750  -18.6680 C.2   501  LYS501      0.3819
      4  O         -8.1810   40.8700  -18.5290 O.co2 501  LYS501     -0.2441
      5  CB       -11.5430   39.5720  -18.5440 C.3   501  LYS501      0.0307
      6  CG       -12.7530   39.3540  -17.6580 C.3   501  LYS501      0.0036
      7  CD       -13.9830   39.0400  -18.4810 C.3   501  LYS501      0.0206
      8  CE       -15.0080   38.3000  -17.6500 C.3   501  LYS501      0.1093
      9  NZ       -14.6030   36.8840  -17.4330 N.3   501  LYS501     -0.1314
     10  OXT       -8.9980   39.1870  -19.5150 O.co2 501  LYS501     -0.2441
@<TRIPOS>BOND
     1    10     3   ar
     2     3     4   ar
     3     3     2    1
     4     5     2    1
     5     5     6    1
     6     7     6    1
     7     7     8    1
     8     2     1    1
     9     8     9    1
