@<TRIPOS>MOLECULE
3tvk_C2E_A_1.pdb
 23 25 0 0 0
SMALL
GASTEIGER

@<TRIPOS>ATOM
      1  P1        18.4710   32.1390   44.6900 P.3   501  C2E501      0.3942
      2  O2P       18.4640   31.4710   45.9940 O.3   501  C2E501     -0.1425
      3  O1P       17.7240   31.5280   43.5580 O.3   501  C2E501     -0.1425
      4  O5'       18.0680   33.6320   44.8220 O.3   501  C2E501     -0.2926
      5  C5'       17.8180   34.4370   43.6830 C.3   501  C2E501      0.1830
      6  C4'       17.5880   35.8770   44.0720 C.3   501  C2E501      0.1800
      7  O4'       16.4080   35.9360   44.9300 O.3   501  C2E501     -0.3326
      8  C3'       18.7330   36.3680   44.9530 C.3   501  C2E501      0.2158
      9  O3'       19.7830   36.9270   44.1470 O.3   501  C2E501     -0.2175
     10  C2'       18.0710   37.4650   45.7570 C.3   501  C2E501      0.2310
     11  O2'       17.9060   38.6560   44.9770 O.3   501  C2E501     -0.2158
     12  C1'       16.6780   36.8780   46.0090 C.3   501  C2E501      0.2293
     13  N9        16.4220   36.1400   47.2760 N.pl3 501  C2E501     -0.2354
     14  C8        16.5650   34.8370   47.5120 C.3   501  C2E501      0.2246
     15  N7        16.1990   34.5770   48.7670 N.2   501  C2E501     -0.2322
     16  C5        15.7920   35.7180   49.3220 C.2   501  C2E501      0.2182
     17  C6        15.3020   36.0450   50.5770 C.1   501  C2E501      0.2372
     18  O6        15.1560   35.1900   51.4560 O.2   501  C2E501     -0.2069
     19  N1        14.9700   37.3800   50.8260 N.2   501  C2E501     -0.2485
     20  C2        15.1350   38.3460   49.8160 C.1   501  C2E501      0.2531
     21  N2        14.8250   39.6050   50.0660 N.pl3 501  C2E501     -0.0226
     22  N3        15.6180   37.9950   48.6160 N.2   501  C2E501     -0.3074
     23  C4        15.9280   36.7130   48.3640 C.2   501  C2E501      0.2300
@<TRIPOS>BOND
     1     3     1    1
     2     5     6    1
     3     5     4    1
     4     6     7    1
     5     6     8    1
     6     9     8    1
     7     1     4    1
     8     1     2    1
     9     7    12    1
    10     8    10    1
    11    11    10    1
    12    10    12    1
    13    12    13    1
    14    13    14    1
    15    13    23    1
    16    14    15    1
    17    23    22    2
    18    23    16    1
    19    22    20    2
    20    15    16    2
    21    16    17    1
    22    20    21    1
    23    20    19    2
    24    17    19    2
    25    17    18    2
