@<TRIPOS>MOLECULE
3tvl_3PO_A_1.pdb
 13 12 0 0 0
SMALL
GASTEIGER

@<TRIPOS>ATOM
      1  PG        16.5160    4.1180   19.6050 P.3   231  3PO231      0.5373
      2  O1G       15.5300    5.2310   19.3400 O.3   231  3PO231     -0.1143
      3  O2G       17.0850    4.1150   21.0070 O.3   231  3PO231     -0.1143
      4  O3G       17.5160    3.9730   18.4940 O.2   231  3PO231     -0.2221
      5  PB        16.0490    1.2920   20.1200 P.3   231  3PO231      0.2317
      6  O1B       16.3640    1.4390   21.6090 O.3   231  3PO231     -0.4368
      7  O2B       17.0440    0.6040   19.2050 O.2   231  3PO231     -0.5167
      8  O3B       15.6430    2.7530   19.5060 O.3   231  3PO231     -0.2257
      9  PA        14.4850   -0.9910   20.6590 P.3   231  3PO231      0.5373
     10  O1A       14.6660   -0.6710   22.1330 O.3   231  3PO231     -0.1143
     11  O2A       15.5410   -1.8940   20.0670 O.2   231  3PO231     -0.2221
     12  O3A       14.6880    0.4370   19.9410 O.3   231  3PO231     -0.2257
     13  O5'       13.0840   -1.4050   20.2660 O.3   231  3PO231     -0.1143
@<TRIPOS>BOND
     1     4     1    2
     2     7     5    2
     3     2     1    1
     4     8     1    1
     5     8     5    1
     6     1     3    1
     7    12     5    1
     8    12     9    1
     9    11     9    2
    10     5     6    1
    11    13     9    1
    12     9    10    1
