@<TRIPOS>MOLECULE
3tvm_FUC_A_1.pdb
 10 10 0 0 0
SMALL
GASTEIGER

@<TRIPOS>ATOM
      1  C1        35.3840  -10.2040   37.6700 C.3   513  FUC513      0.1776
      2  C2        34.1940  -10.0460   38.6180 C.3   513  FUC513      0.2141
      3  C3        33.7160   -8.5910   38.6230 C.3   513  FUC513      0.2172
      4  C4        33.4050   -8.1220   37.1970 C.3   513  FUC513      0.2116
      5  C5        34.6370   -8.3490   36.3190 C.3   513  FUC513      0.1483
      6  C6        34.4000   -7.9280   34.8720 C.3   513  FUC513      0.0349
      7  O2        34.5490  -10.4530   39.9200 O.3   513  FUC513     -0.2176
      8  O3        32.5950   -8.4340   39.4670 O.3   513  FUC513     -0.2175
      9  O4        32.2970   -8.8230   36.6640 O.3   513  FUC513     -0.2177
     10  O5        35.0270   -9.7150   36.3780 O.3   513  FUC513     -0.3508
@<TRIPOS>BOND
     1     6     5    1
     2     5    10    1
     3     5     4    1
     4    10     1    1
     5     9     4    1
     6     4     3    1
     7     1     2    1
     8     2     3    1
     9     2     7    1
    10     3     8    1
