@<TRIPOS>MOLECULE
3tvq_DQH_A_1.pdb
 22 24 0 0 0
SMALL
GASTEIGER

@<TRIPOS>ATOM
      1  C1        65.1290    3.7120   27.5580 C.ar  380  DQH380      0.0843
      2  C2        64.8730    3.9260   26.1690 C.ar  380  DQH380      0.2046
      3  C3        63.7750    4.8040   25.7240 C.ar  380  DQH380      0.1103
      4  C4        62.9610    5.4520   26.7910 C.ar  380  DQH380      0.1481
      5  C5        63.2260    5.2340   28.1590 C.ar  380  DQH380      0.0792
      6  C6        64.2910    4.3770   28.5330 C.ar  380  DQH380      0.2020
      7  C9        63.4300    5.0800   24.3120 C.2   380  DQH380      0.2132
      8  C10       62.2220    5.9940   24.0490 C.3   380  DQH380      0.2568
      9  C11       61.9920    7.0130   25.1700 C.3   380  DQH380      0.2259
     10  C14       60.8000    7.9370   25.0310 C.ar  380  DQH380      0.0236
     11  C15       59.4990    7.3820   24.7530 C.ar  380  DQH380      0.0028
     12  C16       58.3380    8.2040   24.6080 C.ar  380  DQH380      0.0452
     13  C17       58.4730    9.6070   24.7420 C.ar  380  DQH380      0.2342
     14  C18       59.7700   10.1920   25.0240 C.ar  380  DQH380      0.2341
     15  C19       60.9200    9.3630   25.1660 C.ar  380  DQH380      0.0447
     16  O12       61.8990    6.3060   26.4740 O.3   380  DQH380     -0.4713
     17  O13       64.0650    4.5820   23.3460 O.2   380  DQH380     -0.2883
     18  O23       59.8990   11.5610   25.1550 O.3   380  DQH380     -0.2832
     19  O24       57.4010   10.4480   24.6100 O.3   380  DQH380     -0.2831
     20  O27       62.3430    6.6420   22.7950 O.3   380  DQH380     -0.2104
     21  O29       64.5480    4.1590   29.8440 O.3   380  DQH380     -0.2864
     22  O30       65.6590    3.2990   25.2640 O.3   380  DQH380     -0.2863
@<TRIPOS>BOND
     1    20     8    1
     2    17     7    2
     3     8     7    1
     4     8     9    1
     5     7     3    1
     6    12    13   ar
     7    12    11   ar
     8    19    13    1
     9    13    14   ar
    10    11    10   ar
    11    14    18    1
    12    14    15   ar
    13    10    15   ar
    14    10     9    1
    15     9    16    1
    16    22     2    1
    17     3     2   ar
    18     3     4   ar
    19     2     1   ar
    20    16     4    1
    21     4     5   ar
    22     1     6   ar
    23     5     6   ar
    24     6    21    1
