@<TRIPOS>MOLECULE
3tvu_B37_A_1.pdb
 36 41 0 0 0
SMALL
GASTEIGER

@<TRIPOS>ATOM
      1  C4         6.1120   32.2990   17.4640 C.2   2242  B372242     0.1128
      2  C6         6.7440   34.1140   16.1860 C.2   2242  B372242     0.1090
      3  C10        6.6770   30.5120   19.5440 C.2   2242  B372242    -0.0260
      4  C20        6.9980   29.5770   20.6610 C.3   2242  B372242     0.0261
      5  C21        5.9780   29.6510   21.7820 C.3   2242  B372242     0.0077
      6  C24        5.7420   31.0580   22.2790 C.3   2242  B372242     0.0219
      7  C28        6.4430   28.7920   22.9360 C.3   2242  B372242     0.0219
      8  C1         7.9310   34.2630   16.8790 C.2   2242  B372242     0.0276
      9  C2         8.1980   33.3890   17.9130 C.2   2242  B372242     0.0045
     10  C3         7.2830   32.3950   18.2080 C.2   2242  B372242     0.0255
     11  N5         5.8400   33.1590   16.4660 N.2   2242  B372242    -0.4102
     12  C9         7.5630   31.5210   19.2350 C.2   2242  B372242    -0.0024
     13  C11        5.5200   30.3850   18.7920 C.2   2242  B372242    -0.0229
     14  C12        5.2400   31.2720   17.7690 C.3   2242  B372242     0.0846
     15  C16        6.4550   35.0290   15.0330 C.3   2242  B372242     0.0664
     16  C25        4.9020   31.1070   23.5490 C.3   2242  B372242     0.0937
     17  N26        5.2250   30.0600   24.5000 N.am  2242  B372242    -0.2763
     18  C27        5.3530   28.7360   23.9770 C.3   2242  B372242     0.0937
     19  C38        5.7230   30.2880   25.7760 C.2   2242  B372242     0.2458
     20  C39        5.8640   31.6880   26.2090 C.2   2242  B372242     0.0443
     21  C40        4.8630   32.3420   26.9060 C.3   2242  B372242     0.1009
     22  C41        5.0970   33.6450   27.3200 C.2   2242  B372242     0.1169
     23  N42        6.2470   34.2850   27.0610 N.2   2242  B372242    -0.4056
     24  C43        7.1920   33.6180   26.3840 C.2   2242  B372242     0.1308
     25  C44        7.0570   32.3180   25.9520 C.2   2242  B372242     0.0330
     26  C46        3.6580   31.7220   27.1780 C.2   2242  B372242    -0.0149
     27  C47        2.6730   32.3790   27.8850 C.2   2242  B372242    -0.0038
     28  C48        2.8880   33.6720   28.3000 C.2   2242  B372242     0.0020
     29  C49        4.0870   34.2870   28.0090 C.2   2242  B372242     0.0282
     30  C54        8.4000   34.3380   26.1100 C.ar  2242  B372242     0.0296
     31  C55        9.5300   33.6670   25.6890 C.ar  2242  B372242     0.0025
     32  C56       10.6860   34.3560   25.3770 C.ar  2242  B372242     0.0001
     33  C57       10.7230   35.7310   25.4990 C.ar  2242  B372242     0.0000
     34  C58        9.5970   36.4080   25.9260 C.ar  2242  B372242     0.0001
     35  C59        8.4410   35.7130   26.2240 C.ar  2242  B372242     0.0025
     36  O65        6.0860   29.4270   26.5720 O.2   2242  B372242    -0.2702
@<TRIPOS>BOND
     1    15     2    1
     2     2    11    2
     3     2     8    1
     4    11     1    2
     5     8     9    2
     6     1    14    1
     7     1    10    1
     8    14    13    1
     9     9    10    1
    10    10    12    2
    11    13     3    2
    12    12     3    1
    13     3     4    1
    14     4     5    1
    15     5     6    1
    16     5     7    1
    17     6    16    1
    18     7    18    1
    19    16    17    1
    20    18    17    1
    21    17    19   am
    22    32    33   ar
    23    32    31   ar
    24    33    34   ar
    25    31    30   ar
    26    19    20    1
    27    19    36    2
    28    34    35   ar
    29    25    20    2
    30    25    24    1
    31    30    35   ar
    32    30    24    1
    33    20    21    1
    34    24    23    2
    35    21    26    1
    36    21    22    1
    37    23    22    2
    38    26    27    2
    39    22    29    1
    40    27    28    1
    41    29    28    2
