@<TRIPOS>MOLECULE
3tvw_07H_A_1.pdb
 30 34 0 0 0
SMALL
GASTEIGER

@<TRIPOS>ATOM
      1  C1         6.8730   32.4740   17.6430 C.ar    1  07H1        0.0335
      2  C4         7.7790   33.4210   17.1500 C.ar    1  07H1        0.0030
      3  C8         7.3960   34.2550   16.1030 C.ar    1  07H1        0.0002
      4  C10        6.1180   34.1390   15.5490 C.ar    1  07H1        0.0031
      5  C6         5.2070   33.1950   16.0320 C.ar    1  07H1        0.0369
      6  C2         5.5750   32.3380   17.0780 C.ar    1  07H1        0.1389
      7  O5         4.6780   31.4160   17.5490 O.3     1  07H1       -0.4709
      8  C9         5.3120   30.2280   18.0390 C.3     1  07H1        0.2291
      9  C7         6.5210   30.4640   18.9220 C.2     1  07H1        0.0151
     10  C3         7.2780   31.5560   18.7340 C.2     1  07H1       -0.0006
     11  C26        6.8970   29.4710   19.9920 C.3     1  07H1        0.0985
     12  N23        5.9450   29.4850   21.1100 N.3     1  07H1       -0.2662
     13  C22        6.4660   28.5310   22.1030 C.3     1  07H1        0.0942
     14  C21        5.4300   28.4050   23.2250 C.3     1  07H1        0.1111
     15  N19        5.2870   29.7340   23.8400 N.am    1  07H1       -0.2732
     16  C25        4.9960   30.8720   22.9390 C.3     1  07H1        0.1111
     17  C24        5.9420   30.8300   21.7230 C.3     1  07H1        0.0942
     18  C18        5.4340   29.8970   25.1770 C.2     1  07H1        0.2491
     19  O20        5.6460   28.9360   25.8940 O.2     1  07H1       -0.2699
     20  C14        5.2800   31.2260   25.8160 C.ar    1  07H1        0.0536
     21  C13        6.2790   32.2190   25.7600 C.ar    1  07H1        0.0045
     22  C12        6.0630   33.4460   26.3700 C.ar    1  07H1        0.0002
     23  C11        4.8700   33.7050   27.0380 C.ar    1  07H1        0.0016
     24  C15        3.8790   32.7160   27.0960 C.ar    1  07H1        0.0196
     25  C16        4.0790   31.4910   26.4700 C.ar    1  07H1        0.0061
     26  C17        2.5860   32.9050   27.7960 C.ar    1  07H1        0.1044
     27  N27        1.9640   34.0470   28.0240 N.ar    1  07H1       -0.1479
     28  N28        0.7520   33.7490   28.6760 N.ar    1  07H1       -0.1464
     29  C29        0.6670   32.4070   28.8460 C.ar    1  07H1        0.1238
     30  C30        1.7830   31.8570   28.3140 C.ar    1  07H1        0.0434
@<TRIPOS>BOND
     1     4     5   ar
     2     4     3   ar
     3     5     6   ar
     4     3     2   ar
     5     6     7    1
     6     6     1   ar
     7     2     1   ar
     8     7     8    1
     9     1    10    1
    10     8     9    1
    11    10     9    2
    12     9    11    1
    13    11    12    1
    14    12    17    1
    15    12    13    1
    16    17    16    1
    17    13    14    1
    18    16    15    1
    19    14    15    1
    20    15    18   am
    21    18    20    1
    22    18    19    2
    23    21    20   ar
    24    21    22   ar
    25    20    25   ar
    26    22    23   ar
    27    25    24   ar
    28    23    24   ar
    29    24    26    1
    30    26    27   ar
    31    26    30   ar
    32    27    28   ar
    33    30    29   ar
    34    28    29   ar
