@<TRIPOS>MOLECULE
3tvx_PNX_A_1.pdb
 20 21 0 0 0
SMALL
GASTEIGER

@<TRIPOS>ATOM
      1  CAA       39.9500   15.7000  -28.6970 C.3   902  PNX902      0.0722
      2  CAM       39.9740   15.3860  -27.2170 C.2   902  PNX902      0.1511
      3  OAD       40.0460   14.2180  -26.8610 O.2   902  PNX902     -0.2960
      4  CAJ       39.9090   16.5140  -26.2080 C.3   902  PNX902      0.0646
      5  CAH       39.7630   16.0360  -24.7610 C.3   902  PNX902      0.0095
      6  CAI       41.1300   15.8710  -24.0980 C.3   902  PNX902      0.0226
      7  CAK       41.7740   17.2370  -23.8400 C.3   902  PNX902      0.1047
      8  N1        43.2350   17.1890  -24.0050 N.am  902  PNX902     -0.1921
      9  C6        43.9830   16.9800  -22.8900 C.2   902  PNX902      0.2609
     10  O6        43.4590   16.8300  -21.7970 O.2   902  PNX902     -0.2723
     11  C5        45.3720   16.9450  -23.0650 C.3   902  PNX902      0.2453
     12  N7        46.4020   16.7550  -22.1950 N.3   902  PNX902     -0.2098
     13  CAB       46.3660   16.5280  -20.7480 C.3   902  PNX902      0.0945
     14  C8        47.5530   16.8080  -22.9050 C.3   902  PNX902      0.3428
     15  N9        47.2690   17.0230  -24.2070 N.2   902  PNX902     -0.0479
     16  C4        45.9260   17.1190  -24.3400 C.2   902  PNX902      0.3276
     17  N3        45.1490   17.3300  -25.4320 N.am  902  PNX902     -0.1218
     18  CAC       45.7430   17.5140  -26.7580 C.3   902  PNX902      0.2626
     19  C2        43.8030   17.3600  -25.2340 C.2   902  PNX902      0.4044
     20  O2        43.0930   17.5460  -26.2150 O.2   902  PNX902     -0.2230
@<TRIPOS>BOND
     1     1     2    1
     2     2     3    2
     3     2     4    1
     4    18    17    1
     5    20    19    2
     6     4     5    1
     7    17    19   am
     8    17    16    1
     9    19     8   am
    10     5     6    1
    11    16    15    2
    12    16    11    1
    13    15    14    1
    14     6     7    1
    15     8     7    1
    16     8     9   am
    17    11     9    1
    18    11    12    1
    19    14    12    1
    20     9    10    2
    21    12    13    1
