@<TRIPOS>MOLECULE
3tw1_AHN_A_1.pdb
 11 11 0 0 0
SMALL
GASTEIGER

@<TRIPOS>ATOM
      1  C         19.4050   97.2950   -7.4350 C.2     1  AHN1        0.2419
      2  O         19.8930   97.0510   -6.3330 O.2     1  AHN1       -0.2733
      3  CT        18.3430   98.3450   -7.6360 C.3     1  AHN1        0.0964
      4  N         19.9310   96.5100   -8.5010 N.am    1  AHN1       -0.2050
      5  CA        19.5730   96.5480   -9.8850 C.3     1  AHN1        0.1215
      6  CB        20.2400   95.4320  -10.6080 C.3     1  AHN1        0.0704
      7  CG        21.0780   94.5740   -9.7150 C.2     1  AHN1        0.0764
      8  CD2       20.9530   93.2180   -9.5260 C.2     1  AHN1        0.1098
      9  ND1       22.0830   95.0010   -8.9240 N.2     1  AHN1       -0.2470
     10  CE1       22.5860   93.9240   -8.2620 C.3     1  AHN1        0.2505
     11  NE2       21.8790   92.8320   -8.6420 N.2     1  AHN1       -0.2415
@<TRIPOS>BOND
     1     6     5    1
     2     6     7    1
     3     5     4    1
     4     7     8    1
     5     7     9    2
     6     8    11    2
     7     9    10    1
     8    11    10    1
     9     4     1   am
    10     3     1    1
    11     1     2    2
