@<TRIPOS>MOLECULE
3tw2_AMP_A_1.pdb
 23 25 0 0 0
SMALL
GASTEIGER

@<TRIPOS>ATOM
      1  P        -31.7190    4.2290  -23.8880 P.3   127  AMP127      0.5327
      2  O1P      -32.4430    5.1330  -22.8960 O.3   127  AMP127     -0.1145
      3  O2P      -30.3340    4.0130  -23.4320 O.3   127  AMP127     -0.1145
      4  O3P      -32.3350    2.8790  -24.1940 O.2   127  AMP127     -0.2224
      5  O5'      -31.7680    5.0100  -25.3090 O.3   127  AMP127     -0.2675
      6  C5'      -31.0890    4.4510  -26.4730 C.3   127  AMP127      0.1860
      7  C4'      -29.7700    5.1580  -26.8390 C.3   127  AMP127      0.1823
      8  O4'      -29.4200    4.6800  -28.1500 O.3   127  AMP127     -0.3135
      9  C3'      -29.9420    6.6740  -26.9650 C.3   127  AMP127      0.2184
     10  O3'      -28.8440    7.3700  -26.3150 O.3   127  AMP127     -0.2174
     11  C2'      -29.9540    6.8960  -28.4710 C.3   127  AMP127      0.2570
     12  O2'      -29.5000    8.1970  -28.8890 O.3   127  AMP127     -0.2130
     13  C1'      -29.0520    5.7730  -28.9890 C.3   127  AMP127      0.3186
     14  N9       -29.3480    5.3960  -30.3880 N.pl3 127  AMP127     -0.1439
     15  C8       -30.5790    5.1260  -30.8970 C.3   127  AMP127      0.3377
     16  N7       -30.5100    4.8290  -32.2120 N.2   127  AMP127     -0.2095
     17  C5       -29.1880    4.8550  -32.5350 C.2   127  AMP127      0.2526
     18  C6       -28.3940    4.6340  -33.7550 C.2   127  AMP127      0.4393
     19  N6       -28.9990    4.3130  -34.9240 N.pl3 127  AMP127      0.2180
     20  N1       -27.0450    4.7630  -33.6400 N.2   127  AMP127      0.0021
     21  C2       -26.4030    5.1040  -32.4930 C.3   127  AMP127      0.5254
     22  N3       -27.0730    5.3540  -31.3590 N.2   127  AMP127     -0.0055
     23  C4       -28.4250    5.2240  -31.3330 C.2   127  AMP127      0.3518
@<TRIPOS>BOND
     1    19    18    1
     2    18    20    2
     3    18    17    1
     4    20    21    1
     5    17    16    2
     6    17    23    1
     7    21    22    1
     8    16    15    1
     9    22    23    2
    10    23    14    1
    11    15    14    1
    12    14    13    1
    13    13    11    1
    14    13     8    1
    15    12    11    1
    16    11     9    1
    17     8     7    1
    18     9     7    1
    19     9    10    1
    20     7     6    1
    21     6     5    1
    22     5     1    1
    23     4     1    2
    24     1     3    1
    25     1     2    1
