@<TRIPOS>MOLECULE
3tw3_ATP_A_1.pdb
 31 33 0 0 0
SMALL
GASTEIGER

@<TRIPOS>ATOM
      1  PG        10.5560  -15.3520  -15.7660 P.3   401  ATP401      0.5373
      2  O1G        9.8180  -14.0490  -15.5530 O.3   401  ATP401     -0.1143
      3  O2G       10.9820  -16.0590  -14.4990 O.3   401  ATP401     -0.1143
      4  O3G        9.9130  -16.2540  -16.7940 O.2   401  ATP401     -0.2221
      5  PB        12.4000  -13.3950  -16.6250 P.3   401  ATP401      0.2277
      6  O1B       11.1790  -12.5810  -16.9840 O.3   401  ATP401     -0.4368
      7  O2B       13.5930  -13.3960  -17.5530 O.2   401  ATP401     -0.5168
      8  O3B       11.9620  -14.9330  -16.4320 O.3   401  ATP401     -0.2258
      9  PA        11.9630  -12.2420  -14.0700 P.3   401  ATP401      0.2189
     10  O1A       11.6180  -13.2370  -12.9890 O.3   401  ATP401     -0.4371
     11  O2A       10.8610  -11.5120  -14.7980 O.2   401  ATP401     -0.5170
     12  O3A       12.9100  -12.9780  -15.1500 O.3   401  ATP401     -0.2700
     13  O5'       12.9630  -11.1440  -13.4440 O.3   401  ATP401     -0.3112
     14  C5'       13.6930  -10.2660  -14.2970 C.3   401  ATP401      0.1813
     15  C4'       14.7630   -9.5240  -13.5020 C.3   401  ATP401      0.1821
     16  O4'       15.7500   -9.0410  -14.4220 O.3   401  ATP401     -0.3135
     17  C3'       14.1700   -8.2930  -12.8280 C.3   401  ATP401      0.2184
     18  O3'       14.9700   -7.9820  -11.6830 O.3   401  ATP401     -0.2174
     19  C2'       14.3970   -7.1960  -13.8470 C.3   401  ATP401      0.2570
     20  O2'       14.5210   -5.9190  -13.2030 O.3   401  ATP401     -0.2130
     21  C1'       15.7130   -7.6150  -14.4830 C.3   401  ATP401      0.3186
     22  N9        15.7720   -7.1270  -15.8780 N.pl3 401  ATP401     -0.1439
     23  C8        15.0140   -7.5580  -16.9040 C.3   401  ATP401      0.3377
     24  N7        15.3210   -6.8850  -18.0420 N.2   401  ATP401     -0.2095
     25  C5        16.2920   -6.0010  -17.7420 C.2   401  ATP401      0.2526
     26  C6        17.0680   -4.9780  -18.4780 C.2   401  ATP401      0.4393
     27  N6        16.8550   -4.7700  -19.7990 N.pl3 401  ATP401      0.2180
     28  N1        17.9920   -4.2670  -17.7900 N.2   401  ATP401      0.0021
     29  C2        18.2050   -4.4690  -16.4760 C.3   401  ATP401      0.5254
     30  N3        17.5360   -5.3800  -15.7450 N.2   401  ATP401     -0.0055
     31  C4        16.5850   -6.1620  -16.3120 C.2   401  ATP401      0.3518
@<TRIPOS>BOND
     1    27    26    1
     2    26    28    2
     3    26    25    1
     4    24    25    2
     5    24    23    1
     6    28    29    1
     7    25    31    1
     8     7     5    2
     9     6     5    1
    10    23    22    1
    11     4     1    2
    12     5     8    1
    13     5    12    1
    14    29    30    1
    15     8     1    1
    16    31    22    1
    17    31    30    2
    18    22    21    1
    19     1     2    1
    20     1     3    1
    21    12     9    1
    22    11     9    2
    23    21    16    1
    24    21    19    1
    25    16    15    1
    26    14    15    1
    27    14    13    1
    28     9    13    1
    29     9    10    1
    30    19    20    1
    31    19    17    1
    32    15    17    1
    33    17    18    1
