@<TRIPOS>MOLECULE
3tw4_GDP_A_1.pdb
 28 30 0 0 0
SMALL
GASTEIGER

@<TRIPOS>ATOM
      1  PB       -39.2390   13.8580   -7.6210 P.3   500  GDP500      0.5373
      2  O1B      -39.7710   12.5360   -7.1300 O.3   500  GDP500     -0.1143
      3  O2B      -38.2470   14.4010   -6.6180 O.3   500  GDP500     -0.1143
      4  O3B      -38.5070   13.6580   -8.9290 O.2   500  GDP500     -0.2221
      5  O3A      -40.4470   14.8990   -7.8690 O.3   500  GDP500     -0.2261
      6  PA       -41.2860   15.5730   -6.6670 P.3   500  GDP500      0.2231
      7  O1A      -42.5990   14.8500   -6.4940 O.2   500  GDP500     -0.5169
      8  O2A      -40.5130   15.6220   -5.3690 O.3   500  GDP500     -0.4370
      9  O5'      -41.5120   17.0610   -7.2010 O.3   500  GDP500     -0.3111
     10  C5'      -40.4410   17.9620   -6.9380 C.3   500  GDP500      0.1813
     11  C4'      -41.0260   19.3510   -6.8460 C.3   500  GDP500      0.1799
     12  O4'      -41.6620   19.6680   -8.0770 O.3   500  GDP500     -0.3326
     13  C3'      -42.1000   19.3540   -5.7820 C.3   500  GDP500      0.2158
     14  O3'      -41.6600   20.1420   -4.6780 O.3   500  GDP500     -0.2175
     15  C2'      -43.3220   19.9750   -6.4190 C.3   500  GDP500      0.2310
     16  O2'      -43.6550   21.1950   -5.7580 O.3   500  GDP500     -0.2158
     17  C1'      -42.9430   20.2550   -7.8590 C.3   500  GDP500      0.2293
     18  N9       -43.9010   19.5650   -8.7420 N.pl3 500  GDP500     -0.2354
     19  C8       -44.6440   18.4930   -8.4120 C.3   500  GDP500      0.2246
     20  N7       -45.4030   18.0920   -9.4620 N.2   500  GDP500     -0.2322
     21  C5       -45.1300   18.9140  -10.4910 C.2   500  GDP500      0.2182
     22  C6       -45.5750   19.0540  -11.8950 C.1   500  GDP500      0.2372
     23  O6       -46.4200   18.2740  -12.3840 O.2   500  GDP500     -0.2069
     24  N1       -45.0430   20.0430  -12.6230 N.2   500  GDP500     -0.2485
     25  C2       -44.1330   20.8990  -12.1300 C.1   500  GDP500      0.2531
     26  N2       -43.6490   21.8670  -12.9380 N.pl3 500  GDP500     -0.0226
     27  N3       -43.6790   20.8310  -10.8570 N.2   500  GDP500     -0.3074
     28  C4       -44.1340   19.8790  -10.0130 C.2   500  GDP500      0.2300
@<TRIPOS>BOND
     1    26    25    1
     2    24    25    2
     3    24    22    2
     4    23    22    2
     5    25    27    2
     6    22    21    1
     7    27    28    2
     8    21    28    1
     9    21    20    2
    10    28    18    1
    11    20    19    1
    12     4     1    2
    13    18    19    1
    14    18    17    1
    15    12    17    1
    16    12    11    1
    17     5     1    1
    18     5     6    1
    19    17    15    1
    20     1     2    1
    21     1     3    1
    22     9    10    1
    23     9     6    1
    24    10    11    1
    25    11    13    1
    26     6     7    2
    27     6     8    1
    28    15    13    1
    29    15    16    1
    30    13    14    1
