@<TRIPOS>MOLECULE
3tw6_ADP_A_1.pdb
 27 29 0 0 0
SMALL
GASTEIGER

@<TRIPOS>ATOM
      1  PB        98.7090  -16.7150  -37.2000 P.3   2000  ADP2000     0.5373
      2  O1B      100.2210  -16.7330  -37.2560 O.3   2000  ADP2000    -0.1143
      3  O2B       98.1430  -16.5820  -38.6060 O.2   2000  ADP2000    -0.2221
      4  O3B       98.1420  -15.7690  -36.1520 O.3   2000  ADP2000    -0.1143
      5  PA        97.0300  -18.6830  -35.7310 P.3   2000  ADP2000     0.2231
      6  O1A       96.8400  -20.1350  -36.1680 O.2   2000  ADP2000    -0.5169
      7  O2A       97.1540  -18.3020  -34.2590 O.3   2000  ADP2000    -0.4370
      8  O3A       98.3110  -18.1940  -36.6330 O.3   2000  ADP2000    -0.2261
      9  O5'       95.7680  -17.8080  -36.2340 O.3   2000  ADP2000    -0.3111
     10  C5'       94.6030  -17.5950  -35.4260 C.3   2000  ADP2000     0.1813
     11  C4'       93.4130  -18.0370  -36.2620 C.3   2000  ADP2000     0.1821
     12  O4'       93.6840  -19.3420  -36.8140 O.3   2000  ADP2000    -0.3135
     13  C3'       92.1340  -18.2010  -35.4550 C.3   2000  ADP2000     0.2184
     14  O3'       91.3270  -17.0260  -35.4740 O.3   2000  ADP2000    -0.2174
     15  C2'       91.4670  -19.3800  -36.1490 C.3   2000  ADP2000     0.2570
     16  O2'       90.8240  -18.9880  -37.3770 O.3   2000  ADP2000    -0.2130
     17  C1'       92.6490  -20.2780  -36.4780 C.3   2000  ADP2000     0.3186
     18  N9        92.9770  -21.1210  -35.2780 N.pl3 2000  ADP2000    -0.1439
     19  C8        94.0230  -20.9870  -34.4170 C.3   2000  ADP2000     0.3377
     20  N7        94.0000  -21.9090  -33.4180 N.2   2000  ADP2000    -0.2095
     21  C5        92.9110  -22.6770  -33.6360 C.2   2000  ADP2000     0.2526
     22  C6        92.2580  -23.8490  -32.9840 C.2   2000  ADP2000     0.4393
     23  N6        92.7920  -24.3960  -31.8790 N.pl3 2000  ADP2000     0.2180
     24  N1        91.1120  -24.3540  -33.5110 N.2   2000  ADP2000     0.0021
     25  C2        90.5510  -23.8210  -34.6190 C.3   2000  ADP2000     0.5254
     26  N3        91.0820  -22.7640  -35.2710 N.2   2000  ADP2000    -0.0055
     27  C4        92.2350  -22.1550  -34.8450 C.2   2000  ADP2000     0.3518
@<TRIPOS>BOND
     1     3     1    2
     2    16    15    1
     3     2     1    1
     4     1     8    1
     5     1     4    1
     6    12    17    1
     7    12    11    1
     8     8     5    1
     9    17    15    1
    10    17    18    1
    11    11    13    1
    12    11    10    1
    13     9     5    1
    14     9    10    1
    15     6     5    2
    16    15    13    1
    17     5     7    1
    18    14    13    1
    19    18    27    1
    20    18    19    1
    21    26    27    2
    22    26    25    1
    23    27    21    1
    24    25    24    1
    25    19    20    1
    26    21    20    2
    27    21    22    1
    28    24    22    2
    29    22    23    1
