@<TRIPOS>MOLECULE
3tw6_COA_A_1.pdb
 32 34 0 0 0
SMALL
GASTEIGER

@<TRIPOS>ATOM
      1  N1A       74.0590   11.7820  -61.4810 N.2   4011  COA4011     0.0021
      2  C2A       74.7750   11.9790  -62.6100 C.3   4011  COA4011     0.5254
      3  N3A       75.6060   11.0800  -63.1760 N.2   4011  COA4011    -0.0055
      4  C4A       75.7560    9.8530  -62.6170 C.2   4011  COA4011     0.3518
      5  C5A       75.0010    9.5560  -61.3770 C.2   4011  COA4011     0.2526
      6  C6A       74.1240   10.6220  -60.8220 C.2   4011  COA4011     0.4393
      7  N6A       73.4040   10.4440  -59.6970 N.pl3 4011  COA4011     0.2180
      8  N7A       75.3180    8.2920  -61.0270 N.2   4011  COA4011    -0.2095
      9  C8A       76.1860    7.8250  -61.9520 C.3   4011  COA4011     0.3377
     10  N9A       76.4590    8.7450  -62.9090 N.pl3 4011  COA4011    -0.1439
     11  C1B       77.3960    8.5510  -64.0670 C.3   4011  COA4011     0.3185
     12  C2B       78.7770    8.0940  -63.5780 C.3   4011  COA4011     0.2540
     13  O2B       79.8310    8.2500  -64.5310 O.3   4011  COA4011    -0.2131
     14  C3B       78.5000    6.6100  -63.4480 C.3   4011  COA4011     0.1853
     15  O3B       79.6320    5.8050  -63.0970 O.3   4011  COA4011    -0.3421
     16  P3B       79.7030    5.4040  -61.5080 P.3   4011  COA4011     0.0265
     17  O7A       81.1250    5.8510  -61.1890 O.3   4011  COA4011    -0.2139
     18  O8A       78.6320    6.1830  -60.7310 O.co2 4011  COA4011    -0.7986
     19  O9A       79.3980    3.9080  -61.4500 O.co2 4011  COA4011    -0.8499
     20  C4B       77.6320    6.2650  -64.6580 C.3   4011  COA4011     0.1792
     21  O4B       76.9050    7.4740  -64.8940 O.3   4011  COA4011    -0.3136
     22  C5B       76.5860    5.2690  -64.2300 C.3   4011  COA4011     0.1812
     23  O5B       76.4710    4.2140  -65.1520 O.3   4011  COA4011    -0.3112
     24  P1A       75.5140    3.0750  -64.5570 P.3   4011  COA4011     0.2189
     25  O1A       74.6160    2.5680  -65.6370 O.2   4011  COA4011    -0.5170
     26  O2A       74.9570    3.6210  -63.2430 O.co2 4011  COA4011    -0.4371
     27  O3A       76.4810    1.8090  -64.4300 O.3   4011  COA4011    -0.2703
     28  P2A       76.8540    0.9650  -63.1160 P.3   4011  COA4011     0.2189
     29  O4A       75.8600   -0.1590  -62.8430 O.3   4011  COA4011    -0.4371
     30  O5A       78.2140    0.6350  -63.6760 O.co2 4011  COA4011    -0.5170
     31  O6A       76.9120    2.0430  -61.8740 O.3   4011  COA4011    -0.3112
     32  CCP       77.0670    1.7220  -60.4720 C.3   4011  COA4011     0.1815
@<TRIPOS>UNITY_ATOM_ATTR
18 1
charge -1
19 1
charge -1
26 1
charge -1
30 1
charge -1
@<TRIPOS>BOND
     1    25    24    2
     2    23    24    1
     3    23    22    1
     4    21    20    1
     5    21    11    1
     6    20    22    1
     7    20    14    1
     8    24    27    1
     9    24    26    1
    10    13    12    1
    11    27    28    1
    12    11    12    1
    13    11    10    1
    14    30    28    2
    15    12    14    1
    16    14    15    1
    17     3     4    2
    18     3     2    1
    19    28    29    1
    20    28    31    1
    21    15    16    1
    22    10     4    1
    23    10     9    1
    24     4     5    1
    25     2     1    1
    26     9     8    1
    27    31    32    1
    28    16    19    2
    29    16    17    1
    30    16    18    1
    31     1     6    2
    32     5     8    2
    33     5     6    1
    34     6     7    1
