@<TRIPOS>MOLECULE
3tw6_BTI_B_1.pdb
 15 16 0 0 0
SMALL
GASTEIGER

@<TRIPOS>ATOM
      1  C11       97.4530   31.3660 -142.9190 C.2   2003  BTI2003     0.2074
      2  O11       96.2620   31.0650 -142.9280 O.2   2003  BTI2003    -0.2883
      3  C10       98.4510   30.5610 -142.1110 C.3   2003  BTI2003     0.0722
      4  C9        99.8710   30.9060 -142.5270 C.3   2003  BTI2003     0.0082
      5  C8       100.3420   32.1770 -141.8390 C.3   2003  BTI2003     0.0014
      6  C7       100.7800   31.9040 -140.3960 C.3   2003  BTI2003     0.0129
      7  C2       102.2620   31.5190 -140.3680 C.3   2003  BTI2003     0.0729
      8  S1       102.5780   29.9790 -139.5270 S.3   2003  BTI2003    -0.1369
      9  C6       104.3030   30.3300 -139.2280 C.3   2003  BTI2003     0.0848
     10  C5       104.5400   31.8540 -139.3720 C.3   2003  BTI2003     0.1509
     11  N3       104.8670   32.5340 -138.1100 N.2   2003  BTI2003    -0.1859
     12  C3       103.9170   33.4460 -137.7750 C.1   2003  BTI2003     0.2386
     13  O3       104.0080   34.2440 -136.8220 O.2   2003  BTI2003    -0.2023
     14  N2       102.8860   33.3690 -138.6520 N.2   2003  BTI2003    -0.1860
     15  C4       103.2610   32.5790 -139.8310 C.3   2003  BTI2003     0.1500
@<TRIPOS>BOND
     1     2     1    2
     2     1     3    1
     3     4     3    1
     4     4     5    1
     5     5     6    1
     6     6     7    1
     7     7    15    1
     8     7     8    1
     9    15    10    1
    10    15    14    1
    11     8     9    1
    12    10     9    1
    13    10    11    1
    14    14    12    2
    15    11    12    2
    16    12    13    2
