@<TRIPOS>MOLECULE
3twb_GCO_A_1.pdb
 13 12 0 0 0
SMALL
GASTEIGER

@<TRIPOS>ATOM
      1  C1        29.3050   -4.9960   68.9150 C.2   423  GCO423      0.3973
      2  C2        29.2550   -6.3230   68.1930 C.3   423  GCO423      0.2865
      3  C3        30.5480   -7.1230   68.4370 C.3   423  GCO423      0.2260
      4  C4        30.6650   -8.2430   67.3860 C.3   423  GCO423      0.2180
      5  C5        32.0790   -8.5400   66.9140 C.3   423  GCO423      0.2175
      6  C6        32.1960   -9.7210   65.9520 C.3   423  GCO423      0.2175
      7  O11       28.2460   -4.4070   69.1820 O.co2 423  GCO423     -0.2427
      8  O12       30.4550   -4.5820   69.1870 O.co2 423  GCO423     -0.2427
      9  O2        28.0790   -7.0880   68.3210 O.3   423  GCO423     -0.2080
     10  O3        30.6190   -7.6310   69.7680 O.3   423  GCO423     -0.2169
     11  O4        29.9460   -9.3660   67.7050 O.3   423  GCO423     -0.2175
     12  O5        32.7210   -7.3970   66.4530 O.3   423  GCO423     -0.2175
     13  O6        33.5140  -10.0180   65.5610 O.3   423  GCO423     -0.2175
@<TRIPOS>BOND
     1    13     6    1
     2     6     5    1
     3    12     5    1
     4     5     4    1
     5     4    11    1
     6     4     3    1
     7     2     9    1
     8     2     3    1
     9     2     1    1
    10     3    10    1
    11     1     7   ar
    12     1     8   ar
