@<TRIPOS>MOLECULE
3twc_MAN_H_1.pdb
 11 11 0 0 0
SMALL
GASTEIGER

@<TRIPOS>ATOM
      1  C1        10.3800  -20.1430   41.9530 C.3   308  MAN308      0.1777
      2  C2        11.2750  -20.4810   40.7580 C.3   308  MAN308      0.2141
      3  C3        11.4990  -19.2250   39.9300 C.3   308  MAN308      0.2173
      4  C4        10.1480  -18.6040   39.5450 C.3   308  MAN308      0.2142
      5  C5         9.3160  -18.3620   40.8120 C.3   308  MAN308      0.1810
      6  C6         7.9250  -17.8070   40.5100 C.3   308  MAN308      0.2141
      7  O2        10.7160  -21.5210   39.9800 O.3   308  MAN308     -0.2176
      8  O3        12.2760  -19.5510   38.7930 O.3   308  MAN308     -0.2175
      9  O4        10.3080  -17.4070   38.8160 O.3   308  MAN308     -0.2176
     10  O5         9.1580  -19.5850   41.4940 O.3   308  MAN308     -0.3481
     11  O6         7.2010  -18.7370   39.7180 O.3   308  MAN308     -0.2176
@<TRIPOS>BOND
     1     8     3    1
     2     9     4    1
     3     4     3    1
     4     4     5    1
     5    11     6    1
     6     3     2    1
     7     7     2    1
     8     6     5    1
     9     2     1    1
    10     5    10    1
    11    10     1    1
