@<TRIPOS>MOLECULE
3twd_GOB_A_1.pdb
 35 37 0 0 0
SMALL
GASTEIGER

@<TRIPOS>ATOM
      1  C1        23.8730  -26.9290  -15.6780 C.3     1  GOB1        0.2525
      2  O2        24.7420  -25.8120  -15.4050 O.3     1  GOB1       -0.4700
      3  C3        25.3060  -25.2360  -16.5180 C.ar    1  GOB1        0.1570
      4  C4        24.9900  -25.6330  -17.8100 C.ar    1  GOB1        0.0765
      5  C5        25.6060  -24.9990  -18.8980 C.ar    1  GOB1        0.1606
      6  C6        26.5600  -23.9880  -18.6800 C.ar    1  GOB1        0.1610
      7  C7        26.8830  -23.5880  -17.3840 C.ar    1  GOB1        0.0430
      8  C8        26.2550  -24.2110  -16.3070 C.ar    1  GOB1        0.1087
      9  N9        26.5350  -23.9000  -14.9660 N.am    1  GOB1       -0.1761
     10  C10       27.5510  -23.1750  -14.4460 C.2     1  GOB1        0.2462
     11  O11       28.4100  -22.6220  -15.1190 O.2     1  GOB1       -0.2730
     12  C12       27.5440  -23.1200  -12.9330 C.3     1  GOB1        0.0990
     13  C13       27.9470  -21.7550  -12.3920 C.3     1  GOB1        0.1237
     14  C14       27.9440  -21.9340  -10.8930 C.2     1  GOB1        0.3654
     15  O15       28.8140  -22.5570  -10.3120 O.co2   1  GOB1       -0.2456
     16  O16       26.9580  -21.3860  -10.2020 O.co2   1  GOB1       -0.2456
     17  S17       27.3370  -23.1420  -20.0360 S.O2    1  GOB1        0.0831
     18  O18       27.9580  -24.0910  -20.8630 O.2     1  GOB1       -0.1493
     19  O19       27.9950  -22.0560  -19.4150 O.2     1  GOB1       -0.1493
     20  N20       26.0010  -22.5020  -20.8190 N.pl3   1  GOB1       -0.1691
     21  C21       24.9040  -21.9840  -20.0840 C.ar    1  GOB1        0.0736
     22  C22       23.6350  -22.5840  -20.2030 C.ar    1  GOB1        0.0165
     23  C23       22.5540  -22.0940  -19.4640 C.ar    1  GOB1        0.0013
     24  C24       22.7340  -21.0070  -18.6110 C.ar    1  GOB1        0.0001
     25  C25       23.9950  -20.4030  -18.4790 C.ar    1  GOB1        0.0013
     26  C26       25.0700  -20.8800  -19.2220 C.ar    1  GOB1        0.0165
     27  C27       26.0160  -22.5440  -22.2280 C.ar    1  GOB1        0.0737
     28  C28       26.5180  -21.4590  -22.9440 C.ar    1  GOB1        0.0179
     29  C29       26.5610  -21.5060  -24.3330 C.ar    1  GOB1        0.0194
     30  C30       26.1130  -22.6380  -25.0020 C.ar    1  GOB1        0.0892
     31  C31       25.6200  -23.7350  -24.2960 C.ar    1  GOB1        0.0194
     32  C32       25.5700  -23.6840  -22.9100 C.ar    1  GOB1        0.0179
     33  N33       26.1700  -22.6740  -26.3940 N.pl3   1  GOB1       -0.1281
     34  O34       25.3230  -25.3540  -20.1970 O.3     1  GOB1       -0.4700
     35  C35       24.2670  -26.3210  -20.3770 C.3     1  GOB1        0.2525
@<TRIPOS>BOND
     1    33    30    1
     2    30    29   ar
     3    30    31   ar
     4    29    28   ar
     5    31    32   ar
     6    28    27   ar
     7    32    27   ar
     8    27    20    1
     9    18    17    2
    10    20    21    1
    11    20    17    1
    12    35    34    1
    13    22    21   ar
    14    22    23   ar
    15    34     5    1
    16    21    26   ar
    17    17    19    2
    18    17     6    1
    19    23    24   ar
    20    26    25   ar
    21     5     6   ar
    22     5     4   ar
    23     6     7   ar
    24    24    25   ar
    25     4     3   ar
    26     7     8   ar
    27     3     8   ar
    28     3     2    1
    29     8     9    1
    30     1     2    1
    31    11    10    2
    32     9    10   am
    33    10    12    1
    34    12    13    1
    35    13    14    1
    36    14    15   ar
    37    14    16   ar
