@<TRIPOS>MOLECULE
3twj_07R_A_1.pdb
 23 25 0 0 0
SMALL
GASTEIGER

@<TRIPOS>ATOM
      1  O01       18.1410   33.9910   17.4340 O.2     1  07R1       -0.2487
      2  C02       17.0810   34.6940   17.1920 C.2     1  07R1        0.3463
      3  N03       16.7840   35.2250   15.8200 N.am    1  07R1       -0.1820
      4  C04       15.7660   34.5490   14.9280 C.3     1  07R1        0.1433
      5  C05       16.4980   33.8560   13.7670 C.ar    1  07R1        0.0027
      6  C06       17.5530   34.6580   13.0850 C.ar    1  07R1        0.0395
      7  C07       18.2700   34.0950   12.0560 C.ar    1  07R1        0.1955
      8  O08       19.2520   34.8570   11.3830 O.3     1  07R1       -0.2866
      9  C09       17.9950   32.7690   11.6720 C.ar    1  07R1        0.0420
     10  C10       16.9630   31.9720   12.3300 C.ar    1  07R1        0.0030
     11  C11       16.2180   32.5300   13.3890 C.ar    1  07R1       -0.0023
     12  N12       16.1300   34.9920   18.2600 N.am    1  07R1       -0.1251
     13  C13       16.3900   34.1760   19.4700 C.2     1  07R1        0.2342
     14  N14       15.5060   33.2670   20.1570 N.2     1  07R1       -0.3824
     15  C15       16.1340   32.5800   21.3290 C.2     1  07R1        0.1226
     16  C16       15.3800   31.5700   22.1710 C.ar    1  07R1        0.0295
     17  C17       14.0660   31.1100   21.6840 C.ar    1  07R1        0.0229
     18  C18       13.2520   30.1420   22.4060 C.ar    1  07R1        0.0990
     19  N19       13.7090   29.6190   23.5810 N.ar    1  07R1       -0.2423
     20  C20       14.9640   30.0280   24.0520 C.ar    1  07R1        0.0990
     21  C21       15.8490   30.9900   23.3790 C.ar    1  07R1        0.0229
     22  C22       17.5050   33.0770   21.4160 C.3     1  07R1        0.1247
     23  S23       17.8690   34.1450   20.1850 S.3     1  07R1       -0.0576
@<TRIPOS>BOND
     1     8     7    1
     2     9     7   ar
     3     9    10   ar
     4     7     6   ar
     5    10    11   ar
     6     6     5   ar
     7    11     5   ar
     8     5     4    1
     9     4     3    1
    10     3     2   am
    11     2     1    2
    12     2    12   am
    13    12    13    1
    14    13    14    2
    15    13    23    1
    16    14    15    2
    17    23    22    1
    18    15    22    1
    19    15    16    1
    20    17    16   ar
    21    17    18   ar
    22    16    21   ar
    23    18    19   ar
    24    21    20   ar
    25    19    20   ar
