@<TRIPOS>MOLECULE
3two_NDP_A_1.pdb
 48 52 0 0 0
SMALL
GASTEIGER

@<TRIPOS>ATOM
      1  PA        32.7740   10.3230   42.2290 P.3   601  NDP601      0.2189
      2  O1A       33.4260   11.6620   42.2240 O.3   601  NDP601     -0.4371
      3  O2A       31.3210    9.9320   41.8950 O.2   601  NDP601     -0.5170
      4  O5B       32.2990   10.4740   43.7560 O.3   601  NDP601     -0.3112
      5  C5B       33.1210   10.8590   44.9470 C.3   601  NDP601      0.1813
      6  C4B       32.2790   11.5340   46.0220 C.3   601  NDP601      0.1820
      7  O4B       33.0940   11.9780   47.1880 O.3   601  NDP601     -0.3136
      8  C3B       31.7010   12.8680   45.4160 C.3   601  NDP601      0.2157
      9  O3B       30.2810   12.9680   45.6860 O.3   601  NDP601     -0.2175
     10  C2B       32.4300   14.0020   46.2010 C.3   601  NDP601      0.2314
     11  O2B       31.5440   15.0890   46.3910 O.3   601  NDP601     -0.2630
     12  C1B       32.6860   13.3460   47.5700 C.3   601  NDP601      0.3158
     13  N9A       33.8550   13.8260   48.2960 N.pl3 601  NDP601     -0.1439
     14  C8A       35.0160   14.2460   47.7460 C.3   601  NDP601      0.3377
     15  N7A       35.8620   14.5230   48.7440 N.2   601  NDP601     -0.2095
     16  C5A       35.2720   14.2620   49.9080 C.2   601  NDP601      0.2526
     17  C6A       35.6640   14.3950   51.2470 C.2   601  NDP601      0.4393
     18  N6A       36.8860   14.8430   51.6320 N.pl3 601  NDP601      0.2180
     19  N1A       34.8000   14.0330   52.1890 N.2   601  NDP601      0.0021
     20  C2A       33.5630   13.6030   51.8950 C.3   601  NDP601      0.5254
     21  N3A       33.1610   13.4900   50.6330 N.2   601  NDP601     -0.0055
     22  C4A       34.0010   13.7980   49.6180 C.2   601  NDP601      0.3518
     23  O3        33.7330    9.1220   42.6190 O.3   601  NDP601     -0.2703
     24  PN        33.4350    7.5690   42.3980 P.3   601  NDP601      0.2189
     25  O1N       32.3260    7.1360   43.3580 O.3   601  NDP601     -0.4371
     26  O2N       33.3960    7.1400   40.9100 O.2   601  NDP601     -0.5170
     27  O5D       34.8050    6.9120   42.9070 O.3   601  NDP601     -0.3112
     28  C5D       35.3490    7.4520   44.1620 C.3   601  NDP601      0.1813
     29  C4D       36.7590    6.8620   44.4230 C.3   601  NDP601      0.1799
     30  O4D       36.6070    5.4310   44.3800 O.3   601  NDP601     -0.3327
     31  C3D       37.7930    7.2080   43.4060 C.3   601  NDP601      0.2158
     32  O3D       39.0450    7.4300   44.0930 O.3   601  NDP601     -0.2175
     33  C2D       37.8390    5.9470   42.5600 C.3   601  NDP601      0.2309
     34  O2D       39.0810    5.7860   41.8660 O.3   601  NDP601     -0.2158
     35  C1D       37.7210    4.8940   43.6490 C.3   601  NDP601      0.2263
     36  N1N       37.3650    3.5500   43.0990 N.pl3 601  NDP601     -0.2787
     37  C2N       38.0040    2.4410   43.7110 C.3   601  NDP601      0.1244
     38  C3N       37.7540    1.1700   43.2680 C.2   601  NDP601      0.0544
     39  C7N       38.3770   -0.0190   43.9880 C.2   601  NDP601      0.2818
     40  O7N       38.8570    0.0730   45.1350 O.2   601  NDP601     -0.2670
     41  N7N       38.1800   -1.1580   43.4020 N.am  601  NDP601     -0.0839
     42  C4N       36.8110    1.0040   42.2040 C.2   601  NDP601      0.0033
     43  C5N       36.1370    2.1040   41.6210 C.2   601  NDP601      0.0157
     44  C6N       36.4080    3.3950   42.0510 C.2   601  NDP601      0.0633
     45  P2B       31.9720   16.6040   46.2330 P.3   601  NDP601      0.5328
     46  O1X       30.8890   17.1690   45.2220 O.2   601  NDP601     -0.2224
     47  O2X       32.0680   17.2990   47.5440 O.3   601  NDP601     -0.1145
     48  O3X       33.4110   16.5870   45.4910 O.3   601  NDP601     -0.1145
@<TRIPOS>BOND
     1    26    24    2
     2    43    44    2
     3    43    42    1
     4    34    33    1
     5     3     1    2
     6    44    36    1
     7    42    38    2
     8     2     1    1
     9     1    23    1
    10     1     4    1
    11    24    23    1
    12    24    27    1
    13    24    25    1
    14    33    31    1
    15    33    35    1
    16    27    28    1
    17    36    35    1
    18    36    37    1
    19    38    37    1
    20    38    39    1
    21    41    39   am
    22    31    32    1
    23    31    29    1
    24    35    30    1
    25     4     5    1
    26    39    40    2
    27    28    29    1
    28    30    29    1
    29     5     6    1
    30    46    45    2
    31     8     9    1
    32     8     6    1
    33     8    10    1
    34    48    45    1
    35     6     7    1
    36    10    11    1
    37    10    12    1
    38    45    11    1
    39    45    47    1
    40     7    12    1
    41    12    13    1
    42    14    13    1
    43    14    15    1
    44    13    22    1
    45    15    16    2
    46    22    16    1
    47    22    21    2
    48    16    17    1
    49    21    20    1
    50    17    18    1
    51    17    19    2
    52    20    19    1
