@<TRIPOS>MOLECULE
3twp_PRP_A_1.pdb
 22 22 0 0 0
SMALL
GASTEIGER

@<TRIPOS>ATOM
      1  C1        38.7230   -5.0960   36.6780 C.3   401  PRP401      0.2742
      2  C2        39.3610   -5.7820   35.4620 C.3   401  PRP401      0.2408
      3  C3        38.1590   -6.4890   34.8230 C.3   401  PRP401      0.2167
      4  C4        37.2210   -6.7440   36.0170 C.3   401  PRP401      0.1808
      5  C5        37.1600   -8.2410   36.2770 C.3   401  PRP401      0.1859
      6  O1        37.9860   -3.9910   36.1920 O.3   401  PRP401     -0.2857
      7  O2        39.9030   -4.8340   34.5370 O.3   401  PRP401     -0.2149
      8  O3        37.4740   -5.6430   33.8770 O.3   401  PRP401     -0.2175
      9  O4        37.8610   -6.1360   37.1740 O.3   401  PRP401     -0.3255
     10  O5        38.4960   -8.7790   36.1550 O.3   401  PRP401     -0.2675
     11  P         38.6910  -10.3800   36.1610 P.3   401  PRP401      0.5327
     12  O1P       37.8700  -10.8410   37.4420 O.3   401  PRP401     -0.1145
     13  O2P       38.0400  -10.9620   34.8280 O.2   401  PRP401     -0.2224
     14  O3P       40.1240  -10.7780   36.2470 O.3   401  PRP401     -0.1145
     15  PA        36.9040   -3.0330   36.9580 P.3   401  PRP401      0.2249
     16  O1A       37.1020   -2.9430   38.4940 O.3   401  PRP401     -0.4370
     17  O2A       37.1160   -1.7280   36.3030 O.2   401  PRP401     -0.5169
     18  O3A       35.5180   -3.6520   36.4800 O.3   401  PRP401     -0.2260
     19  PB        34.2020   -3.9500   37.3090 P.3   401  PRP401      0.5373
     20  O1B       33.1680   -2.9360   36.7130 O.3   401  PRP401     -0.1143
     21  O2B       33.8310   -5.3490   36.6350 O.2   401  PRP401     -0.2221
     22  O3B       34.3560   -3.9700   38.7740 O.3   401  PRP401     -0.1143
@<TRIPOS>BOND
     1     8     3    1
     2     7     2    1
     3     3     2    1
     4     3     4    1
     5    13    11    2
     6     2     1    1
     7     4     5    1
     8     4     9    1
     9    10    11    1
    10    10     5    1
    11    11    14    1
    12    11    12    1
    13     6     1    1
    14     6    15    1
    15    17    15    2
    16    18    15    1
    17    18    19    1
    18    21    19    2
    19     1     9    1
    20    20    19    1
    21    15    16    1
    22    19    22    1
