@<TRIPOS>MOLECULE
3tx6_ENO_A_1.pdb
 13 13 0 0 0
SMALL
GASTEIGER

@<TRIPOS>ATOM
      1  O4        11.1650   45.9730   17.7830 O.2   386  ENO386     -0.2839
      2  C9        11.2260   43.3980   20.0190 C.ar  386  ENO386     -0.0005
      3  C8        11.6720   43.2240   21.3130 C.ar  386  ENO386      0.0417
      4  C7        13.0440   43.1640   21.6040 C.ar  386  ENO386      0.1957
      5  C6        13.9420   43.3810   20.5770 C.ar  386  ENO386      0.0417
      6  C5        13.5080   43.5390   19.2640 C.ar  386  ENO386     -0.0005
      7  C4        12.1340   43.5650   18.9680 C.ar  386  ENO386     -0.0140
      8  O3        13.4360   43.0120   22.9280 O.3   386  ENO386     -0.2866
      9  C3        11.6500   43.6670   17.5490 C.3   386  ENO386      0.1025
     10  C2        11.2530   44.9930   17.0240 C.2   386  ENO386      0.2564
     11  C1        10.8520   45.0630   15.6260 C.2   386  ENO386      0.4222
     12  O2        10.4630   46.1660   15.1890 O.co2 386  ENO386     -0.2373
     13  O1        10.9050   44.0390   14.8810 O.co2 386  ENO386     -0.2373
@<TRIPOS>BOND
     1    13    11   ar
     2    12    11   ar
     3    11    10    1
     4    10     9    1
     5    10     1    2
     6     9     7    1
     7     7     6   ar
     8     7     2   ar
     9     6     5   ar
    10     2     3   ar
    11     5     4   ar
    12     3     4   ar
    13     4     8    1
