@<TRIPOS>MOLECULE
3tx9_FMN_A_1.pdb
 31 33 0 0 0
SMALL
GASTEIGER

@<TRIPOS>ATOM
      1  N1         3.3960  -35.7580  -10.0410 N.2   401  FMN401     -0.2887
      2  C2         2.6310  -35.0120   -9.1780 C.1   401  FMN401      0.3669
      3  O2         3.1050  -33.9840   -8.7030 O.2   401  FMN401     -0.1744
      4  N3         1.3500  -35.4140   -8.8510 N.2   401  FMN401     -0.2300
      5  C4         0.8440  -36.5810   -9.3890 C.1   401  FMN401      0.2513
      6  O4        -0.2970  -36.9440   -9.0820 O.2   401  FMN401     -0.2057
      7  C4A        1.6170  -37.3360  -10.2660 C.2   401  FMN401      0.2706
      8  N5         1.1360  -38.5020  -10.8360 N.2   401  FMN401     -0.3841
      9  C5A        1.9230  -39.2530  -11.6950 C.2   401  FMN401      0.1452
     10  C6         1.4330  -40.4320  -12.2580 C.2   401  FMN401      0.0252
     11  C7         2.2230  -41.1840  -13.1320 C.2   401  FMN401     -0.0375
     12  C7M        1.7070  -42.4600  -13.7410 C.3   401  FMN401      0.0268
     13  C8         3.5060  -40.7430  -13.4370 C.3   401  FMN401      0.0417
     14  C8M        4.3740  -41.5420  -14.3670 C.3   401  FMN401      0.0091
     15  C9         3.9900  -39.5650  -12.8750 C.2   401  FMN401     -0.0049
     16  C9A        3.2080  -38.8180  -11.9980 C.2   401  FMN401      0.0795
     17  N10        3.6810  -37.6340  -11.4380 N.pl3 401  FMN401     -0.2545
     18  C10        2.8910  -36.9110  -10.5850 C.2   401  FMN401      0.2449
     19  C1'        5.0810  -37.1270  -11.6950 C.3   401  FMN401      0.1336
     20  C2'        6.0150  -37.9500  -10.7680 C.3   401  FMN401      0.2048
     21  O2'        5.8400  -37.6200   -9.3900 O.3   401  FMN401     -0.2185
     22  C3'        7.5030  -37.8010  -11.0810 C.3   401  FMN401      0.2165
     23  O3'        7.8520  -36.4300  -10.9840 O.3   401  FMN401     -0.2175
     24  C4'        7.8660  -38.3140  -12.4740 C.3   401  FMN401      0.2147
     25  O4'        7.4180  -39.6430  -12.6460 O.3   401  FMN401     -0.2176
     26  C5'        9.3770  -38.2950  -12.7320 C.3   401  FMN401      0.1892
     27  O5'        9.9900  -39.2170  -11.8680 O.3   401  FMN401     -0.2674
     28  P         10.4710  -40.6790  -12.3540 P.3   401  FMN401      0.5327
     29  O1P       11.3990  -40.5740  -13.5470 O.2   401  FMN401     -0.2224
     30  O2P        9.2620  -41.5110  -12.7390 O.3   401  FMN401     -0.1145
     31  O3P       11.1840  -41.3070  -11.1710 O.3   401  FMN401     -0.1145
@<TRIPOS>BOND
     1    14    13    1
     2    12    11    1
     3    29    28    2
     4    13    11    1
     5    13    15    1
     6    11    10    2
     7    15    16    2
     8    30    28    1
     9    26    24    1
    10    26    27    1
    11    25    24    1
    12    24    22    1
    13    28    27    1
    14    28    31    1
    15    10     9    1
    16    16     9    1
    17    16    17    1
    18     9     8    2
    19    19    17    1
    20    19    20    1
    21    17    18    1
    22    22    23    1
    23    22    20    1
    24     8     7    2
    25    20    21    1
    26    18     7    1
    27    18     1    2
    28     7     5    1
    29     1     2    2
    30     5     6    2
    31     5     4    2
    32     2     4    2
    33     2     3    2
