@<TRIPOS>MOLECULE
3txt_DFP_A_1.pdb
 10 9 0 0 0
SMALL
GASTEIGER

@<TRIPOS>ATOM
      1  C1         0.6550   44.8300   32.8670 C.3     1  DFP1        0.1236
      2  C2         1.3840   44.1700   33.9940 C.3     1  DFP1        0.0325
      3  C3         1.3100   44.4340   31.5830 C.3     1  DFP1        0.0325
      4  C1'       -1.3630   48.4490   33.1970 C.3     1  DFP1        0.1236
      5  C2'       -1.1940   48.7710   31.7520 C.3     1  DFP1        0.0325
      6  C3'       -2.2360   49.4900   33.8210 C.3     1  DFP1        0.0325
      7  P          0.5450   47.0660   34.2470 P.3     1  DFP1        0.3659
      8  O1P        0.6070   46.2160   32.9400 O.3     1  DFP1       -0.2993
      9  O2P       -0.1210   48.4200   33.8260 O.3     1  DFP1       -0.2993
     10  O3P        1.9290   47.3810   34.7680 O.3     1  DFP1       -0.1446
@<TRIPOS>BOND
     1     3     1    1
     2     5     4    1
     3     1     8    1
     4     1     2    1
     5     8     7    1
     6     4     6    1
     7     4     9    1
     8     9     7    1
     9     7    10    1
