@<TRIPOS>MOLECULE
3txz_FMN_A_1.pdb
 31 33 0 0 0
SMALL
GASTEIGER

@<TRIPOS>ATOM
      1  N1         3.2330  -35.7060  -10.2740 N.2   401  FMN401     -0.2890
      2  C2         2.4680  -34.9850   -9.3920 C.1   401  FMN401      0.3669
      3  O2         2.9110  -33.9510   -8.9190 O.2   401  FMN401     -0.1744
      4  N3         1.2050  -35.4090   -9.0460 N.2   401  FMN401     -0.2300
      5  C4         0.7100  -36.5800   -9.5680 C.1   401  FMN401      0.2513
      6  O4        -0.4170  -36.9490   -9.2280 O.2   401  FMN401     -0.2057
      7  C4A        1.4820  -37.3210  -10.4690 C.2   401  FMN401      0.2700
      8  N5         1.0090  -38.4950  -11.0270 N.2   401  FMN401     -0.3878
      9  C5A        1.7960  -39.2310  -11.9020 C.2   401  FMN401      0.1320
     10  C6         1.3240  -40.4230  -12.4510 C.2   401  FMN401      0.0250
     11  C7         2.1130  -41.1560  -13.3320 C.2   401  FMN401     -0.0238
     12  C7M        1.6290  -42.4510  -13.9230 C.3   401  FMN401      0.0308
     13  C8         3.3780  -40.6970  -13.6700 C.2   401  FMN401     -0.0280
     14  C8M        4.2270  -41.4810  -14.6220 C.3   401  FMN401      0.0304
     15  C9         3.8530  -39.5050  -13.1230 C.2   401  FMN401     -0.0041
     16  C9A        3.0670  -38.7710  -12.2370 C.3   401  FMN401      0.1497
     17  N10        3.5370  -37.5810  -11.6980 N.pl3 401  FMN401     -0.2691
     18  C10        2.7530  -36.8750  -10.8090 C.2   401  FMN401      0.2416
     19  C1'        4.9330  -37.0990  -12.0220 C.3   401  FMN401      0.1294
     20  C2'        5.9100  -37.8640  -11.0980 C.3   401  FMN401      0.2044
     21  O2'        5.6980  -37.5340   -9.7390 O.3   401  FMN401     -0.2185
     22  C3'        7.3910  -37.6360  -11.4200 C.3   401  FMN401      0.2164
     23  O3'        7.6860  -36.2530  -11.3070 O.3   401  FMN401     -0.2175
     24  C4'        7.7300  -38.1540  -12.8190 C.3   401  FMN401      0.2147
     25  O4'        7.1430  -39.4230  -13.0430 O.3   401  FMN401     -0.2176
     26  C5'        9.2330  -38.2440  -13.0650 C.3   401  FMN401      0.1892
     27  O5'        9.8270  -39.1120  -12.1120 O.3   401  FMN401     -0.2674
     28  P         10.2840  -40.5820  -12.5680 P.3   401  FMN401      0.5327
     29  O1P       11.1560  -40.5050  -13.7930 O.2   401  FMN401     -0.2224
     30  O2P        9.0210  -41.3730  -12.8860 O.3   401  FMN401     -0.1145
     31  O3P       11.0210  -41.1810  -11.3980 O.3   401  FMN401     -0.1145
@<TRIPOS>BOND
     1    14    13    1
     2    12    11    1
     3    29    28    2
     4    13    11    1
     5    13    15    2
     6    11    10    2
     7    15    16    1
     8    26    24    1
     9    26    27    1
    10    25    24    1
    11    30    28    1
    12    24    22    1
    13    28    27    1
    14    28    31    1
    15    10     9    1
    16    16     9    1
    17    16    17    1
    18    19    17    1
    19    19    20    1
    20     9     8    2
    21    17    18    1
    22    22    23    1
    23    22    20    1
    24    20    21    1
    25     8     7    2
    26    18     7    1
    27    18     1    2
    28     7     5    1
    29     1     2    2
    30     5     6    2
    31     5     4    2
    32     2     4    2
    33     2     3    2
