@<TRIPOS>MOLECULE
3txz_07V_A_1.pdb
 11 11 0 0 0
SMALL
GASTEIGER

@<TRIPOS>ATOM
      1  CAG       -1.1410  -36.4420  -12.9100 C.3   402  07V402      0.0731
      2  CAJ        0.0550  -35.5610  -12.7730 C.2   402  07V402      0.1691
      3  OAD        0.0770  -34.6620  -11.9420 O.2   402  07V402     -0.2917
      4  CAI        1.2280  -35.8160  -13.6680 C.2   402  07V402      0.0086
      5  CAC        2.4580  -34.9780  -13.5730 C.3   402  07V402      0.0337
      6  CAE        1.2120  -36.9830  -14.6030 C.2   402  07V402     -0.0272
      7  CAF       -0.0530  -37.7470  -14.7690 C.3   402  07V402      0.0303
      8  CAK       -1.2510  -36.9590  -14.3210 C.3   402  07V402      0.0303
      9  CAH       -2.4990  -37.7960  -14.4630 C.2   402  07V402     -0.0435
     10  CAB       -3.8020  -37.1460  -14.1850 C.3   402  07V402      0.0264
     11  CAA       -2.4550  -38.9270  -15.2260 C.2   402  07V402     -0.0091
@<TRIPOS>BOND
     1    11     9    2
     2     7     6    1
     3     7     8    1
     4     6     4    2
     5     9     8    1
     6     9    10    1
     7     8     1    1
     8     4     5    1
     9     4     2    1
    10     1     2    1
    11     2     3    2
