@<TRIPOS>MOLECULE
3ty0_082_A_1.pdb
 36 41 0 0 0
SMALL
GASTEIGER

@<TRIPOS>ATOM
      1  C11       18.2580    5.0890   15.2170 C.ar    1  0821        0.0016
      2  C10       19.0460    5.2010   14.0880 C.ar    1  0821        0.0016
      3  C21       18.5860    8.1050    8.5420 C.ar    1  0821       -0.0004
      4  C2        12.4090    3.2260   13.0600 C.ar    1  0821        0.0094
      5  C20       17.7500    9.1820    8.7610 C.ar    1  0821        0.0002
      6  C22       18.2610    6.8550    9.0270 C.ar    1  0821       -0.0024
      7  C12       16.8800    5.0650   15.1180 C.ar    1  0821        0.0192
      8  C13       18.4940    5.2950   12.8240 C.ar    1  0821        0.0188
      9  C3        11.2010    2.5870   13.2610 C.ar    1  0821        0.0372
     10  C18       16.2580    7.7610    9.9410 C.ar    1  0821       -0.0022
     11  C5        10.8540    3.6360   15.4070 C.ar    1  0821        0.0771
     12  C1        12.8410    4.0930   14.0540 C.ar    1  0821        0.0751
     13  C19       16.5650    9.0210    9.4590 C.ar    1  0821        0.0304
     14  C17       17.0910    6.6770    9.7360 C.ar    1  0821        0.0004
     15  C8        16.3460    5.1650   13.8520 C.ar    1  0821        0.0855
     16  C7        17.1250    5.2750   12.7390 C.ar    1  0821        0.0804
     17  C6        12.0580    4.2570   15.1760 C.ar    1  0821        0.1814
     18  C4        10.4470    2.7890   14.3970 C.ar    1  0821        0.1419
     19  C14       13.9580    4.9480   14.2790 C.ar    1  0821        0.1928
     20  C24       14.5640   10.0290    8.6890 C.1     1  0821        0.2344
     21  C25       15.9940   11.4750    7.9960 C.1     1  0821        0.3841
     22  C9        14.9590    5.2960   12.0340 C.ar    1  0821        0.3369
     23  C23       15.5920   10.1370    9.7710 C.3     1  0821        0.2689
     24  C26       15.0610   10.2080   11.1760 C.3     1  0821        0.0683
     25  C15        8.8540    2.1210   15.8730 C.3     1  0821        0.2525
     26  C16       16.7400    5.3240   10.2570 C.3     1  0821        0.1373
     27  N3        13.8610    5.5710   15.4600 N.ar    1  0821       -0.0587
     28  N4        14.9310   10.7610    7.6490 N.2     1  0821       -0.2290
     29  N1        15.0220    5.1570   13.4120 N.ar    1  0821       -0.2407
     30  N2        16.2810    5.3560   11.6260 N.ar    1  0821       -0.2755
     31  O6        13.6350    9.2360    8.7200 O.2     1  0821       -0.2095
     32  O5        16.5390   12.3330    7.3210 O.2     1  0821       -0.1686
     33  O1        13.9640    5.3700   11.3280 O.2     1  0821       -0.2459
     34  O2        12.6700    5.1290   16.0230 O.2     1  0821       -0.3518
     35  O4        16.2970   11.2730    9.3090 O.3     1  0821       -0.3793
     36  O3         9.2430    2.1080   14.5010 O.3     1  0821       -0.4713
@<TRIPOS>BOND
     1    32    21    2
     2    28    21    2
     3    28    20    2
     4    21    35    1
     5     3     5   ar
     6     3     6   ar
     7    20    31    2
     8    20    23    1
     9     5    13   ar
    10     6    14   ar
    11    35    23    1
    12    13    23    1
    13    13    10   ar
    14    14    10   ar
    15    14    26    1
    16    23    24    1
    17    26    30    1
    18    33    22    2
    19    30    22   ar
    20    30    16   ar
    21    22    29   ar
    22    16     8   ar
    23    16    15   ar
    24     8     2   ar
    25     4     9   ar
    26     4    12   ar
    27     9    18   ar
    28    29    15   ar
    29    29    19    1
    30    15     7   ar
    31    12    19   ar
    32    12    17   ar
    33     2     1   ar
    34    19    27   ar
    35    18    36    1
    36    18    11   ar
    37    36    25    1
    38     7     1   ar
    39    17    11   ar
    40    17    34   ar
    41    27    34   ar
