@<TRIPOS>MOLECULE
3ty3_GGG_A_1.pdb
 13 12 0 0 0
SMALL
GASTEIGER

@<TRIPOS>ATOM
      1  N1        -7.8040    1.0460    8.9660 N.3   363  GGG363     -0.1210
      2  CA1       -8.2520    0.5880   10.3190 C.3   363  GGG363      0.1956
      3  C1        -9.3820   -0.4380   10.2550 C.2   363  GGG363      0.2612
      4  O1        -9.9180   -0.6870    9.1860 O.2   363  GGG363     -0.2717
      5  N2        -9.7220   -1.0320   11.4010 N.am  363  GGG363     -0.1942
      6  CA2      -10.7930   -2.0260   11.4710 C.3   363  GGG363      0.2014
      7  C2       -10.2980   -3.4640   11.4340 C.2   363  GGG363      0.2640
      8  O2       -11.0960   -4.4110   11.5290 O.2   363  GGG363     -0.2714
      9  N3        -8.9870   -3.6360   11.3200 N.am  363  GGG363     -0.1917
     10  CA3       -8.3800   -4.9690   11.2360 C.3   363  GGG363      0.2285
     11  C3        -7.2330   -5.1570   12.2090 C.2   363  GGG363      0.3865
     12  O3        -6.1870   -5.6830   11.8250 O.co2 363  GGG363     -0.2437
     13  O         -7.3190   -4.7680   13.3880 O.co2 363  GGG363     -0.2437
@<TRIPOS>BOND
     1     1     2    1
     2     4     3    2
     3     3     2    1
     4     3     5   am
     5    10     9    1
     6    10    11    1
     7     9     7   am
     8     5     6    1
     9     7     6    1
    10     7     8    2
    11    12    11   ar
    12    11    13   ar
