@<TRIPOS>MOLECULE
3ty5_ADP_B_1.pdb
 27 29 0 0 0
SMALL
GASTEIGER

@<TRIPOS>ATOM
      1  PB        -5.9130   18.1160   -8.8610 P.3   1001  ADP1001     0.5373
      2  O1B       -4.6380   17.3220   -8.6070 O.3   1001  ADP1001    -0.1143
      3  O2B       -6.3970   18.0200  -10.2940 O.2   1001  ADP1001    -0.2221
      4  O3B       -6.9800   17.6920   -7.7950 O.3   1001  ADP1001    -0.1143
      5  PA        -4.5270   20.8910   -9.4350 P.3   1001  ADP1001     0.2231
      6  O1A       -3.9560   21.9220   -8.4440 O.3   1001  ADP1001    -0.4370
      7  O2A       -3.6490   20.3030  -10.5660 O.2   1001  ADP1001    -0.5169
      8  O3A       -5.5510   19.7680   -8.6860 O.3   1001  ADP1001    -0.2261
      9  O5'       -5.5120   21.9000  -10.2040 O.3   1001  ADP1001    -0.3111
     10  C5'       -6.3470   21.5040  -11.2870 C.3   1001  ADP1001     0.1813
     11  C4'       -7.3710   22.6110  -11.1440 C.3   1001  ADP1001     0.1821
     12  O4'       -7.2540   23.6290  -12.1550 O.3   1001  ADP1001    -0.3135
     13  C3'       -8.8430   22.2060  -11.0160 C.3   1001  ADP1001     0.2184
     14  O3'       -9.1870   21.6320   -9.7240 O.3   1001  ADP1001    -0.2174
     15  C2'       -9.4390   23.5960  -11.1430 C.3   1001  ADP1001     0.2570
     16  O2'       -9.6520   23.9480   -9.7490 O.3   1001  ADP1001    -0.2130
     17  C1'       -8.3920   24.4940  -11.9210 C.3   1001  ADP1001     0.3186
     18  N9        -8.7960   25.3040  -13.1800 N.pl3 1001  ADP1001    -0.1439
     19  C8        -8.3070   26.5650  -13.4260 C.3   1001  ADP1001     0.3377
     20  N7        -8.8400   27.0910  -14.5820 N.2   1001  ADP1001    -0.2095
     21  C5        -9.6810   26.1700  -15.1770 C.2   1001  ADP1001     0.2526
     22  C6       -10.5270   26.1040  -16.4600 C.2   1001  ADP1001     0.4393
     23  N6       -10.6230   27.1250  -17.3820 N.pl3 1001  ADP1001     0.2180
     24  N1       -11.2610   24.8950  -16.5900 N.2   1001  ADP1001     0.0021
     25  C2       -11.2050   23.8230  -15.6830 C.3   1001  ADP1001     0.5254
     26  N3       -10.4310   23.8180  -14.5610 N.2   1001  ADP1001    -0.0055
     27  C4        -9.6810   24.9620  -14.2180 C.2   1001  ADP1001     0.3518
@<TRIPOS>BOND
     1    23    22    1
     2    24    22    2
     3    24    25    1
     4    22    21    1
     5    25    26    1
     6    21    20    2
     7    21    27    1
     8    20    19    1
     9    26    27    2
    10    27    18    1
    11    19    18    1
    12    18    17    1
    13    12    17    1
    14    12    11    1
    15    17    15    1
    16    10    11    1
    17    10     9    1
    18    11    13    1
    19    15    13    1
    20    15    16    1
    21    13    14    1
    22     7     5    2
    23     3     1    2
    24     9     5    1
    25     5     8    1
    26     5     6    1
    27     1     8    1
    28     1     2    1
    29     1     4    1
