@<TRIPOS>MOLECULE
3ty5_ATP_A_1.pdb
 31 33 0 0 0
SMALL
GASTEIGER

@<TRIPOS>ATOM
      1  PG        16.4950   15.3950   26.3030 P.3   1001  ATP1001     0.5373
      2  O1G       16.0840   15.6820   27.8000 O.3   1001  ATP1001    -0.1143
      3  O2G       16.0010   16.3250   25.1030 O.2   1001  ATP1001    -0.2221
      4  O3G       17.9440   14.9420   26.3350 O.3   1001  ATP1001    -0.1143
      5  PB        15.4400   12.5560   26.1860 P.3   1001  ATP1001     0.2277
      6  O1B       13.9010   12.3810   26.0560 O.3   1001  ATP1001    -0.4368
      7  O2B       16.5290   11.8190   25.4260 O.2   1001  ATP1001    -0.5168
      8  O3B       15.9230   13.9840   25.6200 O.3   1001  ATP1001    -0.2258
      9  PA        15.7580   11.3200   28.7600 P.3   1001  ATP1001     0.2189
     10  O1A       14.4460   11.6700   29.4570 O.3   1001  ATP1001    -0.4371
     11  O2A       15.8100    9.9460   28.1590 O.2   1001  ATP1001    -0.5170
     12  O3A       15.7570   12.5560   27.7550 O.3   1001  ATP1001    -0.2700
     13  O5'       17.1560   11.4840   29.5450 O.3   1001  ATP1001    -0.3112
     14  C5'       18.2960   12.2970   29.1490 C.3   1001  ATP1001     0.1813
     15  C4'       18.2030   13.7450   29.7960 C.3   1001  ATP1001     0.1821
     16  O4'       17.7290   13.9440   31.1650 O.3   1001  ATP1001    -0.3135
     17  C3'       19.3610   14.7120   29.7060 C.3   1001  ATP1001     0.2184
     18  O3'       19.5340   14.9970   28.3900 O.3   1001  ATP1001    -0.2174
     19  C2'       18.7960   15.9990   30.3470 C.3   1001  ATP1001     0.2570
     20  O2'       17.9730   17.0260   29.6300 O.3   1001  ATP1001    -0.2130
     21  C1'       17.9270   15.3760   31.4800 C.3   1001  ATP1001     0.3186
     22  N9        18.5040   15.8680   32.7980 N.pl3 1001  ATP1001    -0.1439
     23  C8        17.6440   16.4650   33.6970 C.3   1001  ATP1001     0.3377
     24  N7        18.2960   16.8560   34.8190 N.2   1001  ATP1001    -0.2095
     25  C5        19.6010   16.5340   34.5510 C.2   1001  ATP1001     0.2526
     26  C6        20.7780   16.7320   35.3710 C.2   1001  ATP1001     0.4393
     27  N6        20.4870   17.3540   36.5970 N.pl3 1001  ATP1001     0.2180
     28  N1        21.9910   16.2950   34.8080 N.2   1001  ATP1001     0.0021
     29  C2        22.0670   15.6920   33.5860 C.3   1001  ATP1001     0.5254
     30  N3        20.9950   15.5080   32.8070 N.2   1001  ATP1001    -0.0055
     31  C4        19.7700   15.9440   33.2250 C.2   1001  ATP1001     0.3518
@<TRIPOS>BOND
     1     3     1    2
     2     7     5    2
     3     8     5    1
     4     8     1    1
     5     6     5    1
     6     5    12    1
     7     1     4    1
     8     1     2    1
     9    12     9    1
    10    11     9    2
    11    18    17    1
    12     9    10    1
    13     9    13    1
    14    14    13    1
    15    14    15    1
    16    20    19    1
    17    17    15    1
    18    17    19    1
    19    15    16    1
    20    19    21    1
    21    16    21    1
    22    21    22    1
    23    22    31    1
    24    22    23    1
    25    30    31    2
    26    30    29    1
    27    31    25    1
    28    29    28    1
    29    23    24    1
    30    25    24    2
    31    25    26    1
    32    28    26    2
    33    26    27    1
