@<TRIPOS>MOLECULE
3ty9_AMP_A_1.pdb
 22 24 0 0 0
SMALL
GASTEIGER

@<TRIPOS>ATOM
      1  P         37.4270   21.2150   11.1850 P.3   900  AMP900      0.3942
      2  O1P       38.9310   21.1920   11.0280 O.3   900  AMP900     -0.1425
      3  O2P       36.8100   20.5040   12.3650 O.3   900  AMP900     -0.1425
      4  O5'       36.7320   20.7320    9.8350 O.3   900  AMP900     -0.2926
      5  C5'       35.4270   21.1750    9.4810 C.3   900  AMP900      0.1831
      6  C4'       34.4770   21.0970   10.6490 C.3   900  AMP900      0.1822
      7  O4'       34.4420   22.3650   11.3250 O.3   900  AMP900     -0.3135
      8  C3'       33.0210   20.8330   10.2990 C.3   900  AMP900      0.2184
      9  O3'       32.7370   19.4560   10.1240 O.3   900  AMP900     -0.2174
     10  C2'       32.2400   21.4720   11.4500 C.3   900  AMP900      0.2570
     11  O2'       31.9330   20.5070   12.4420 O.3   900  AMP900     -0.2130
     12  C1'       33.2420   22.4740   12.0400 C.3   900  AMP900      0.3186
     13  N9        32.7560   23.8660   11.9450 N.pl3 900  AMP900     -0.1439
     14  C8        32.9800   24.8220   12.8680 C.3   900  AMP900      0.3377
     15  N7        32.3960   25.9980   12.5270 N.2   900  AMP900     -0.2095
     16  C5        31.7660   25.7990   11.3620 C.2   900  AMP900      0.2526
     17  C6        30.9530   26.6300   10.4520 C.2   900  AMP900      0.4393
     18  N6        30.7060   27.9290   10.7560 N.pl3 900  AMP900      0.2180
     19  N1        30.4750   26.0490    9.3240 N.2   900  AMP900      0.0021
     20  C2        30.7200   24.7610    9.0320 C.3   900  AMP900      0.5254
     21  N3        31.4520   23.9550    9.8180 N.2   900  AMP900     -0.0055
     22  C4        31.9920   24.3970   10.9800 C.2   900  AMP900      0.3518
@<TRIPOS>BOND
     1    20    19    1
     2    20    21    1
     3    19    17    2
     4     5     4    1
     5     5     6    1
     6    21    22    2
     7     4     1    1
     8     9     8    1
     9     8     6    1
    10     8    10    1
    11    17    18    1
    12    17    16    1
    13     6     7    1
    14    22    16    1
    15    22    13    1
    16     2     1    1
    17     1     3    1
    18     7    12    1
    19    16    15    2
    20    10    12    1
    21    10    11    1
    22    13    12    1
    23    13    14    1
    24    15    14    1
