@<TRIPOS>MOLECULE
3tya_78H_A_1.pdb
 23 25 0 0 0
SMALL
GASTEIGER

@<TRIPOS>ATOM
      1  O4       -80.4530   86.4850   91.7260 O.2   801  78H801     -0.2052
      2  C4       -79.4920   85.7320   92.0040 C.1   801  78H801      0.2569
      3  C5       -78.6890   85.9710   93.1230 C.2   801  78H801      0.2988
      4  N3       -79.2490   84.6310   91.1590 N.2   801  78H801     -0.2466
      5  C9       -77.6290   85.0990   93.4110 C.1   801  78H801      0.1401
      6  N5       -78.9430   87.0300   93.9290 N.2   801  78H801     -0.3839
      7  C2       -78.1550   83.8140   91.5200 C.1   801  78H801      0.2609
      8  N8       -76.8300   85.2960   94.4670 N.2   801  78H801     -0.1992
      9  N1       -77.3850   84.0450   92.6020 N.2   801  78H801     -0.2672
     10  C6       -78.1760   87.2800   95.0120 C.2   801  78H801      0.1356
     11  N2       -77.8450   82.6470   90.6680 N.pl3 801  78H801     -0.0220
     12  C7       -76.8720   86.5450   95.2270 C.3   801  78H801      0.1931
     13  C10      -78.5010   88.4540   95.8980 C.3   801  78H801      0.1683
     14  N11      -77.9660   89.7220   95.4020 N.pl3 801  78H801     -0.2303
     15  C15      -78.8630   90.7780   95.6430 C.ar  801  78H801      0.0658
     16  C16      -79.6410   90.8440   96.8040 C.ar  801  78H801      0.0163
     17  C17      -78.9570   91.7800   94.6850 C.ar  801  78H801      0.0163
     18  C18      -80.5080   91.9160   96.9940 C.ar  801  78H801      0.0079
     19  C19      -79.8230   92.8520   94.8740 C.ar  801  78H801      0.0079
     20  C20      -80.6010   92.9270   96.0280 C.ar  801  78H801      0.0799
     21  C21      -81.5360   94.0940   96.2140 C.2   801  78H801      0.3878
     22  O22      -81.6280   94.9820   95.3800 O.co2 801  78H801     -0.2406
     23  O23      -82.2810   94.1870   97.3090 O.co2 801  78H801     -0.2406
@<TRIPOS>BOND
     1    11     7    1
     2     4     7    2
     3     4     2    2
     4     7     9    2
     5     1     2    2
     6     2     3    1
     7     9     5    2
     8     3     5    1
     9     3     6    2
    10     5     8    2
    11     6    10    2
    12     8    12    1
    13    17    19   ar
    14    17    15   ar
    15    19    20   ar
    16    10    12    1
    17    10    13    1
    18    22    21   ar
    19    14    15    1
    20    14    13    1
    21    15    16   ar
    22    20    21    1
    23    20    18   ar
    24    21    23   ar
    25    16    18   ar
