@<TRIPOS>MOLECULE
3tyb_XHP_A_1.pdb
 13 14 0 0 0
SMALL
GASTEIGER

@<TRIPOS>ATOM
      1  N1       -77.7780   84.2070   92.5010 N.2   701  XHP701     -0.2672
      2  C2       -78.5330   83.9770   91.4990 C.1   701  XHP701      0.2609
      3  N2       -78.2580   82.9740   90.7150 N.pl3 701  XHP701     -0.0220
      4  N3       -79.6240   84.7450   91.2160 N.2   701  XHP701     -0.2466
      5  C4       -79.9880   85.8020   91.9740 C.1   701  XHP701      0.2569
      6  O4       -80.9760   86.4690   91.7010 O.2   701  XHP701     -0.2052
      7  N5       -79.4640   87.1090   93.9340 N.2   701  XHP701     -0.3856
      8  C6       -78.6240   87.4280   95.0640 C.2   701  XHP701      0.1143
      9  C7       -77.3780   86.6060   95.2900 C.3   701  XHP701      0.1913
     10  N8       -77.1750   85.4820   94.3800 N.2   701  XHP701     -0.1993
     11  C9       -77.9970   85.3060   93.4150 C.1   701  XHP701      0.1401
     12  C10      -79.1730   86.1450   93.1530 C.2   701  XHP701      0.2988
     13  C6A      -78.9550   88.4390   95.8750 C.3   701  XHP701      0.0637
@<TRIPOS>BOND
     1     3     2    1
     2     4     2    2
     3     4     5    2
     4     2     1    2
     5     6     5    2
     6     5    12    1
     7     1    11    2
     8    12    11    1
     9    12     7    2
    10    11    10    2
    11     7     8    2
    12    10     9    1
    13     8     9    1
    14     8    13    1
