@<TRIPOS>MOLECULE
3tyc_XHP_A_1.pdb
 13 14 0 0 0
SMALL
GASTEIGER

@<TRIPOS>ATOM
      1  N1       -76.8540   83.2720   91.7490 N.2   701  XHP701     -0.2672
      2  C2       -77.6700   83.1540   90.7600 C.1   701  XHP701      0.2609
      3  N2       -77.5010   82.1250   89.9560 N.pl3 701  XHP701     -0.0220
      4  N3       -78.7360   84.0230   90.5500 N.2   701  XHP701     -0.2466
      5  C4       -78.9800   85.1020   91.3500 C.1   701  XHP701      0.2569
      6  O4       -79.9490   85.8700   91.1260 O.2   701  XHP701     -0.2052
      7  N5       -78.2750   86.2480   93.3320 N.2   701  XHP701     -0.3856
      8  C6       -77.3740   86.4900   94.4470 C.2   701  XHP701      0.1143
      9  C7       -76.1930   85.5510   94.6400 C.3   701  XHP701      0.1913
     10  N8       -76.0920   84.4430   93.6670 N.2   701  XHP701     -0.1993
     11  C9       -76.9660   84.3400   92.7070 C.1   701  XHP701      0.1401
     12  C10      -78.0850   85.3010   92.5100 C.2   701  XHP701      0.2988
     13  C6A      -77.6320   87.5650   95.2890 C.3   701  XHP701      0.0637
@<TRIPOS>BOND
     1     3     2    1
     2     4     2    2
     3     4     5    2
     4     2     1    2
     5     6     5    2
     6     5    12    1
     7     1    11    2
     8    12    11    1
     9    12     7    2
    10    11    10    2
    11     7     8    2
    12    10     9    1
    13     8     9    1
    14     8    13    1
