@<TRIPOS>MOLECULE
3tyd_XHP_A_1.pdb
 13 14 0 0 0
SMALL
GASTEIGER

@<TRIPOS>ATOM
      1  N1       -78.6590   85.1500   92.2400 N.2   801  XHP801     -0.2672
      2  C2       -79.4590   84.9920   91.2380 C.1   801  XHP801      0.2609
      3  N2       -79.2450   84.0050   90.4190 N.pl3 801  XHP801     -0.0220
      4  N3       -80.5240   85.8200   90.9790 N.2   801  XHP801     -0.2466
      5  C4       -80.8330   86.8700   91.7670 C.1   801  XHP801      0.2569
      6  O4       -81.7990   87.5650   91.4960 O.2   801  XHP801     -0.2052
      7  N5       -80.2380   88.0720   93.7620 N.2   801  XHP801     -0.3856
      8  C6       -79.3860   88.3090   94.8870 C.2   801  XHP801      0.1143
      9  C7       -78.1990   87.4390   95.1790 C.3   801  XHP801      0.1913
     10  N8       -78.0670   86.3750   94.1860 N.2   801  XHP801     -0.1993
     11  C9       -78.8630   86.2220   93.1910 C.1   801  XHP801      0.1401
     12  C10      -79.9950   87.1250   92.9570 C.2   801  XHP801      0.2988
     13  C6A      -79.6610   89.3310   95.6800 C.3   801  XHP801      0.0637
@<TRIPOS>BOND
     1     3     2    1
     2     4     2    2
     3     4     5    2
     4     2     1    2
     5     6     5    2
     6     5    12    1
     7     1    11    2
     8    12    11    1
     9    12     7    2
    10    11    10    2
    11     7     8    2
    12    10     9    1
    13     8     9    1
    14     8    13    1
