@<TRIPOS>MOLECULE
3tye_XTZ_A_1.pdb
 29 32 0 0 0
SMALL
GASTEIGER

@<TRIPOS>ATOM
      1  O3       -79.3570   85.5520   91.8520 O.2   801  XTZ801     -0.2052
      2  C16      -78.4860   84.7350   92.1730 C.1   801  XTZ801      0.2569
      3  N2       -78.2910   83.6570   91.4130 N.2   801  XTZ801     -0.2466
      4  C3       -77.6680   84.9130   93.3940 C.2   801  XTZ801      0.2988
      5  N4       -77.7990   85.9650   94.2340 N.2   801  XTZ801     -0.3839
      6  C4       -76.9950   86.0740   95.3210 C.2   801  XTZ801      0.1356
      7  C15      -75.9560   85.0190   95.6600 C.3   801  XTZ801      0.1931
      8  N8       -75.8720   83.9050   94.7170 N.2   801  XTZ801     -0.1992
      9  C2       -76.6670   83.8490   93.6500 C.1   801  XTZ801      0.1401
     10  N3       -76.5740   82.8190   92.7850 N.2   801  XTZ801     -0.2672
     11  C1       -77.3640   82.7290   91.6950 C.1   801  XTZ801      0.2609
     12  N1       -77.2160   81.6690   90.8660 N.pl3 801  XTZ801     -0.0220
     13  C5       -77.1450   87.2110   96.3110 C.3   801  XTZ801      0.1683
     14  N5       -76.6770   88.5340   95.9770 N.pl3 801  XTZ801     -0.2303
     15  C6       -77.5010   89.6120   96.0860 C.ar  801  XTZ801      0.0659
     16  C14      -77.3900   90.5890   95.0980 C.ar  801  XTZ801      0.0175
     17  C13      -78.1880   91.7320   95.1150 C.ar  801  XTZ801      0.0216
     18  C9       -79.1260   91.9350   96.1300 C.ar  801  XTZ801      0.1272
     19  C8       -79.2350   90.9430   97.1350 C.ar  801  XTZ801      0.0216
     20  C7       -78.4330   89.7870   97.1220 C.ar  801  XTZ801      0.0175
     21  S1       -80.0240   93.2880   96.0790 S.O2  801  XTZ801      0.0947
     22  O1       -81.0970   93.2240   97.0320 O.2   801  XTZ801     -0.1482
     23  O2       -80.5930   93.4610   94.7590 O.2   801  XTZ801     -0.1482
     24  N6       -79.1280   94.5770   96.4070 N.pl3 801  XTZ801     -0.0702
     25  C10      -78.6810   94.8530   97.6560 C.ar  801  XTZ801      0.2025
     26  S2       -77.8940   96.3390   98.0310 S.2   801  XTZ801     -0.0478
     27  C12      -77.6770   95.8690   99.6930 C.ar  801  XTZ801      0.0589
     28  C11      -78.2280   94.5840   99.8490 C.ar  801  XTZ801      0.1080
     29  N7       -78.7830   94.0190   98.7250 N.ar  801  XTZ801     -0.2199
@<TRIPOS>BOND
     1    12    11    1
     2     3    11    2
     3     3     2    2
     4    11    10    2
     5     1     2    2
     6     2     4    1
     7    10     9    2
     8     4     9    1
     9     4     5    2
    10     9     8    2
    11     5     6    2
    12     8     7    1
    13    23    21    2
    14    16    17   ar
    15    16    15   ar
    16    17    18   ar
    17     6     7    1
    18     6    13    1
    19    14    15    1
    20    14    13    1
    21    21    18    1
    22    21    24    1
    23    21    22    2
    24    15    20   ar
    25    18    19   ar
    26    24    25    1
    27    20    19   ar
    28    25    26   ar
    29    25    29   ar
    30    26    27   ar
    31    29    28   ar
    32    27    28   ar
