@<TRIPOS>MOLECULE
3tye_YTZ_B_1.pdb
 16 17 0 0 0
SMALL
GASTEIGER

@<TRIPOS>ATOM
      1  O2       -56.0580   51.6320  136.6700 O.2   902  YTZ902     -0.1482
      2  S1       -56.0980   52.2180  135.3590 S.O2  902  YTZ902      0.0947
      3  O1       -57.1360   51.5600  134.6110 O.2   902  YTZ902     -0.1482
      4  C4       -56.4010   53.7760  135.4680 C.ar  902  YTZ902      0.1272
      5  C3       -55.7270   54.5230  136.4340 C.ar  902  YTZ902      0.0216
      6  C2       -55.9640   55.8880  136.5290 C.ar  902  YTZ902      0.0194
      7  C8       -57.3020   54.3740  134.5880 C.ar  902  YTZ902      0.0216
      8  C9       -57.5360   55.7380  134.6890 C.ar  902  YTZ902      0.0194
      9  C1       -56.8670   56.4870  135.6580 C.ar  902  YTZ902      0.0892
     10  N1       -57.0900   57.8170  135.7570 N.pl3 902  YTZ902     -0.1281
     11  N2       -54.6500   52.0280  134.6460 N.pl3 902  YTZ902     -0.0702
     12  C5       -53.9660   52.9220  133.8480 C.ar  902  YTZ902      0.2025
     13  S2       -53.2160   52.4910  132.3430 S.2   902  YTZ902     -0.0478
     14  C7       -52.6180   54.0990  132.0700 C.ar  902  YTZ902      0.0589
     15  C6       -53.0230   54.8710  133.1640 C.ar  902  YTZ902      0.1080
     16  N3       -53.7480   54.2310  134.1420 N.ar  902  YTZ902     -0.2199
@<TRIPOS>BOND
     1    14    13   ar
     2    14    15   ar
     3    13    12   ar
     4    15    16   ar
     5    12    16   ar
     6    12    11    1
     7     7     8   ar
     8     7     4   ar
     9     3     2    2
    10    11     2    1
    11     8     9   ar
    12     2     4    1
    13     2     1    2
    14     4     5   ar
    15     9    10    1
    16     9     6   ar
    17     5     6   ar
