@<TRIPOS>MOLECULE
3tye_XHP_B_1.pdb
 13 14 0 0 0
SMALL
GASTEIGER

@<TRIPOS>ATOM
      1  N1       -63.0370   60.7190  138.8890 N.2   901  XHP901     -0.2672
      2  C2       -63.7050   60.1670  139.8310 C.1   901  XHP901      0.2609
      3  N2       -64.4330   60.9170  140.6040 N.pl3 901  XHP901     -0.0220
      4  N3       -63.6850   58.8190  140.0430 N.2   901  XHP901     -0.2466
      5  C4       -62.9580   57.9610  139.2900 C.1   901  XHP901      0.2569
      6  O4       -62.9520   56.7530  139.5030 O.2   901  XHP901     -0.2052
      7  N5       -61.4700   57.7460  137.4570 N.2   901  XHP901     -0.3856
      8  C6       -60.6870   58.3060  136.3860 C.2   901  XHP901      0.1143
      9  C7       -60.6780   59.8000  136.1250 C.3   901  XHP901      0.1913
     10  N8       -61.5380   60.5340  137.0550 N.2   901  XHP901     -0.1993
     11  C9       -62.2050   59.9520  137.9850 C.1   901  XHP901      0.1401
     12  C10      -62.1630   58.5040  138.1930 C.2   901  XHP901      0.2988
     13  C6A      -59.9690   57.4760  135.6250 C.3   901  XHP901      0.0637
@<TRIPOS>BOND
     1    13     8    1
     2     9     8    1
     3     9    10    1
     4     8     7    2
     5    10    11    2
     6     7    12    2
     7    11    12    1
     8    11     1    2
     9    12     5    1
    10     1     2    2
    11     5     6    2
    12     5     4    2
    13     2     4    2
    14     2     3    1
