@<TRIPOS>MOLECULE
3tyg_MAN_A_1.pdb
 11 11 0 0 0
SMALL
GASTEIGER

@<TRIPOS>ATOM
      1  C1         9.7260   -3.2790   12.6120 C.3   215  MAN215      0.1777
      2  C2         9.7330   -4.7180   12.0920 C.3   215  MAN215      0.2141
      3  C3        10.4880   -4.8340   10.7670 C.3   215  MAN215      0.2173
      4  C4        10.0470   -3.7870    9.7490 C.3   215  MAN215      0.2142
      5  C5        10.0580   -2.4010   10.3850 C.3   215  MAN215      0.1810
      6  C6         9.5240   -1.3120    9.4880 C.3   215  MAN215      0.2141
      7  O2         8.4050   -5.2020   11.9580 O.3   215  MAN215     -0.2176
      8  O3        10.3340   -6.1360   10.2150 O.3   215  MAN215     -0.2175
      9  O4        10.9550   -3.8000    8.6530 O.3   215  MAN215     -0.2176
     10  O5         9.2520   -2.4060   11.5770 O.3   215  MAN215     -0.3481
     11  O6         8.1100   -1.3560    9.4100 O.3   215  MAN215     -0.2176
@<TRIPOS>BOND
     1     9     4    1
     2    11     6    1
     3     6     5    1
     4     4     5    1
     5     4     3    1
     6     8     3    1
     7     5    10    1
     8     3     2    1
     9    10     1    1
    10     7     2    1
    11     2     1    1
