@<TRIPOS>MOLECULE
3tyg_BMA_A_1.pdb
 11 11 0 0 0
SMALL
GASTEIGER

@<TRIPOS>ATOM
      1  C1         4.6590   21.5880    0.8630 C.3   302  BMA302      0.1777
      2  C2         6.0750   21.0110    0.7070 C.3   302  BMA302      0.2141
      3  C3         7.0140   22.0190    0.0410 C.3   302  BMA302      0.2173
      4  C4         6.3980   22.6390   -1.2150 C.3   302  BMA302      0.2142
      5  C5         5.0200   23.1940   -0.8510 C.3   302  BMA302      0.1810
      6  C6         4.2510   23.8880   -1.9510 C.3   302  BMA302      0.2141
      7  O2         5.9930   19.8060   -0.0420 O.3   302  BMA302     -0.2176
      8  O3         8.3820   21.6020   -0.0730 O.3   302  BMA302     -0.2175
      9  O4         7.2500   23.6630   -1.7180 O.3   302  BMA302     -0.2176
     10  O5         4.1880   22.1280   -0.3690 O.3   302  BMA302     -0.3481
     11  O6         3.0960   24.4720   -1.3510 O.3   302  BMA302     -0.2176
@<TRIPOS>BOND
     1     6    11    1
     2     6     5    1
     3     9     4    1
     4     4     5    1
     5     4     3    1
     6     5    10    1
     7    10     1    1
     8     8     3    1
     9     7     2    1
    10     3     2    1
    11     2     1    1
