@<TRIPOS>MOLECULE
3tyi_HEM_A_1.pdb
 43 50 0 0 0
SMALL
GASTEIGER

@<TRIPOS>ATOM
      1  CHA        8.0980   -8.2550   -3.0730 C.2   104  HEM104      0.0000
      2  CHB        7.2140   -3.5180   -2.6520 C.2   104  HEM104      0.0000
      3  CHC        4.8730   -4.3730    1.4960 C.2   104  HEM104      0.0000
      4  CHD        7.0170   -8.6880    1.6850 C.2   104  HEM104      0.0000
      5  C1A        7.9600   -6.9190   -3.3780 C.ar  104  HEM104      0.0000
      6  C2A        8.2720   -6.3040   -4.6490 C.ar  104  HEM104      0.0000
      7  C3A        8.0290   -4.9910   -4.5160 C.ar  104  HEM104      0.0000
      8  C4A        7.5450   -4.7510   -3.1770 C.ar  104  HEM104      0.0000
      9  CMA        8.2100   -3.9110   -5.5900 C.3   104  HEM104      0.0000
     10  CAA        8.8250   -7.0510   -5.8910 C.3   104  HEM104      0.0000
     11  CBA       10.3390   -7.0820   -5.7590 C.3   104  HEM104      0.0000
     12  CGA       11.0500   -7.6630   -6.9450 C.2   104  HEM104      0.0000
     13  O1A       12.3140   -7.6810   -6.8620 O.co2 104  HEM104      0.0000
     14  O2A       10.4060   -8.0710   -7.9210 O.co2 104  HEM104      0.0000
     15  C1B        6.5090   -3.3350   -1.4980 C.2   104  HEM104      0.0000
     16  C2B        5.9390   -2.0860   -1.0510 C.2   104  HEM104      0.0000
     17  C3B        5.2730   -2.3060    0.0850 C.2   104  HEM104      0.0000
     18  C4B        5.4020   -3.7210    0.3950 C.2   104  HEM104      0.0000
     19  CMB        6.1390   -0.7470   -1.7880 C.3   104  HEM104      0.0000
     20  CAB        4.4360   -1.3100    0.9040 C.3   104  HEM104      0.0000
     21  CBB        3.3570   -0.7470    0.2300 C.3   104  HEM104      0.0000
     22  C1C        5.3160   -5.5980    1.9220 C.ar  104  HEM104      0.0000
     23  C2C        5.0420   -6.1390    3.2350 C.ar  104  HEM104      0.0000
     24  C3C        5.6450   -7.3410    3.2810 C.ar  104  HEM104      0.0000
     25  C4C        6.2910   -7.5830    2.0180 C.ar  104  HEM104      0.0000
     26  CMC        4.2500   -5.4400    4.3780 C.3   104  HEM104      0.0000
     27  CAC        5.7140   -8.3480    4.4630 C.2   104  HEM104      0.0000
     28  CBC        4.6660   -8.6300    5.2860 C.2   104  HEM104      0.0000
     29  C1D        7.4500   -8.9760    0.4210 C.2   104  HEM104      0.0000
     30  C2D        7.9660  -10.2460    0.0140 C.2   104  HEM104      0.0000
     31  C3D        8.2900  -10.1310   -1.4440 C.2   104  HEM104      0.0000
     32  C4D        7.9480   -8.7720   -1.8040 C.2   104  HEM104      0.0000
     33  CMD        8.1240  -11.5070    0.8560 C.3   104  HEM104      0.0000
     34  CAD        8.8160  -11.2500   -2.3330 C.3   104  HEM104      0.0000
     35  CBD        7.5450  -11.9800   -2.7660 C.3   104  HEM104      0.0000
     36  CGD        7.7500  -13.2030   -3.6120 C.2   104  HEM104      0.0000
     37  O1D        8.9030  -13.6810   -3.7630 O.co2 104  HEM104      0.0000
     38  O2D        6.7320  -13.7510   -4.1010 O.co2 104  HEM104      0.0000
     39  NA         7.5070   -5.9510   -2.4920 N.ar  104  HEM104      0.0000
     40  NB         6.1530   -4.3140   -0.5950 N.2   104  HEM104      0.0000
     41  NC         6.0670   -6.5040    1.2030 N.ar  104  HEM104      0.0000
     42  ND         7.4690   -8.1240   -0.6880 N.2   104  HEM104      0.0000
     43 FE          6.7880   -6.2210   -0.6470 Fe    104  HEM104      0.0000
@<TRIPOS>BOND
     1    14    12   ar
     2    12    13   ar
     3    12    11    1
     4    10    11    1
     5    10     6    1
     6     9     7    1
     7     6     7   ar
     8     6     5   ar
     9     7     8   ar
    10    38    36   ar
    11    37    36   ar
    12    36    35    1
    13     5     1    2
    14     5    39   ar
    15     8     2    2
    16     8    39   ar
    17     1    32    1
    18    35    34    1
    19     2    15    1
    20    39    43    1
    21    34    31    1
    22    32    31    1
    23    32    42    2
    24    19    16    1
    25    15    16    1
    26    15    40    2
    27    31    30    2
    28    16    17    2
    29    42    43    1
    30    42    29    1
    31    43    40    1
    32    43    41    1
    33    40    18    1
    34    30    29    1
    35    30    33    1
    36    17    18    1
    37    17    20    1
    38    21    20    1
    39    18     3    2
    40    29     4    2
    41    41    22   ar
    42    41    25   ar
    43     3    22    1
    44     4    25    1
    45    22    23   ar
    46    25    24   ar
    47    23    24   ar
    48    23    26    1
    49    24    27    1
    50    27    28    2
