@<TRIPOS>MOLECULE
3tyi_T3Y_A_1.pdb
 48 52 0 0 0
SMALL
GASTEIGER

@<TRIPOS>ATOM
      1  O3        -1.3600   12.6780   -6.6480 O.3   105  T3Y105     -0.0650
      2  S1        -2.7470   12.5350   -7.1170 S.3   105  T3Y105      0.0420
      3  O1        -3.2150   11.1730   -6.9220 O.3   105  T3Y105     -0.0650
      4  O2        -2.8210   12.8880   -8.5490 O.3   105  T3Y105     -0.0650
      5  C1        -3.7800   13.6430   -6.2350 C.ar  105  T3Y105      0.1119
      6  C24       -3.3040   14.9220   -5.8850 C.ar  105  T3Y105      0.0181
      7  C23       -4.1450   15.8110   -5.1920 C.ar  105  T3Y105      0.0222
      8  C22       -3.6420   17.2320   -4.8230 C.3   105  T3Y105      0.0592
      9  C2        -5.0920   13.2730   -5.9430 C.ar  105  T3Y105      0.0181
     10  C3        -5.9330   14.1500   -5.2690 C.ar  105  T3Y105      0.0222
     11  C25       -5.4670   15.4250   -4.9030 C.ar  105  T3Y105      0.1884
     12  O13       -6.3000   16.2890   -4.2870 O.3   105  T3Y105     -0.2872
     13  C4        -7.3760   13.7300   -4.9540 C.3   105  T3Y105      0.0592
     14  C5        -7.4380   13.0000   -3.6210 C.ar  105  T3Y105      0.0222
     15  C6        -7.4320   11.5990   -3.5860 C.ar  105  T3Y105      0.0181
     16  C7        -7.4880   10.9350   -2.3560 C.ar  105  T3Y105      0.1119
     17  S2        -7.4530    9.1890   -2.2940 S.3   105  T3Y105      0.0420
     18  O4        -8.7960    8.6970   -1.9300 O.3   105  T3Y105     -0.0650
     19  O5        -6.4870    8.7740   -1.2800 O.3   105  T3Y105     -0.0650
     20  O6        -7.0630    8.6640   -3.6130 O.3   105  T3Y105     -0.0650
     21  C8        -7.5430   11.6620   -1.1660 C.ar  105  T3Y105      0.0181
     22  C28       -7.5220   13.7220   -2.4230 C.ar  105  T3Y105      0.1884
     23  O16       -7.5570   15.0730   -2.4500 O.3   105  T3Y105     -0.2872
     24  C9        -7.5540   13.0550   -1.1960 C.ar  105  T3Y105      0.0222
     25  C10       -7.6700   13.8450    0.1190 C.3   105  T3Y105      0.0592
     26  C11       -6.3280   14.4660    0.4990 C.ar  105  T3Y105      0.0222
     27  C12       -5.3900   13.7110    1.2050 C.ar  105  T3Y105      0.0181
     28  C13       -4.1810   14.2880    1.5910 C.ar  105  T3Y105      0.1119
     29  S3        -2.9860   13.3290    2.4600 S.3   105  T3Y105      0.0420
     30  O7        -3.6670   12.2280    3.1570 O.3   105  T3Y105     -0.0650
     31  O8        -2.2910   14.1800    3.4340 O.3   105  T3Y105     -0.0650
     32  O9        -2.0090   12.7810    1.4820 O.3   105  T3Y105     -0.0650
     33  C14       -3.9050   15.6120    1.2610 C.ar  105  T3Y105      0.0181
     34  C27       -6.0580   15.8040    0.1870 C.ar  105  T3Y105      0.1884
     35  O15       -6.9870   16.5500   -0.4810 O.3   105  T3Y105     -0.2872
     36  C15       -4.8530   16.3790    0.5780 C.ar  105  T3Y105      0.0222
     37  C16       -4.4980   17.7880    0.1420 C.3   105  T3Y105      0.0592
     38  C17       -3.5380   17.6330   -1.0100 C.ar  105  T3Y105      0.0222
     39  C18       -2.1960   17.4080   -0.7490 C.ar  105  T3Y105      0.0181
     40  C26       -4.0180   17.5520   -2.3240 C.ar  105  T3Y105      0.1884
     41  O14       -5.3480   17.7550   -2.5750 O.3   105  T3Y105     -0.2872
     42  C21       -3.1380   17.2780   -3.3780 C.ar  105  T3Y105      0.0222
     43  C20       -1.7770   17.1070   -3.1070 C.ar  105  T3Y105      0.0181
     44  C19       -1.3130   17.1700   -1.7940 C.ar  105  T3Y105      0.1119
     45  S4         0.3700   16.8750   -1.4440 S.3   105  T3Y105      0.0420
     46  O11        1.1780   17.3030   -2.5870 O.3   105  T3Y105     -0.0650
     47  O10        0.7560   17.6180   -0.2280 O.3   105  T3Y105     -0.0650
     48  O12        0.5420   15.4290   -1.2150 O.3   105  T3Y105     -0.0650
@<TRIPOS>BOND
     1     4     2    1
     2     2     3    1
     3     2     1    1
     4     2     5    1
     5     5     9   ar
     6     5     6   ar
     7     9    10   ar
     8     6     7   ar
     9    10    13    1
    10    10    11   ar
    11     7    11   ar
    12     7     8    1
    13    13    14    1
    14    11    12    1
    15     8    42    1
    16    14    15   ar
    17    14    22   ar
    18    20    17    1
    19    15    16   ar
    20    42    43   ar
    21    42    40   ar
    22    43    44   ar
    23    46    45    1
    24    41    40    1
    25    23    22    1
    26    22    24   ar
    27    16    17    1
    28    16    21   ar
    29    40    38   ar
    30    17    18    1
    31    17    19    1
    32    44    45    1
    33    44    39   ar
    34    45    48    1
    35    45    47    1
    36    24    21   ar
    37    24    25    1
    38    38    39   ar
    39    38    37    1
    40    35    34    1
    41    25    26    1
    42    37    36    1
    43    34    26   ar
    44    34    36   ar
    45    26    27   ar
    46    36    33   ar
    47    27    28   ar
    48    33    28   ar
    49    32    29    1
    50    28    29    1
    51    29    30    1
    52    29    31    1
