@<TRIPOS>MOLECULE
3tyl_H4B_A_1.pdb
 17 18 0 0 0
SMALL
GASTEIGER

@<TRIPOS>ATOM
      1  N1         9.8300    2.5470   33.8020 N.2   760  H4B760     -0.2683
      2  C2        10.0030    2.1720   32.5180 C.1   760  H4B760      0.2608
      3  N2        11.2770    2.0630   32.0060 N.pl3 760  H4B760     -0.0220
      4  N3         8.9280    1.9200   31.7420 N.2   760  H4B760     -0.2474
      5  C4         7.6730    2.0290   32.2480 C.1   760  H4B760      0.2441
      6  O4         6.7200    1.7510   31.4960 O.2   760  H4B760     -0.2063
      7  C4A        7.4790    2.4330   33.5700 C.2   760  H4B760      0.2463
      8  C8A        8.5950    2.6950   34.3490 C.1   760  H4B760      0.1270
      9  N5         6.2470    2.5620   34.1380 N.2   760  H4B760     -0.2460
     10  N8         8.4980    3.0820   35.6580 N.2   760  H4B760     -0.2054
     11  C6         6.1240    3.4380   35.3100 C.3   760  H4B760      0.1627
     12  C7         7.1930    3.1990   36.3480 C.3   760  H4B760      0.1643
     13  C9         4.7270    3.5020   35.9240 C.3   760  H4B760      0.2063
     14  O9         4.3640    2.1750   36.3240 O.3   760  H4B760     -0.2183
     15  C10        4.6340    4.4410   37.1270 C.3   760  H4B760      0.1842
     16  C11        3.1640    4.6030   37.5270 C.3   760  H4B760      0.0383
     17  O10        5.1490    5.7340   36.7660 O.3   760  H4B760     -0.2204
@<TRIPOS>BOND
     1     6     5    2
     2     4     5    2
     3     4     2    2
     4     3     2    1
     5     5     7    1
     6     2     1    2
     7     7     9    2
     8     7     8    1
     9     1     8    2
    10     9    11    1
    11     8    10    2
    12    11    13    1
    13    11    12    1
    14    10    12    1
    15    13    14    1
    16    13    15    1
    17    17    15    1
    18    15    16    1
