@<TRIPOS>MOLECULE
3tyl_AXW_A_1.pdb
 26 28 0 0 0
SMALL
GASTEIGER

@<TRIPOS>ATOM
      1  F22        3.7380    1.4800   27.9090 F     800  AXW800     -0.2045
      2  C22        3.5800    2.8160   27.7520 C.ar  800  AXW800      0.1375
      3  C23        2.3080    3.4110   27.7860 C.ar  800  AXW800      0.0294
      4  C24        2.1930    4.7930   27.6110 C.ar  800  AXW800      0.0023
      5  C25        3.3310    5.5870   27.3960 C.ar  800  AXW800     -0.0001
      6  C26        4.6140    5.0410   27.3480 C.ar  800  AXW800     -0.0006
      7  C21        4.7840    3.6640   27.5190 C.ar  800  AXW800      0.0227
      8  C13        6.1550    3.0070   27.4690 C.3   800  AXW800      0.1173
      9  N12        6.7850    3.1360   26.1520 N.3   800  AXW800     -0.2106
     10  C11        6.2670    2.3120   25.0800 C.3   800  AXW800      0.1211
     11  C10        7.3180    2.1080   24.0270 C.3   800  AXW800      0.1609
     12  O09        8.4230    1.4770   24.6400 O.3   800  AXW800     -0.3532
     13  C4'        8.6460    0.1650   24.1370 C.3   800  AXW800      0.1343
     14  C5'        8.7720   -0.8200   25.3070 C.3   800  AXW800      0.1182
     15  N1'        9.8350   -1.7230   24.8590 N.3   800  AXW800     -0.2154
     16  C2'       10.4190   -1.3240   23.5720 C.3   800  AXW800      0.0916
     17  C3'        9.9860    0.1330   23.4140 C.3   800  AXW800      0.0531
     18  C08       10.9280    1.1070   24.1190 C.3   800  AXW800      0.0629
     19  C06       12.3250    1.0850   23.4610 C.2   800  AXW800      0.1098
     20  N01       13.2650    0.2170   23.9010 N.2   800  AXW800     -0.3924
     21  C02       14.5040    0.1730   23.3270 C.2   800  AXW800      0.2001
     22  N02       15.4170   -0.7110   23.7890 N.pl3 800  AXW800     -0.0977
     23  C03       14.7910    0.9850   22.2060 C.3   800  AXW800      0.1001
     24  C05       12.5820    1.9060   22.3590 C.2   800  AXW800      0.0196
     25  C04       13.8310    1.8710   21.7240 C.2   800  AXW800     -0.0332
     26  C07       14.0880    2.7790   20.5360 C.3   800  AXW800      0.0269
@<TRIPOS>BOND
     1    26    25    1
     2    25    23    1
     3    25    24    2
     4    23    21    1
     5    24    19    1
     6    21    22    1
     7    21    20    2
     8    17    16    1
     9    17    18    1
    10    17    13    1
    11    19    20    2
    12    19    18    1
    13    16    15    1
    14    11    12    1
    15    11    10    1
    16    13    12    1
    17    13    14    1
    18    15    14    1
    19    10     9    1
    20     9     8    1
    21     6     5   ar
    22     6     7   ar
    23     5     4   ar
    24     8     7    1
    25     7     2   ar
    26     4     3   ar
    27     2     3   ar
    28     2     1    1
