@<TRIPOS>MOLECULE
3tyl_HEM_A_1.pdb
 43 50 0 0 0
SMALL
GASTEIGER

@<TRIPOS>ATOM
      1  CHA       12.9530    4.6130   26.3770 C.2   750  HEM750      0.0000
      2  CHB       16.8050    1.7280   26.1040 C.2   750  HEM750      0.0000
      3  CHC       17.7440    3.5380   21.6980 C.2   750  HEM750      0.0000
      4  CHD       14.6680    7.2060   22.5710 C.2   750  HEM750      0.0000
      5  C1A       13.8040    3.5780   26.5600 C.2   750  HEM750      0.0000
      6  C2A       13.5930    2.5130   27.5070 C.2   750  HEM750      0.0000
      7  C3A       14.6570    1.7090   27.4710 C.2   750  HEM750      0.0000
      8  C4A       15.5790    2.2330   26.4630 C.2   750  HEM750      0.0000
      9  CMA       14.8710    0.4280   28.3150 C.3   750  HEM750      0.0000
     10  CAA       12.3380    2.4090   28.3840 C.3   750  HEM750      0.0000
     11  CBA       11.2070    1.8440   27.5410 C.3   750  HEM750      0.0000
     12  CGA       10.0320    1.4430   28.3800 C.2   750  HEM750      0.0000
     13  O1A       10.2380    1.0160   29.5550 O.co2 750  HEM750      0.0000
     14  O2A        8.8780    1.5480   27.8660 O.co2 750  HEM750      0.0000
     15  C1B       17.3670    1.9050   24.8600 C.ar  750  HEM750      0.0000
     16  C2B       18.4710    1.1370   24.3010 C.ar  750  HEM750      0.0000
     17  C3B       18.7440    1.6490   23.0950 C.ar  750  HEM750      0.0000
     18  C4B       17.8300    2.7620   22.8410 C.ar  750  HEM750      0.0000
     19  CMB       19.1870   -0.0870   24.9640 C.3   750  HEM750      0.0000
     20  CAB       19.8100    1.0400   22.1610 C.2   750  HEM750      0.0000
     21  CBB       20.3600    1.6870   21.1360 C.2   750  HEM750      0.0000
     22  C1C       16.9610    4.6830   21.5210 C.2   750  HEM750      0.0000
     23  C2C       16.9440    5.5060   20.3190 C.2   750  HEM750      0.0000
     24  C3C       16.1120    6.5310   20.5510 C.2   750  HEM750      0.0000
     25  C4C       15.5560    6.3740   21.9040 C.2   750  HEM750      0.0000
     26  CMC       17.7420    5.1510   19.0300 C.3   750  HEM750      0.0000
     27  CAC       15.7200    7.7030   19.6160 C.2   750  HEM750      0.0000
     28  CBC       16.4270    7.9430   18.5080 C.2   750  HEM750      0.0000
     29  C1D       13.8860    6.8350   23.6580 C.ar  750  HEM750      0.0000
     30  C2D       12.7320    7.5480   24.1460 C.ar  750  HEM750      0.0000
     31  C3D       12.2060    6.7400   25.3210 C.ar  750  HEM750      0.0000
     32  C4D       13.0710    5.6140   25.4280 C.ar  750  HEM750      0.0000
     33  CMD       12.1950    8.8860   23.5980 C.3   750  HEM750      0.0000
     34  CAD       10.9790    7.0750   26.1820 C.3   750  HEM750      0.0000
     35  CBD        9.8740    6.3330   25.4340 C.3   750  HEM750      0.0000
     36  CGD        8.5640    6.4870   26.1550 C.2   750  HEM750      0.0000
     37  O1D        8.4000    7.4810   26.9050 O.co2 750  HEM750      0.0000
     38  O2D        7.6940    5.6070   25.9770 O.co2 750  HEM750      0.0000
     39  NA        15.0630    3.4370   25.9960 N.2   750  HEM750      0.0000
     40  NB        17.0550    2.9530   23.9870 N.ar  750  HEM750      0.0000
     41  NC        16.1100    5.2600   22.4540 N.2   750  HEM750      0.0000
     42  ND        14.0820    5.7430   24.4940 N.ar  750  HEM750      0.0000
     43 FE         15.6690    4.4270   24.3210 Fe    750  HEM750      0.0000
@<TRIPOS>BOND
     1    28    27    2
     2    26    23    1
     3    27    24    1
     4    23    24    2
     5    23    22    1
     6    24    25    1
     7    21    20    2
     8    22     3    2
     9    22    41    1
    10     3    18    1
    11    25    41    2
    12    25     4    1
    13    20    17    1
    14    41    43    1
    15     4    29    2
    16    18    17   ar
    17    18    40   ar
    18    17    16   ar
    19    33    30    1
    20    29    30   ar
    21    29    42   ar
    22    40    43    1
    23    40    15   ar
    24    30    31   ar
    25    16    15   ar
    26    16    19    1
    27    43    42    1
    28    43    39    1
    29    42    32   ar
    30    15     2    1
    31    31    32   ar
    32    31    34    1
    33    32     1    2
    34    35    36    1
    35    35    34    1
    36    38    36   ar
    37    39     8    1
    38    39     5    2
    39     2     8    2
    40    36    37   ar
    41     1     5    1
    42     8     7    1
    43     5     6    1
    44     7     6    2
    45     7     9    1
    46     6    10    1
    47    11    12    1
    48    11    10    1
    49    14    12   ar
    50    12    13   ar
