@<TRIPOS>MOLECULE
3tym_H4B_A_1.pdb
 17 18 0 0 0
SMALL
GASTEIGER

@<TRIPOS>ATOM
      1  N1         9.8070    2.5460   33.8060 N.2   760  H4B760     -0.2683
      2  C2         9.9840    2.1820   32.5150 C.1   760  H4B760      0.2608
      3  N2        11.2530    2.0610   32.0130 N.pl3 760  H4B760     -0.0220
      4  N3         8.9080    1.9580   31.7310 N.2   760  H4B760     -0.2474
      5  C4         7.6610    2.0650   32.2230 C.1   760  H4B760      0.2441
      6  O4         6.7120    1.8090   31.4490 O.2   760  H4B760     -0.2063
      7  C4A        7.4720    2.4410   33.5580 C.2   760  H4B760      0.2463
      8  C8A        8.5930    2.6960   34.3450 C.1   760  H4B760      0.1270
      9  N5         6.2520    2.5960   34.1100 N.2   760  H4B760     -0.2460
     10  N8         8.5090    3.0670   35.6600 N.2   760  H4B760     -0.2054
     11  C6         6.1580    3.5050   35.2580 C.3   760  H4B760      0.1627
     12  C7         7.2030    3.1940   36.3100 C.3   760  H4B760      0.1643
     13  C9         4.7570    3.5630   35.8620 C.3   760  H4B760      0.2063
     14  O9         4.3720    2.2440   36.2700 O.3   760  H4B760     -0.2183
     15  C10        4.6740    4.5140   37.0540 C.3   760  H4B760      0.1842
     16  C11        3.2160    4.7010   37.4770 C.3   760  H4B760      0.0383
     17  O10        5.2070    5.7940   36.6870 O.3   760  H4B760     -0.2204
@<TRIPOS>BOND
     1     6     5    2
     2     4     5    2
     3     4     2    2
     4     3     2    1
     5     5     7    1
     6     2     1    2
     7     7     9    2
     8     7     8    1
     9     1     8    2
    10     9    11    1
    11     8    10    2
    12    11    13    1
    13    11    12    1
    14    10    12    1
    15    13    14    1
    16    13    15    1
    17    17    15    1
    18    15    16    1
