@<TRIPOS>MOLECULE
3tym_HEM_A_1.pdb
 43 50 0 0 0
SMALL
GASTEIGER

@<TRIPOS>ATOM
      1  CHA       12.9460    4.6660   26.3410 C.2   750  HEM750      0.0000
      2  CHB       16.8150    1.7350   26.1090 C.2   750  HEM750      0.0000
      3  CHC       17.7310    3.5100   21.7120 C.2   750  HEM750      0.0000
      4  CHD       14.6790    7.2410   22.5640 C.2   750  HEM750      0.0000
      5  C1A       13.8020    3.6130   26.5480 C.2   750  HEM750      0.0000
      6  C2A       13.5690    2.5410   27.4740 C.2   750  HEM750      0.0000
      7  C3A       14.6370    1.7310   27.4420 C.2   750  HEM750      0.0000
      8  C4A       15.5750    2.2430   26.4490 C.2   750  HEM750      0.0000
      9  CMA       14.8150    0.4450   28.2720 C.3   750  HEM750      0.0000
     10  CAA       12.3170    2.3960   28.3510 C.3   750  HEM750      0.0000
     11  CBA       11.2310    1.7070   27.5370 C.3   750  HEM750      0.0000
     12  CGA       10.0490    1.3600   28.3950 C.2   750  HEM750      0.0000
     13  O1A       10.2570    0.8930   29.5570 O.co2 750  HEM750      0.0000
     14  O2A        8.8950    1.5270   27.8980 O.co2 750  HEM750      0.0000
     15  C1B       17.3920    1.8800   24.8700 C.ar  750  HEM750      0.0000
     16  C2B       18.4640    1.0920   24.2920 C.ar  750  HEM750      0.0000
     17  C3B       18.7170    1.5850   23.0820 C.ar  750  HEM750      0.0000
     18  C4B       17.8280    2.7190   22.8510 C.ar  750  HEM750      0.0000
     19  CMB       19.1680   -0.1350   24.9290 C.3   750  HEM750      0.0000
     20  CAB       19.7660    0.9470   22.1390 C.2   750  HEM750      0.0000
     21  CBB       20.4580    1.5980   21.2100 C.2   750  HEM750      0.0000
     22  C1C       16.9420    4.6590   21.5230 C.2   750  HEM750      0.0000
     23  C2C       16.9100    5.4830   20.3250 C.2   750  HEM750      0.0000
     24  C3C       16.0690    6.5120   20.5600 C.2   750  HEM750      0.0000
     25  C4C       15.5560    6.3800   21.9120 C.2   750  HEM750      0.0000
     26  CMC       17.6890    5.1520   19.0150 C.3   750  HEM750      0.0000
     27  CAC       15.6390    7.6690   19.6180 C.2   750  HEM750      0.0000
     28  CBC       16.3260    7.9920   18.5090 C.2   750  HEM750      0.0000
     29  C1D       13.8720    6.8760   23.6350 C.ar  750  HEM750      0.0000
     30  C2D       12.6970    7.5830   24.1020 C.ar  750  HEM750      0.0000
     31  C3D       12.1890    6.7670   25.2640 C.ar  750  HEM750      0.0000
     32  C4D       13.0830    5.6520   25.3900 C.ar  750  HEM750      0.0000
     33  CMD       12.0810    8.9000   23.5710 C.3   750  HEM750      0.0000
     34  CAD       10.9510    7.0240   26.1390 C.3   750  HEM750      0.0000
     35  CBD        9.8240    6.2120   25.4780 C.3   750  HEM750      0.0000
     36  CGD        8.5340    6.5980   26.1470 C.2   750  HEM750      0.0000
     37  O1D        8.4980    7.6830   26.7990 O.co2 750  HEM750      0.0000
     38  O2D        7.5520    5.8160   26.0590 O.co2 750  HEM750      0.0000
     39  NA        15.0440    3.4350   25.9780 N.2   750  HEM750      0.0000
     40  NB        17.1020    2.9090   24.0030 N.ar  750  HEM750      0.0000
     41  NC        16.1350    5.2710   22.4730 N.2   750  HEM750      0.0000
     42  ND        14.0980    5.7770   24.4570 N.ar  750  HEM750      0.0000
     43 FE         15.6550    4.4080   24.2900 Fe    750  HEM750      0.0000
@<TRIPOS>BOND
     1    28    27    2
     2    26    23    1
     3    27    24    1
     4    23    24    2
     5    23    22    1
     6    24    25    1
     7    21    20    2
     8    22     3    2
     9    22    41    1
    10     3    18    1
    11    25    41    2
    12    25     4    1
    13    20    17    1
    14    41    43    1
    15     4    29    2
    16    18    17   ar
    17    18    40   ar
    18    17    16   ar
    19    33    30    1
    20    29    30   ar
    21    29    42   ar
    22    40    43    1
    23    40    15   ar
    24    30    31   ar
    25    43    42    1
    26    43    39    1
    27    16    15   ar
    28    16    19    1
    29    42    32   ar
    30    15     2    1
    31    31    32   ar
    32    31    34    1
    33    32     1    2
    34    35    34    1
    35    35    36    1
    36    39     8    1
    37    39     5    2
    38    38    36   ar
    39     2     8    2
    40    36    37   ar
    41     1     5    1
    42     8     7    1
    43     5     6    1
    44     7     6    2
    45     7     9    1
    46     6    10    1
    47    11    10    1
    48    11    12    1
    49    14    12   ar
    50    12    13   ar
