@<TRIPOS>MOLECULE
3tym_08R_A_1.pdb
 27 29 0 0 0
SMALL
GASTEIGER

@<TRIPOS>ATOM
      1  N02       15.3950   -0.7730   23.7220 N.pl3 800  08R800     -0.0977
      2  C02       14.5240    0.1510   23.2730 C.2   800  08R800      0.2001
      3  C03       14.8570    0.9520   22.1670 C.3   800  08R800      0.1001
      4  C04       13.8990    1.8690   21.7180 C.2   800  08R800     -0.0332
      5  C07       14.1830    2.7820   20.5480 C.3   800  08R800      0.0269
      6  C05       12.6690    1.9560   22.3630 C.2   800  08R800      0.0196
      7  N01       13.2990    0.2390   23.8700 N.2   800  08R800     -0.3924
      8  C06       12.3730    1.1350   23.4550 C.2   800  08R800      0.1098
      9  C08       11.0070    1.2140   24.1570 C.3   800  08R800      0.0629
     10  C3'        9.9920    0.2710   23.4900 C.3   800  08R800      0.0531
     11  C2'       10.3480   -1.2040   23.6000 C.3   800  08R800      0.0916
     12  N1'        9.7410   -1.6290   24.8580 N.3   800  08R800     -0.2154
     13  C5'        8.7390   -0.6860   25.3410 C.3   800  08R800      0.1182
     14  C4'        8.6400    0.3210   24.1860 C.3   800  08R800      0.1343
     15  O09        8.3530    1.6360   24.6390 O.3   800  08R800     -0.3532
     16  C10        7.2050    2.1700   23.9890 C.3   800  08R800      0.1609
     17  C11        6.1230    2.4410   25.0090 C.3   800  08R800      0.1211
     18  N12        6.6460    3.0870   26.1960 N.3   800  08R800     -0.2105
     19  C13        5.9460    2.8880   27.4690 C.3   800  08R800      0.1181
     20  C21        4.6690    3.7070   27.5270 C.ar  800  08R800      0.0292
     21  C22        3.3230    3.0470   27.5470 C.ar  800  08R800      0.1360
     22  O22        3.2140    1.6630   27.5200 O.3   800  08R800     -0.4717
     23  C27        2.0000    0.9660   27.8510 C.3   800  08R800      0.2525
     24  C26        4.7470    5.1010   27.5470 C.ar  800  08R800      0.0001
     25  C25        3.5800    5.8570   27.5890 C.ar  800  08R800     -0.0001
     26  C24        2.3210    5.2480   27.6070 C.ar  800  08R800      0.0031
     27  C23        2.1830    3.8600   27.5830 C.ar  800  08R800      0.0366
@<TRIPOS>BOND
     1     5     4    1
     2     4     3    1
     3     4     6    2
     4     3     2    1
     5     6     8    1
     6     2     1    1
     7     2     7    2
     8     8     7    2
     9     8     9    1
    10    10    11    1
    11    10     9    1
    12    10    14    1
    13    11    12    1
    14    16    15    1
    15    16    17    1
    16    14    15    1
    17    14    13    1
    18    12    13    1
    19    17    18    1
    20    18    19    1
    21    19    20    1
    22    22    21    1
    23    22    23    1
    24    20    21   ar
    25    20    24   ar
    26    21    27   ar
    27    24    25   ar
    28    27    26   ar
    29    25    26   ar
