@<TRIPOS>MOLECULE
3tyn_H4B_A_1.pdb
 17 18 0 0 0
SMALL
GASTEIGER

@<TRIPOS>ATOM
      1  N1         9.8550    2.5220   33.8450 N.2   760  H4B760     -0.2683
      2  C2        10.0810    2.1430   32.5630 C.1   760  H4B760      0.2608
      3  N2        11.3720    2.0220   32.0510 N.pl3 760  H4B760     -0.0220
      4  N3         9.0220    1.8840   31.7850 N.2   760  H4B760     -0.2474
      5  C4         7.7440    1.9900   32.2590 C.1   760  H4B760      0.2441
      6  O4         6.8180    1.6910   31.4850 O.2   760  H4B760     -0.2063
      7  C4A        7.5010    2.4020   33.5630 C.2   760  H4B760      0.2463
      8  C8A        8.6140    2.6860   34.3550 C.1   760  H4B760      0.1270
      9  N5         6.2440    2.5250   34.0830 N.2   760  H4B760     -0.2460
     10  N8         8.4880    3.0950   35.6510 N.2   760  H4B760     -0.2054
     11  C6         6.0920    3.4390   35.2270 C.3   760  H4B760      0.1627
     12  C7         7.1530    3.2120   36.2760 C.3   760  H4B760      0.1643
     13  C9         4.6880    3.5070   35.8380 C.3   760  H4B760      0.2063
     14  O9         4.2910    2.1950   36.2180 O.3   760  H4B760     -0.2183
     15  C10        4.6060    4.4410   37.0500 C.3   760  H4B760      0.1842
     16  C11        3.1620    4.6570   37.4830 C.3   760  H4B760      0.0383
     17  O10        5.1660    5.7180   36.7030 O.3   760  H4B760     -0.2204
@<TRIPOS>BOND
     1     6     5    2
     2     4     5    2
     3     4     2    2
     4     3     2    1
     5     5     7    1
     6     2     1    2
     7     7     9    2
     8     7     8    1
     9     1     8    2
    10     9    11    1
    11     8    10    2
    12    11    13    1
    13    11    12    1
    14    10    12    1
    15    13    14    1
    16    13    15    1
    17    17    15    1
    18    15    16    1
