@<TRIPOS>MOLECULE
3tyn_HEM_A_1.pdb
 43 50 0 0 0
SMALL
GASTEIGER

@<TRIPOS>ATOM
      1  CHA       12.9060    4.6690   26.4310 C.2   750  HEM750      0.0000
      2  CHB       16.7720    1.7550   26.1750 C.2   750  HEM750      0.0000
      3  CHC       17.6710    3.5290   21.7580 C.2   750  HEM750      0.0000
      4  CHD       14.5860    7.2560   22.6040 C.2   750  HEM750      0.0000
      5  C1A       13.7630    3.6250   26.6450 C.2   750  HEM750      0.0000
      6  C2A       13.5690    2.5620   27.5960 C.2   750  HEM750      0.0000
      7  C3A       14.6260    1.7480   27.5510 C.2   750  HEM750      0.0000
      8  C4A       15.5370    2.2700   26.5390 C.2   750  HEM750      0.0000
      9  CMA       14.8480    0.4700   28.4120 C.3   750  HEM750      0.0000
     10  CAA       12.3310    2.4350   28.4990 C.3   750  HEM750      0.0000
     11  CBA       11.2620    1.8270   27.6100 C.3   750  HEM750      0.0000
     12  CGA       10.0950    1.3460   28.4070 C.2   750  HEM750      0.0000
     13  O1A       10.2960    0.8570   29.5530 O.co2 750  HEM750      0.0000
     14  O2A        8.9610    1.4540   27.8580 O.co2 750  HEM750      0.0000
     15  C1B       17.3330    1.8970   24.9310 C.ar  750  HEM750      0.0000
     16  C2B       18.3930    1.0970   24.3500 C.ar  750  HEM750      0.0000
     17  C3B       18.6360    1.5970   23.1360 C.ar  750  HEM750      0.0000
     18  C4B       17.7630    2.7350   22.8980 C.ar  750  HEM750      0.0000
     19  CMB       19.1180   -0.1340   24.9830 C.3   750  HEM750      0.0000
     20  CAB       19.6720    0.9760   22.1790 C.2   750  HEM750      0.0000
     21  CBB       20.3400    1.7000   21.2980 C.2   750  HEM750      0.0000
     22  C1C       16.8690    4.6650   21.5750 C.2   750  HEM750      0.0000
     23  C2C       16.8110    5.4800   20.3710 C.2   750  HEM750      0.0000
     24  C3C       15.9600    6.5040   20.6110 C.2   750  HEM750      0.0000
     25  C4C       15.4700    6.3920   21.9660 C.2   750  HEM750      0.0000
     26  CMC       17.5570    5.1240   19.0500 C.3   750  HEM750      0.0000
     27  CAC       15.5300    7.6480   19.6620 C.2   750  HEM750      0.0000
     28  CBC       16.3150    7.9420   18.6230 C.2   750  HEM750      0.0000
     29  C1D       13.8000    6.8970   23.6830 C.ar  750  HEM750      0.0000
     30  C2D       12.6520    7.6160   24.1840 C.ar  750  HEM750      0.0000
     31  C3D       12.1630    6.7870   25.3560 C.ar  750  HEM750      0.0000
     32  C4D       13.0420    5.6560   25.4590 C.ar  750  HEM750      0.0000
     33  CMD       12.0460    8.9460   23.6570 C.3   750  HEM750      0.0000
     34  CAD       10.9420    7.0680   26.2440 C.3   750  HEM750      0.0000
     35  CBD        9.8040    6.4790   25.4170 C.3   750  HEM750      0.0000
     36  CGD        8.5240    6.5800   26.1930 C.2   750  HEM750      0.0000
     37  O1D        8.3560    7.5680   26.9650 O.co2 750  HEM750      0.0000
     38  O2D        7.7020    5.6510   26.0630 O.co2 750  HEM750      0.0000
     39  NA        15.0040    3.4600   26.0680 N.2   750  HEM750      0.0000
     40  NB        17.0380    2.9450   24.0600 N.ar  750  HEM750      0.0000
     41  NC        16.0530    5.2840   22.5140 N.2   750  HEM750      0.0000
     42  ND        14.0360    5.7780   24.4840 N.ar  750  HEM750      0.0000
     43 FE         15.6140    4.4470   24.3320 Fe    750  HEM750      0.0000
@<TRIPOS>BOND
     1    28    27    2
     2    26    23    1
     3    27    24    1
     4    23    24    2
     5    23    22    1
     6    24    25    1
     7    21    20    2
     8    22     3    2
     9    22    41    1
    10     3    18    1
    11    25    41    2
    12    25     4    1
    13    20    17    1
    14    41    43    1
    15     4    29    2
    16    18    17   ar
    17    18    40   ar
    18    17    16   ar
    19    33    30    1
    20    29    30   ar
    21    29    42   ar
    22    40    43    1
    23    40    15   ar
    24    30    31   ar
    25    43    42    1
    26    43    39    1
    27    16    15   ar
    28    16    19    1
    29    42    32   ar
    30    15     2    1
    31    31    32   ar
    32    31    34    1
    33    35    36    1
    34    35    34    1
    35    32     1    2
    36    38    36   ar
    37    39     8    1
    38    39     5    2
    39     2     8    2
    40    36    37   ar
    41     1     5    1
    42     8     7    1
    43     5     6    1
    44     7     6    2
    45     7     9    1
    46     6    10    1
    47    11    12    1
    48    11    10    1
    49    14    12   ar
    50    12    13   ar
