@<TRIPOS>MOLECULE
3tyn_CXW_A_1.pdb
 26 28 0 0 0
SMALL
GASTEIGER

@<TRIPOS>ATOM
      1  O22        3.3540    1.7680   27.7970 O.3   800  CXW800     -0.2869
      2  C22        3.3760    3.1250   27.6710 C.ar  800  CXW800      0.1931
      3  C23        2.1880    3.8700   27.7040 C.ar  800  CXW800      0.0417
      4  C24        2.2440    5.2600   27.5690 C.ar  800  CXW800      0.0033
      5  C25        3.4770    5.9100   27.3970 C.ar  800  CXW800     -0.0001
      6  C26        4.6870    5.2070   27.3550 C.ar  800  CXW800      0.0003
      7  C21        4.6860    3.8140   27.4870 C.ar  800  CXW800      0.0342
      8  C13        5.9650    2.9840   27.4490 C.3   800  CXW800      0.1182
      9  N12        6.8250    3.2550   26.2930 N.3   800  CXW800     -0.2105
     10  C11        6.3940    2.9860   24.9370 C.3   800  CXW800      0.1211
     11  C10        6.7940    1.5880   24.5170 C.3   800  CXW800      0.1609
     12  O09        8.2230    1.5440   24.4380 O.3   800  CXW800     -0.3532
     13  C4'        8.6260    0.2070   24.1370 C.3   800  CXW800      0.1343
     14  C5'        8.6700   -0.7450   25.3490 C.3   800  CXW800      0.1182
     15  N1'        9.7490   -1.6610   24.9950 N.3   800  CXW800     -0.2154
     16  C2'       10.4360   -1.2840   23.7580 C.3   800  CXW800      0.0916
     17  C3'       10.0180    0.1590   23.5110 C.3   800  CXW800      0.0531
     18  C08       10.9480    1.1730   24.1600 C.3   800  CXW800      0.0629
     19  C06       12.3320    1.0910   23.4880 C.2   800  CXW800      0.1098
     20  C05       12.6150    1.9330   22.4140 C.2   800  CXW800      0.0196
     21  C04       13.8340    1.8730   21.7710 C.2   800  CXW800     -0.0332
     22  C07       14.0480    2.8300   20.6110 C.3   800  CXW800      0.0269
     23  N01       13.2580    0.1990   23.8980 N.2   800  CXW800     -0.3924
     24  C02       14.4920    0.1380   23.3070 C.2   800  CXW800      0.2001
     25  N02       15.3710   -0.7790   23.7450 N.pl3 800  CXW800     -0.0977
     26  C03       14.7970    0.9540   22.2000 C.3   800  CXW800      0.1001
@<TRIPOS>BOND
     1    22    21    1
     2    21    26    1
     3    21    20    2
     4    26    24    1
     5    20    19    1
     6    24    25    1
     7    24    23    2
     8    19    23    2
     9    19    18    1
    10    17    16    1
    11    17    13    1
    12    17    18    1
    13    16    15    1
    14    13    12    1
    15    13    14    1
    16    12    11    1
    17    11    10    1
    18    10     9    1
    19    15    14    1
    20     9     8    1
    21     6     5   ar
    22     6     7   ar
    23     5     4   ar
    24     8     7    1
    25     7     2   ar
    26     4     3   ar
    27     2     3   ar
    28     2     1    1
