@<TRIPOS>MOLECULE
3tyo_H4B_A_1.pdb
 17 18 0 0 0
SMALL
GASTEIGER

@<TRIPOS>ATOM
      1  N1         9.8050    2.5840   33.7760 N.2   760  H4B760     -0.2683
      2  C2         9.9660    2.2010   32.5040 C.1   760  H4B760      0.2608
      3  N2        11.2340    2.1030   31.9890 N.pl3 760  H4B760     -0.0220
      4  N3         8.8810    1.9330   31.7440 N.2   760  H4B760     -0.2474
      5  C4         7.6290    2.0270   32.2410 C.1   760  H4B760      0.2441
      6  O4         6.6780    1.7300   31.4770 O.2   760  H4B760     -0.2063
      7  C4A        7.4520    2.4520   33.5570 C.2   760  H4B760      0.2463
      8  C8A        8.5910    2.7320   34.3190 C.1   760  H4B760      0.1270
      9  N5         6.2340    2.5790   34.1360 N.2   760  H4B760     -0.2460
     10  N8         8.5180    3.1420   35.6130 N.2   760  H4B760     -0.2054
     11  C6         6.1240    3.4970   35.2720 C.3   760  H4B760      0.1627
     12  C7         7.2220    3.2620   36.2950 C.3   760  H4B760      0.1643
     13  C9         4.7310    3.5070   35.8960 C.3   760  H4B760      0.2063
     14  O9         4.4160    2.1660   36.2850 O.3   760  H4B760     -0.2183
     15  C10        4.6130    4.4580   37.0840 C.3   760  H4B760      0.1842
     16  C11        3.1610    4.6170   37.5030 C.3   760  H4B760      0.0383
     17  O10        5.1460    5.7530   36.7460 O.3   760  H4B760     -0.2204
@<TRIPOS>BOND
     1     6     5    2
     2     4     5    2
     3     4     2    2
     4     3     2    1
     5     5     7    1
     6     2     1    2
     7     7     9    2
     8     7     8    1
     9     1     8    2
    10     9    11    1
    11     8    10    2
    12    11    13    1
    13    11    12    1
    14    10    12    1
    15    13    14    1
    16    13    15    1
    17    17    15    1
    18    15    16    1
