@<TRIPOS>MOLECULE
3tyo_DXW_A_1.pdb
 24 26 0 0 0
SMALL
GASTEIGER

@<TRIPOS>ATOM
      1  N02       15.4720   -0.6840   23.7860 N.pl3 800  DXW800     -0.0977
      2  C02       14.5470    0.1660   23.2980 C.2   800  DXW800      0.2001
      3  C03       14.8370    0.9820   22.1960 C.3   800  DXW800      0.1001
      4  C04       13.8530    1.8550   21.7210 C.2   800  DXW800     -0.0332
      5  C05       12.6090    1.8710   22.3380 C.2   800  DXW800      0.0196
      6  C07       14.0930    2.7720   20.5390 C.3   800  DXW800      0.0269
      7  N01       13.3270    0.2100   23.8950 N.2   800  DXW800     -0.3924
      8  C06       12.3610    1.0410   23.4370 C.2   800  DXW800      0.1098
      9  C08       10.9880    1.0500   24.1070 C.3   800  DXW800      0.0629
     10  C3'       10.0450    0.0470   23.4290 C.3   800  DXW800      0.0531
     11  C4'        8.7110    0.0370   24.1570 C.3   800  DXW800      0.1343
     12  C5'        8.9160   -0.8910   25.3670 C.3   800  DXW800      0.1182
     13  N1'        9.9170   -1.8320   24.8590 N.3   800  DXW800     -0.2154
     14  C2'       10.4950   -1.4090   23.5770 C.3   800  DXW800      0.0916
     15  O09        8.3540    1.3760   24.4820 O.3   800  DXW800     -0.3532
     16  C10        6.9420    1.5850   24.5100 C.3   800  DXW800      0.1609
     17  C11        6.7660    3.0610   24.8270 C.3   800  DXW800      0.1212
     18  N12        7.0430    3.3120   26.2260 N.3   800  DXW800     -0.2073
     19  C13        6.0890    2.8890   27.2610 C.3   800  DXW800      0.1529
     20  C22        4.8600    3.7770   27.2970 C.ar  800  DXW800      0.1405
     21  O21        4.8390    5.1410   27.4940 O.2   800  DXW800     -0.4532
     22  C23        3.5200    5.5560   27.4460 C.ar  800  DXW800      0.1792
     23  C24        2.7160    4.4520   27.2210 C.ar  800  DXW800      0.0435
     24  C25        3.5420    3.3470   27.1230 C.ar  800  DXW800      0.0377
@<TRIPOS>BOND
     1     6     4    1
     2     4     3    1
     3     4     5    2
     4     3     2    1
     5     5     8    1
     6     2     1    1
     7     2     7    2
     8    10    14    1
     9    10     9    1
    10    10    11    1
    11     8     7    2
    12     8     9    1
    13    14    13    1
    14    11    15    1
    15    11    12    1
    16    15    16    1
    17    16    17    1
    18    17    18    1
    19    13    12    1
    20    18    19    1
    21    24    23   ar
    22    24    20   ar
    23    23    22   ar
    24    19    20    1
    25    20    21   ar
    26    22    21   ar
