@<TRIPOS>MOLECULE
3tyo_HEM_A_1.pdb
 43 50 0 0 0
SMALL
GASTEIGER

@<TRIPOS>ATOM
      1  CHA       12.9650    4.7240   26.4450 C.2   750  HEM750      0.0000
      2  CHB       16.8190    1.8060   26.1490 C.2   750  HEM750      0.0000
      3  CHC       17.7660    3.5740   21.7450 C.2   750  HEM750      0.0000
      4  CHD       14.6780    7.2590   22.6040 C.2   750  HEM750      0.0000
      5  C1A       13.8140    3.6670   26.6280 C.2   750  HEM750      0.0000
      6  C2A       13.5840    2.5820   27.5480 C.2   750  HEM750      0.0000
      7  C3A       14.6500    1.7680   27.4980 C.2   750  HEM750      0.0000
      8  C4A       15.5820    2.3090   26.5070 C.2   750  HEM750      0.0000
      9  CMA       14.8620    0.4710   28.3130 C.3   750  HEM750      0.0000
     10  CAA       12.3240    2.4540   28.4310 C.3   750  HEM750      0.0000
     11  CBA       11.1780    1.9380   27.5670 C.3   750  HEM750      0.0000
     12  CGA       10.0250    1.4190   28.3830 C.2   750  HEM750      0.0000
     13  O1A       10.2570    0.9480   29.5390 O.co2 750  HEM750      0.0000
     14  O2A        8.8590    1.4830   27.8670 O.co2 750  HEM750      0.0000
     15  C1B       17.4010    1.9610   24.9130 C.ar  750  HEM750      0.0000
     16  C2B       18.4690    1.1580   24.3440 C.ar  750  HEM750      0.0000
     17  C3B       18.7310    1.6370   23.1280 C.ar  750  HEM750      0.0000
     18  C4B       17.8540    2.7830   22.8890 C.ar  750  HEM750      0.0000
     19  CMB       19.1470   -0.0570   25.0350 C.3   750  HEM750      0.0000
     20  CAB       19.7880    1.0250   22.1710 C.2   750  HEM750      0.0000
     21  CBB       20.3640    1.6880   21.1750 C.2   750  HEM750      0.0000
     22  C1C       16.9630    4.7070   21.5560 C.2   750  HEM750      0.0000
     23  C2C       16.8870    5.5110   20.3430 C.2   750  HEM750      0.0000
     24  C3C       16.0470    6.5300   20.5740 C.2   750  HEM750      0.0000
     25  C4C       15.5540    6.4070   21.9430 C.2   750  HEM750      0.0000
     26  CMC       17.6460    5.1640   19.0370 C.3   750  HEM750      0.0000
     27  CAC       15.6080    7.6550   19.6030 C.2   750  HEM750      0.0000
     28  CBC       16.4040    8.0430   18.5950 C.2   750  HEM750      0.0000
     29  C1D       13.8840    6.9040   23.7010 C.ar  750  HEM750      0.0000
     30  C2D       12.7450    7.6330   24.1960 C.ar  750  HEM750      0.0000
     31  C3D       12.2390    6.8270   25.3720 C.ar  750  HEM750      0.0000
     32  C4D       13.1090    5.7060   25.4890 C.ar  750  HEM750      0.0000
     33  CMD       12.1400    8.9640   23.6680 C.3   750  HEM750      0.0000
     34  CAD       11.0310    7.1380   26.2630 C.3   750  HEM750      0.0000
     35  CBD        9.8880    6.4560   25.4890 C.3   750  HEM750      0.0000
     36  CGD        8.6020    6.5710   26.2400 C.2   750  HEM750      0.0000
     37  O1D        8.4470    7.5720   26.9970 O.co2 750  HEM750      0.0000
     38  O2D        7.7500    5.6550   26.1060 O.co2 750  HEM750      0.0000
     39  NA        15.0620    3.5130   26.0460 N.2   750  HEM750      0.0000
     40  NB        17.1140    2.9890   24.0390 N.ar  750  HEM750      0.0000
     41  NC        16.1560    5.3120   22.5050 N.2   750  HEM750      0.0000
     42  ND        14.1030    5.8010   24.5260 N.ar  750  HEM750      0.0000
     43 FE         15.6910    4.4690   24.3550 Fe    750  HEM750      0.0000
@<TRIPOS>BOND
     1    28    27    2
     2    26    23    1
     3    27    24    1
     4    23    24    2
     5    23    22    1
     6    24    25    1
     7    21    20    2
     8    22     3    2
     9    22    41    1
    10     3    18    1
    11    25    41    2
    12    25     4    1
    13    20    17    1
    14    41    43    1
    15     4    29    2
    16    18    17   ar
    17    18    40   ar
    18    17    16   ar
    19    33    30    1
    20    29    30   ar
    21    29    42   ar
    22    40    43    1
    23    40    15   ar
    24    30    31   ar
    25    16    15   ar
    26    16    19    1
    27    43    42    1
    28    43    39    1
    29    42    32   ar
    30    15     2    1
    31    31    32   ar
    32    31    34    1
    33    32     1    2
    34    35    36    1
    35    35    34    1
    36    39     8    1
    37    39     5    2
    38    38    36   ar
    39     2     8    2
    40    36    37   ar
    41     1     5    1
    42     8     7    1
    43     5     6    1
    44     7     6    2
    45     7     9    1
    46     6    10    1
    47    11    12    1
    48    11    10    1
    49    14    12   ar
    50    12    13   ar
