@<TRIPOS>MOLECULE
3tyq_HI4_A_1.pdb
 31 34 0 0 0
SMALL
GASTEIGER

@<TRIPOS>ATOM
      1  C1        26.9250   43.0110   42.9140 C.ar  577  HI4577      0.0020
      2  N1        25.1150   43.1700   44.6140 N.ar  577  HI4577     -0.3178
      3  O1        24.0600   46.1750   42.9430 O.co2 577  HI4577     -0.2389
      4  C2        26.7260   44.0590   41.9870 C.ar  577  HI4577      0.0217
      5  N2        21.0940   47.2500   45.4970 N.2   577  HI4577     -0.1747
      6  O2        21.4810   45.3170   44.3130 O.2   577  HI4577     -0.2219
      7  C3        27.8410   44.6940   41.3950 C.ar  577  HI4577      0.1426
      8  N3        27.6490   45.7790   40.4410 N.pl3 577  HI4577      0.0577
      9  O3        23.7670   44.0790   42.1630 O.co2 577  HI4577     -0.2389
     10  C4        29.1470   44.2970   41.7020 C.ar  577  HI4577      0.0241
     11  O4        28.6360   46.4920   40.1830 O.2   577  HI4577     -0.1261
     12  C5        29.3440   43.2630   42.6210 C.ar  577  HI4577      0.0014
     13  O5        26.5290   45.8980   39.9120 O.2   577  HI4577     -0.1261
     14  C6        28.2460   42.6390   43.2230 C.ar  577  HI4577     -0.0023
     15  C7        23.1530   45.9410   45.9300 C.2   577  HI4577      0.0848
     16  C8        24.4370   43.8550   48.0520 C.ar  577  HI4577     -0.0028
     17  C9        25.0650   42.8140   48.7580 C.ar  577  HI4577     -0.0221
     18  C10       24.4980   43.8980   46.6410 C.ar  577  HI4577      0.0178
     19  C11       25.2020   42.8920   45.9610 C.ar  577  HI4577      0.0603
     20  C12       24.3800   44.3280   44.3990 C.ar  577  HI4577      0.1416
     21  C13       23.9730   44.7820   45.6580 C.ar  577  HI4577      0.0347
     22  C14       25.7540   41.8200   48.0550 C.ar  577  HI4577     -0.0028
     23  C15       25.8360   41.8450   46.6510 C.ar  577  HI4577      0.0169
     24  C16       24.0830   44.9700   43.1320 C.2   577  HI4577      0.4033
     25  C17       25.7460   42.3260   43.5730 C.3   577  HI4577      0.1330
     26  C18       21.8470   46.1290   45.1750 C.1   577  HI4577      0.1545
     27  C19       21.4760   48.1670   46.4540 C.2   577  HI4577      0.1111
     28  C20       22.6190   47.9980   47.1370 C.2   577  HI4577      0.0222
     29  C21       23.4710   46.8560   46.8660 C.2   577  HI4577      0.0133
     30  C22       24.9970   42.7670   50.2720 C.3   577  HI4577      0.0264
     31  C23       23.9360   41.7910   50.7480 C.3   577  HI4577      0.0050
@<TRIPOS>BOND
     1    13     8    2
     2    11     8    2
     3     8     7    1
     4     7    10   ar
     5     7     4   ar
     6    10    12   ar
     7     4     1   ar
     8     9    24   ar
     9    12    14   ar
    10     1    14   ar
    11     1    25    1
    12     3    24   ar
    13    24    20    1
    14    25     2    1
    15     6    26    2
    16    20     2   ar
    17    20    21   ar
    18     2    19   ar
    19    26     5    2
    20    26    15    1
    21     5    27    1
    22    21    15    1
    23    21    18   ar
    24    15    29    2
    25    19    18   ar
    26    19    23   ar
    27    27    28    2
    28    18    16   ar
    29    23    22   ar
    30    29    28    1
    31    16    17   ar
    32    22    17   ar
    33    17    30    1
    34    30    31    1
