@<TRIPOS>MOLECULE
3tyu_PT1_A_1.pdb
 23 25 0 0 0
SMALL
GASTEIGER

@<TRIPOS>ATOM
      1  C2        20.6690    3.3250    2.8020 C.1   301  PT1301      0.2569
      2  C3        20.5330    3.9260    4.0510 C.2   301  PT1301      0.2988
      3  C5        19.6140    3.3930    4.9500 C.1   301  PT1301      0.1401
      4  N6        21.2750    5.0000    4.4090 N.2   301  PT1301     -0.3839
      5  C7        19.0240    1.7510    3.3890 C.1   301  PT1301      0.2609
      6  N9        18.8770    2.3200    4.6100 N.2   301  PT1301     -0.2672
      7  C10       21.1130    5.5640    5.6330 C.2   301  PT1301      0.1356
      8  N11       18.2710    0.6760    3.0720 N.pl3 301  PT1301     -0.0220
      9  C12       20.1980    5.0090    6.5160 C.3   301  PT1301      0.1931
     10  C21       27.0910    9.6590    3.0630 C.2   301  PT1301      0.3878
     11  O22       28.1590    9.1720    2.6600 O.co2 301  PT1301     -0.2406
     12  O1        21.5510    3.8060    1.9050 O.2   301  PT1301     -0.2052
     13  N4        19.9170    2.2440    2.4900 N.2   301  PT1301     -0.2466
     14  N8        19.4600    3.9490    6.1600 N.2   301  PT1301     -0.1992
     15  C13       21.9470    6.7600    6.0410 C.3   301  PT1301      0.1683
     16  N14       23.2520    6.3420    5.5540 N.pl3 301  PT1301     -0.2303
     17  C15       24.1710    7.1410    4.9540 C.ar  301  PT1301      0.0658
     18  C16       23.9170    8.5080    4.7880 C.ar  301  PT1301      0.0163
     19  C17       25.3780    6.5800    4.5120 C.ar  301  PT1301      0.0163
     20  C18       24.8690    9.3210    4.1770 C.ar  301  PT1301      0.0079
     21  C19       26.3310    7.3930    3.9020 C.ar  301  PT1301      0.0079
     22  C20       26.0770    8.7650    3.7290 C.ar  301  PT1301      0.0799
     23  O23       26.8570   10.8750    2.9270 O.co2 301  PT1301     -0.2406
@<TRIPOS>BOND
     1    12     1    2
     2    13     1    2
     3    13     5    2
     4    11    10   ar
     5     1     2    1
     6    23    10   ar
     7    10    22    1
     8     8     5    1
     9     5     6    2
    10    22    21   ar
    11    22    20   ar
    12    21    19   ar
    13     2     4    2
    14     2     3    1
    15    20    18   ar
    16     4     7    2
    17    19    17   ar
    18     6     3    2
    19    18    17   ar
    20     3    14    2
    21    17    16    1
    22    16    15    1
    23     7    15    1
    24     7     9    1
    25    14     9    1
