@<TRIPOS>MOLECULE
3tyv_HI3_A_1.pdb
 36 40 0 0 0
SMALL
GASTEIGER

@<TRIPOS>ATOM
      1  C1        29.6190   45.0430   42.6510 C.ar  578  HI3578      0.0319
      2  F1        29.2330   46.3300   44.6090 F     578  HI3578     -0.2042
      3  N1        25.1840   43.5020   44.4850 N.ar  578  HI3578     -0.3192
      4  O1        21.5600   45.6500   44.1330 O.2   578  HI3578     -0.2219
      5  S1        24.2650   45.2990   40.4500 S.O2  578  HI3578      0.0742
      6  C2        29.1940   44.0230   41.7920 C.ar  578  HI3578      0.0317
      7  F2        27.5940   42.3560   41.2550 F     578  HI3578     -0.2044
      8  N2        21.0890   47.4830   45.4480 N.2   578  HI3578     -0.1747
      9  O2        24.3540   46.6540   43.0750 O.2   578  HI3578     -0.2651
     10  C3        24.3420   43.9590   47.9310 C.ar  578  HI3578     -0.0005
     11  F3        26.2940   40.9330   48.3990 F     578  HI3578     -0.2045
     12  N3        24.0850   44.6680   41.9920 N.am  578  HI3578     -0.0578
     13  O3        23.8690   44.2510   39.5310 O.2   578  HI3578     -0.1528
     14  C4        27.6930   44.6440   44.0650 C.ar  578  HI3578      0.0295
     15  O4        23.6720   46.5930   40.3360 O.2   578  HI3578     -0.1528
     16  C5        25.8050   42.0410   46.4200 C.ar  578  HI3578      0.0465
     17  C6        24.4530   44.0760   46.5210 C.ar  578  HI3578      0.0179
     18  C7        23.9650   45.0180   45.5880 C.ar  578  HI3578      0.0327
     19  C8        24.9840   42.8910   48.5780 C.ar  578  HI3578      0.0057
     20  C9        27.2460   43.6000   43.2150 C.ar  578  HI3578      0.0301
     21  C10       25.1900   43.1230   45.8030 C.ar  578  HI3578      0.0625
     22  C11       28.8650   45.3460   43.7740 C.ar  578  HI3578      0.1400
     23  C12       28.0140   43.3160   42.0780 C.ar  578  HI3578      0.1381
     24  C13       25.6770   41.9510   47.8070 C.ar  578  HI3578      0.1376
     25  C14       24.4630   44.6690   44.3290 C.ar  578  HI3578      0.1182
     26  C15       22.5050   48.1260   47.2370 C.2   578  HI3578      0.0222
     27  C16       23.3870   47.0160   46.9370 C.2   578  HI3578      0.0133
     28  C17       21.3990   48.3320   46.4930 C.2   578  HI3578      0.1111
     29  C18       23.1320   46.1590   45.9050 C.2   578  HI3578      0.0848
     30  C19       21.8670   46.3970   45.0920 C.1   578  HI3578      0.1545
     31  C20       24.3030   45.4280   43.1210 C.2   578  HI3578      0.3012
     32  C21       26.6340   46.7300   40.5350 C.3   578  HI3578      0.0274
     33  C22       26.4440   46.3480   39.0890 C.3   578  HI3578      0.0274
     34  C23       26.0540   45.4010   40.1820 C.3   578  HI3578      0.1510
     35  C24       24.9070   42.7410   50.0810 C.3   578  HI3578      0.0334
     36  C25       25.9820   42.8120   43.4670 C.3   578  HI3578      0.1351
@<TRIPOS>BOND
     1    33    34    1
     2    33    32    1
     3    13     5    2
     4    34     5    1
     5    34    32    1
     6    15     5    2
     7     5    12    1
     8     7    23    1
     9     6    23   ar
    10     6     1   ar
    11    12    31   am
    12    23    20   ar
    13     1    22   ar
    14     9    31    2
    15    31    25    1
    16    20    36    1
    17    20    14   ar
    18    36     3    1
    19    22    14   ar
    20    22     2    1
    21     4    30    2
    22    25     3   ar
    23    25    18   ar
    24     3    21   ar
    25    30     8    2
    26    30    29    1
    27     8    28    1
    28    18    29    1
    29    18    17   ar
    30    21    16   ar
    31    21    17   ar
    32    29    27    2
    33    16    24   ar
    34    28    26    2
    35    17    10   ar
    36    27    26    1
    37    24    11    1
    38    24    19   ar
    39    10    19   ar
    40    19    35    1
