@<TRIPOS>MOLECULE
3tyw_HEM_A_1.pdb
 43 50 0 0 0
SMALL
GASTEIGER

@<TRIPOS>ATOM
      1  CHA      -60.8630    3.4680   71.1000 C.2   501  HEM501      0.0000
      2  CHB      -57.9670    0.9260   68.2380 C.2   501  HEM501      0.0000
      3  CHC      -58.2630    4.3640   64.8630 C.2   501  HEM501      0.0000
      4  CHD      -61.1450    6.9220   67.7480 C.2   501  HEM501      0.0000
      5  C1A      -60.0470    2.4580   70.6380 C.2   501  HEM501      0.0000
      6  C2A      -59.7170    1.2130   71.3380 C.2   501  HEM501      0.0000
      7  C3A      -58.9100    0.5180   70.5470 C.2   501  HEM501      0.0000
      8  C4A      -58.7260    1.2760   69.3200 C.2   501  HEM501      0.0000
      9  CMA      -58.2900   -0.8550   70.8260 C.3   501  HEM501      0.0000
     10  CAA      -60.2270    0.8300   72.7450 C.3   501  HEM501      0.0000
     11  CBA      -59.2800    1.2380   73.8590 C.3   501  HEM501      0.0000
     12  CGA      -59.8780    1.0820   75.2400 C.2   501  HEM501      0.0000
     13  O1A      -60.0710   -0.1250   75.6040 O.co2 501  HEM501      0.0000
     14  O2A      -60.1370    2.0950   75.8980 O.co2 501  HEM501      0.0000
     15  C1B      -57.8000    1.6280   67.0680 C.ar  501  HEM501      0.0000
     16  C2B      -56.9800    1.1900   65.9410 C.ar  501  HEM501      0.0000
     17  C3B      -57.0730    2.1470   65.0040 C.ar  501  HEM501      0.0000
     18  C4B      -57.9030    3.2020   65.5270 C.ar  501  HEM501      0.0000
     19  CMB      -56.1990   -0.1330   65.8500 C.3   501  HEM501      0.0000
     20  CAB      -56.4120    2.1810   63.6250 C.3   501  HEM501      0.0000
     21  CBB      -54.8990    2.4180   63.6820 C.3   501  HEM501      0.0000
     22  C1C      -59.0640    5.3720   65.3710 C.2   501  HEM501      0.0000
     23  C2C      -59.4240    6.5940   64.6240 C.2   501  HEM501      0.0000
     24  C3C      -60.2240    7.3070   65.4220 C.2   501  HEM501      0.0000
     25  C4C      -60.3970    6.5470   66.6600 C.2   501  HEM501      0.0000
     26  CMC      -58.9100    6.9330   63.2050 C.3   501  HEM501      0.0000
     27  CAC      -60.8900    8.6710   65.1590 C.3   501  HEM501      0.0000
     28  CBC      -59.9520    9.8800   65.2900 C.3   501  HEM501      0.0000
     29  C1D      -61.3410    6.2260   68.9120 C.ar  501  HEM501      0.0000
     30  C2D      -62.1500    6.6580   70.0580 C.ar  501  HEM501      0.0000
     31  C3D      -62.0680    5.6910   70.9840 C.ar  501  HEM501      0.0000
     32  C4D      -61.2000    4.6510   70.4440 C.ar  501  HEM501      0.0000
     33  CMD      -62.9550    7.9730   70.1510 C.3   501  HEM501      0.0000
     34  CAD      -62.7490    5.6810   72.3570 C.3   501  HEM501      0.0000
     35  CBD      -64.0340    4.8070   72.3560 C.3   501  HEM501      0.0000
     36  CGD      -64.7140    4.7700   73.7080 C.2   501  HEM501      0.0000
     37  O1D      -64.1620    4.1970   74.6700 O.co2 501  HEM501      0.0000
     38  O2D      -65.8270    5.3310   73.7510 O.co2 501  HEM501      0.0000
     39  NA       -59.4340    2.4580   69.4160 N.2   501  HEM501      0.0000
     40  NB       -58.3580    2.8720   66.7860 N.ar  501  HEM501      0.0000
     41  NC       -59.6920    5.3550   66.6050 N.2   501  HEM501      0.0000
     42  ND       -60.7480    4.9840   69.1770 N.ar  501  HEM501      0.0000
     43 FE        -59.5630    3.9240   68.0130 Fe    501  HEM501      0.0000
@<TRIPOS>BOND
     1    26    23    1
     2    20    21    1
     3    20    17    1
     4    23    22    1
     5    23    24    2
     6     3    22    2
     7     3    18    1
     8    17    18   ar
     9    17    16   ar
    10    27    28    1
    11    27    24    1
    12    22    41    1
    13    24    25    1
    14    18    40   ar
    15    19    16    1
    16    16    15   ar
    17    41    25    2
    18    41    43    1
    19    25     4    1
    20    40    15   ar
    21    40    43    1
    22    15     2    1
    23     4    29    2
    24    43    42    1
    25    43    39    1
    26     2     8    2
    27    29    42   ar
    28    29    30   ar
    29    42    32   ar
    30     8    39    1
    31     8     7    1
    32    39     5    2
    33    30    33    1
    34    30    31   ar
    35    32    31   ar
    36    32     1    2
    37     7     9    1
    38     7     6    2
    39     5     1    1
    40     5     6    1
    41    31    34    1
    42     6    10    1
    43    35    34    1
    44    35    36    1
    45    10    11    1
    46    36    38   ar
    47    36    37   ar
    48    11    12    1
    49    12    13   ar
    50    12    14   ar
