@<TRIPOS>MOLECULE
3tyx_AMP_A_1.pdb
 23 25 0 0 0
SMALL
GASTEIGER

@<TRIPOS>ATOM
      1  P        -12.3490   36.4230  -11.7760 P.3   401  AMP401      0.5327
      2  O1P      -13.2870   37.5910  -11.4140 O.3   401  AMP401     -0.1145
      3  O2P      -13.0310   35.1050  -11.5150 O.2   401  AMP401     -0.2224
      4  O3P      -10.9440   36.5270  -11.3000 O.3   401  AMP401     -0.1145
      5  O5'      -12.3440   36.3360  -13.3910 O.3   401  AMP401     -0.2675
      6  C5'      -11.4000   37.0940  -14.0670 C.3   401  AMP401      0.1860
      7  C4'      -11.9890   37.7710  -15.2570 C.3   401  AMP401      0.1823
      8  O4'      -11.6100   37.0060  -16.4150 O.3   401  AMP401     -0.3135
      9  C3'      -13.4680   37.8710  -15.4360 C.3   401  AMP401      0.2184
     10  O3'      -14.0610   38.9530  -14.7810 O.3   401  AMP401     -0.2174
     11  C2'      -13.4800   38.2650  -16.8880 C.3   401  AMP401      0.2570
     12  O2'      -12.8560   39.6040  -16.9660 O.3   401  AMP401     -0.2130
     13  C1'      -12.4510   37.3870  -17.5150 C.3   401  AMP401      0.3186
     14  N9       -12.9690   36.1380  -18.0930 N.pl3 401  AMP401     -0.1439
     15  C8       -12.9150   34.9390  -17.5230 C.3   401  AMP401      0.3377
     16  N7       -13.4340   34.0120  -18.3500 N.2   401  AMP401     -0.2095
     17  C5       -13.8020   34.6630  -19.4660 C.2   401  AMP401      0.2526
     18  C6       -14.4230   34.2890  -20.7270 C.2   401  AMP401      0.4393
     19  N6       -14.7270   32.9960  -20.9310 N.pl3 401  AMP401      0.2180
     20  N1       -14.6990   35.2580  -21.6400 N.2   401  AMP401      0.0021
     21  C2       -14.3590   36.5400  -21.4290 C.3   401  AMP401      0.5254
     22  N3       -13.7700   36.9740  -20.2900 N.2   401  AMP401     -0.0055
     23  C4       -13.5000   36.0700  -19.2950 C.2   401  AMP401      0.3518
@<TRIPOS>BOND
     1    20    21    1
     2    20    18    2
     3    21    22    1
     4    19    18    1
     5    18    17    1
     6    22    23    2
     7    17    23    1
     8    17    16    2
     9    23    14    1
    10    16    15    1
    11    14    15    1
    12    14    13    1
    13    13    11    1
    14    13     8    1
    15    12    11    1
    16    11     9    1
    17     8     7    1
    18     9     7    1
    19     9    10    1
    20     7     6    1
    21     6     5    1
    22     5     1    1
    23     1     3    2
    24     1     2    1
    25     1     4    1
