@<TRIPOS>MOLECULE
3tyz_XHP_A_1.pdb
 13 14 0 0 0
SMALL
GASTEIGER

@<TRIPOS>ATOM
      1  N1        15.9560   18.4350   41.5050 N.2   278  XHP278     -0.2672
      2  C2        15.7530   19.0050   40.3700 C.1   278  XHP278      0.2609
      3  N2        16.3610   20.1300   40.1120 N.pl3 278  XHP278     -0.0220
      4  N3        14.9250   18.4800   39.4160 N.2   278  XHP278     -0.2466
      5  C4        14.2350   17.3230   39.5820 C.1   278  XHP278      0.2569
      6  O4        13.4950   16.8900   38.7050 O.2   278  XHP278     -0.2052
      7  N5        13.7780   15.5030   41.0650 N.2   278  XHP278     -0.3856
      8  C6        13.9630   14.8300   42.3180 C.2   278  XHP278      0.1143
      9  C7        14.8660   15.3900   43.3870 C.3   278  XHP278      0.1913
     10  N8        15.4970   16.6440   42.9760 N.2   278  XHP278     -0.1993
     11  C9        15.2930   17.1910   41.8400 C.1   278  XHP278      0.1401
     12  C10       14.3910   16.5950   40.8480 C.2   278  XHP278      0.2988
     13  C6A       13.3300   13.6860   42.5470 C.3   278  XHP278      0.0637
@<TRIPOS>BOND
     1     6     5    2
     2     4     5    2
     3     4     2    2
     4     5    12    1
     5     3     2    1
     6     2     1    2
     7    12     7    2
     8    12    11    1
     9     7     8    2
    10     1    11    2
    11    11    10    2
    12     8    13    1
    13     8     9    1
    14    10     9    1
