@<TRIPOS>MOLECULE
3tyz_PAB_A_1.pdb
 10 10 0 0 0
SMALL
GASTEIGER

@<TRIPOS>ATOM
      1  C1'        8.1090   10.7590   40.1850 C.2   280  PAB280      0.3878
      2  O1'        7.3140   11.2490   39.3850 O.co2 280  PAB280     -0.2406
      3  O2'        8.3390    9.4420   40.1810 O.co2 280  PAB280     -0.2406
      4  C1         8.8330   11.6190   41.1790 C.ar  280  PAB280      0.0799
      5  C2         8.4930   12.9650   41.3260 C.ar  280  PAB280      0.0080
      6  C3         9.1620   13.7550   42.2530 C.ar  280  PAB280      0.0183
      7  C4        10.1710   13.1940   43.0370 C.ar  280  PAB280      0.0891
      8  C5        10.5200   11.8470   42.8970 C.ar  280  PAB280      0.0183
      9  C6         9.8510   11.0600   41.9630 C.ar  280  PAB280      0.0080
     10  N4        10.8310   13.9720   43.9340 N.pl3 280  PAB280     -0.1281
@<TRIPOS>BOND
     1     2     1   ar
     2     3     1   ar
     3     1     4    1
     4     4     5   ar
     5     4     9   ar
     6     5     6   ar
     7     9     8   ar
     8     6     7   ar
     9     8     7   ar
    10     7    10    1
