@<TRIPOS>MOLECULE
3tz2_CLT_A_1.pdb
 12 12 0 0 0
SMALL
GASTEIGER

@<TRIPOS>ATOM
      1  CA        -8.6830  -30.5350   13.8320 C.3   389  CLT389      0.1144
      2  CB1       -8.6110  -30.7960   15.3300 C.3   389  CLT389      0.0165
      3  CG        -9.6020  -31.8570   15.8270 C.3   389  CLT389      0.0269
      4  CD        -9.1840  -32.0500   17.2600 C.ar  389  CLT389     -0.0222
      5  CE1       -8.3560  -33.1120   17.6030 C.ar  389  CLT389     -0.0043
      6  CE2       -9.5810  -31.1320   18.2230 C.ar  389  CLT389     -0.0043
      7  CZ1       -7.9520  -33.2580   18.9230 C.ar  389  CLT389     -0.0003
      8  CZ2       -9.1740  -31.2800   19.5440 C.ar  389  CLT389     -0.0003
      9  CH        -8.3550  -32.3430   19.8960 C.ar  389  CLT389     -0.0000
     10  CB2       -7.8670  -31.5690   13.0930 C.2   389  CLT389      0.3649
     11  OG1       -8.0970  -31.7600   11.8760 O.co2 389  CLT389     -0.2457
     12  OG2       -6.9920  -32.1990   13.7260 O.co2 389  CLT389     -0.2457
@<TRIPOS>BOND
     1    11    10   ar
     2    10    12   ar
     3    10     1    1
     4     1     2    1
     5     2     3    1
     6     3     4    1
     7     4     5   ar
     8     4     6   ar
     9     5     7   ar
    10     6     8   ar
    11     7     9   ar
    12     8     9   ar
