@<TRIPOS>MOLECULE
3tz3_B36_A_1.pdb
 34 39 0 0 0
SMALL
GASTEIGER

@<TRIPOS>ATOM
      1  CBE        4.1870   49.8160   26.6490 C.ar  2242  B362242     0.0044
      2  CAK        3.2970   48.7570   26.7250 C.ar  2242  B362242     0.0001
      3  CAE        2.0900   48.9290   27.3630 C.ar  2242  B362242     0.0000
      4  CAC        1.7810   50.1640   27.9030 C.ar  2242  B362242     0.0000
      5  CAI        2.6540   51.2290   27.8150 C.ar  2242  B362242     0.0000
      6  CBB        3.8600   51.0520   27.1810 C.ar  2242  B362242     0.0001
      7  CAP        4.7370   52.1070   27.1180 C.ar  2242  B362242     0.0000
      8  CBC        5.9560   51.9310   26.5050 C.ar  2242  B362242     0.0001
      9  CAJ        6.8320   53.0000   26.4480 C.ar  2242  B362242     0.0000
     10  CAD        8.0790   52.8330   25.8840 C.ar  2242  B362242     0.0000
     11  CAF        8.4270   51.6100   25.3560 C.ar  2242  B362242     0.0000
     12  CAL        7.5480   50.5500   25.3890 C.ar  2242  B362242     0.0001
     13  CBF        6.3150   50.6960   25.9810 C.ar  2242  B362242     0.0044
     14  CAZ        5.4240   49.6420   26.0570 C.ar  2242  B362242     0.0536
     15  CAW        5.7670   48.2870   25.5610 C.2   2242  B362242     0.2490
     16  OAB        6.3120   47.5440   26.3780 O.2   2242  B362242    -0.2699
     17  NBH        5.3840   47.9530   24.2580 N.am  2242  B362242    -0.2761
     18  CAT        5.6840   46.6300   23.7580 C.3   2242  B362242     0.0937
     19  CAR        6.7170   46.7370   22.6560 C.3   2242  B362242     0.0219
     20  CAS        4.9290   48.9370   23.2970 C.3   2242  B362242     0.0937
     21  CAQ        5.8810   49.0450   22.1240 C.3   2242  B362242     0.0219
     22  CBG        6.1950   47.6640   21.5680 C.3   2242  B362242     0.0078
     23  CAU        7.1480   47.6980   20.4000 C.3   2242  B362242     0.0265
     24  CAY        6.6760   48.6230   19.3340 C.ar  2242  B362242    -0.0220
     25  CAO        7.4930   49.6630   18.9570 C.ar  2242  B362242    -0.0020
     26  CBA        7.0730   50.5280   17.9730 C.ar  2242  B362242     0.0254
     27  CAM        7.9290   51.5490   17.6230 C.2   2242  B362242    -0.0165
     28  CAG        7.5470   52.4140   16.6250 C.3   2242  B362242     0.0804
     29  CAX        6.3180   52.2280   16.0310 C.2   2242  B362242     0.0914
     30  CAA        5.9340   53.1900   14.9710 C.3   2242  B362242     0.0618
     31  NAV        5.4540   51.2540   16.3680 N.2   2242  B362242    -0.4102
     32  CBD        5.8420   50.4030   17.3370 C.ar  2242  B362242     0.1302
     33  CAN        5.0350   49.3500   17.7220 C.ar  2242  B362242     0.0317
     34  CAH        5.4520   48.4700   18.7030 C.ar  2242  B362242    -0.0016
@<TRIPOS>BOND
     1    30    29    1
     2    29    31    2
     3    29    28    1
     4    31    32    2
     5    28    27    1
     6    32    33   ar
     7    32    26   ar
     8    27    26    2
     9    33    34   ar
    10    26    25   ar
    11    34    24   ar
    12    25    24   ar
    13    24    23    1
    14    23    22    1
    15    22    21    1
    16    22    19    1
    17    21    20    1
    18    19    18    1
    19    20    17    1
    20    18    17    1
    21    17    15   am
    22    11    12   ar
    23    11    10   ar
    24    12    13   ar
    25    15    14    1
    26    15    16    2
    27    10     9   ar
    28    13    14   ar
    29    13     8   ar
    30    14     1   ar
    31     9     8   ar
    32     8     7   ar
    33     1     2   ar
    34     1     6   ar
    35     2     3   ar
    36     7     6   ar
    37     6     5   ar
    38     3     4   ar
    39     5     4   ar
