@<TRIPOS>MOLECULE
3tz4_ADP_A_1.pdb
 27 29 0 0 0
SMALL
GASTEIGER

@<TRIPOS>ATOM
      1  PB         4.7580  -32.7380   -4.6700 P.3   389  ADP389      0.5373
      2  O1B        6.0240  -33.2640   -4.0660 O.3   389  ADP389     -0.1143
      3  O2B        4.8960  -32.3970   -6.1330 O.2   389  ADP389     -0.2221
      4  O3B        3.5070  -33.5020   -4.2800 O.3   389  ADP389     -0.1143
      5  PA         5.5960  -30.3890   -3.2620 P.3   389  ADP389      0.2231
      6  O1A        6.3730  -31.1310   -2.2350 O.3   389  ADP389     -0.4370
      7  O2A        4.8800  -29.2130   -2.7150 O.2   389  ADP389     -0.5169
      8  O3A        4.4710  -31.3320   -3.9380 O.3   389  ADP389     -0.2261
      9  O5'        6.5790  -29.9950   -4.4770 O.3   389  ADP389     -0.3111
     10  C5'        6.1540  -29.0560   -5.4540 C.3   389  ADP389      0.1813
     11  C4'        7.0120  -29.1940   -6.6920 C.3   389  ADP389      0.1821
     12  O4'        8.2350  -28.4960   -6.4590 O.3   389  ADP389     -0.3135
     13  C3'        7.4050  -30.6300   -7.0000 C.3   389  ADP389      0.2184
     14  O3'        6.4220  -31.3040   -7.8080 O.3   389  ADP389     -0.2174
     15  C2'        8.7280  -30.4520   -7.7110 C.3   389  ADP389      0.2570
     16  O2'        8.5110  -30.1710   -9.0970 O.3   389  ADP389     -0.2130
     17  C1'        9.2930  -29.1770   -7.1150 C.3   389  ADP389      0.3186
     18  N9        10.3300  -29.4530   -6.0990 N.pl3 389  ADP389     -0.1439
     19  C8        10.1730  -29.4540   -4.7590 C.3   389  ADP389      0.3377
     20  N7        11.3490  -29.7490   -4.1460 N.2   389  ADP389     -0.2095
     21  C5        12.2740  -29.9280   -5.1100 C.2   389  ADP389      0.2526
     22  C6        13.7130  -30.2440   -5.1680 C.2   389  ADP389      0.4393
     23  N6        14.4250  -30.4520   -4.0320 N.pl3 389  ADP389      0.2180
     24  N1        14.2780  -30.3390   -6.3960 N.2   389  ADP389      0.0021
     25  C2        13.5910  -30.1650   -7.5400 C.3   389  ADP389      0.5254
     26  N3        12.2830  -29.8720   -7.5620 N.2   389  ADP389     -0.0055
     27  C4        11.5950  -29.7370   -6.3980 C.2   389  ADP389      0.3518
@<TRIPOS>BOND
     1    16    15    1
     2    14    13    1
     3    15    17    1
     4    15    13    1
     5    26    25    1
     6    26    27    2
     7    25    24    1
     8    17    12    1
     9    17    18    1
    10    13    11    1
    11    11    12    1
    12    11    10    1
    13    27    18    1
    14    27    21    1
    15    24    22    2
    16     3     1    2
    17    18    19    1
    18    10     9    1
    19    22    21    1
    20    22    23    1
    21    21    20    2
    22    19    20    1
    23     1     4    1
    24     1     2    1
    25     1     8    1
    26     9     5    1
    27     8     5    1
    28     5     7    2
    29     5     6    1
