@<TRIPOS>MOLECULE
3tz5_ADP_A_1.pdb
 27 29 0 0 0
SMALL
GASTEIGER

@<TRIPOS>ATOM
      1  PB         4.8940  -32.8720   -4.6610 P.3   389  ADP389      0.5373
      2  O1B        6.2080  -33.4160   -4.1600 O.3   389  ADP389     -0.1143
      3  O2B        4.9470  -32.6310   -6.1380 O.2   389  ADP389     -0.2221
      4  O3B        3.6960  -33.6470   -4.1480 O.3   389  ADP389     -0.1143
      5  PA         5.6640  -30.4990   -3.1830 P.3   389  ADP389      0.2231
      6  O1A        6.4450  -31.3400   -2.2070 O.3   389  ADP389     -0.4370
      7  O2A        4.9370  -29.3370   -2.6040 O.2   389  ADP389     -0.5169
      8  O3A        4.5930  -31.4210   -3.9860 O.3   389  ADP389     -0.2261
      9  O5'        6.6570  -30.0070   -4.3530 O.3   389  ADP389     -0.3111
     10  C5'        6.1610  -29.1610   -5.3840 C.3   389  ADP389      0.1813
     11  C4'        7.0030  -29.3030   -6.6270 C.3   389  ADP389      0.1821
     12  O4'        8.2410  -28.6160   -6.4470 O.3   389  ADP389     -0.3135
     13  C3'        7.3700  -30.7450   -6.9410 C.3   389  ADP389      0.2184
     14  O3'        6.3430  -31.3490   -7.7210 O.3   389  ADP389     -0.2174
     15  C2'        8.6520  -30.5650   -7.7290 C.3   389  ADP389      0.2570
     16  O2'        8.3690  -30.1520   -9.0740 O.3   389  ADP389     -0.2130
     17  C1'        9.2800  -29.3330   -7.1120 C.3   389  ADP389      0.3186
     18  N9        10.3300  -29.6260   -6.1110 N.pl3 389  ADP389     -0.1439
     19  C8        10.1600  -29.6460   -4.7650 C.3   389  ADP389      0.3377
     20  N7        11.3320  -29.9080   -4.1310 N.2   389  ADP389     -0.2095
     21  C5        12.2770  -30.0470   -5.0820 C.2   389  ADP389      0.2526
     22  C6        13.7260  -30.3410   -5.1160 C.2   389  ADP389      0.4393
     23  N6        14.4340  -30.5330   -3.9740 N.pl3 389  ADP389      0.2180
     24  N1        14.3220  -30.4100   -6.3310 N.2   389  ADP389      0.0021
     25  C2        13.6480  -30.2290   -7.4820 C.3   389  ADP389      0.5254
     26  N3        12.3330  -29.9640   -7.5290 N.2   389  ADP389     -0.0055
     27  C4        11.6090  -29.8620   -6.3860 C.2   389  ADP389      0.3518
@<TRIPOS>BOND
     1    16    15    1
     2    15    17    1
     3    15    13    1
     4    14    13    1
     5    26    25    1
     6    26    27    2
     7    25    24    1
     8    17    12    1
     9    17    18    1
    10    13    11    1
    11    11    12    1
    12    11    10    1
    13    27    18    1
    14    27    21    1
    15    24    22    2
    16     3     1    2
    17    18    19    1
    18    10     9    1
    19    22    21    1
    20    22    23    1
    21    21    20    2
    22    19    20    1
    23     1     2    1
    24     1     4    1
    25     1     8    1
    26     9     5    1
    27     8     5    1
    28     5     7    2
    29     5     6    1
