@<TRIPOS>MOLECULE
3tz5_CLT_A_1.pdb
 12 12 0 0 0
SMALL
GASTEIGER

@<TRIPOS>ATOM
      1  CA        -8.6260  -30.4650   13.9390 C.3   392  CLT392      0.1144
      2  CB1       -8.7520  -30.8110   15.4140 C.3   392  CLT392      0.0165
      3  CG        -9.7530  -31.9240   15.7810 C.3   392  CLT392      0.0269
      4  CD        -9.4770  -32.0210   17.2570 C.ar  392  CLT392     -0.0222
      5  CE1       -8.4870  -32.8730   17.7190 C.ar  392  CLT392     -0.0043
      6  CE2      -10.1470  -31.1860   18.1420 C.ar  392  CLT392     -0.0043
      7  CZ1       -8.2020  -32.9090   19.0790 C.ar  392  CLT392     -0.0003
      8  CZ2       -9.8530  -31.2210   19.5040 C.ar  392  CLT392     -0.0003
      9  CH        -8.8790  -32.0910   19.9760 C.ar  392  CLT392     -0.0000
     10  CB2       -8.0310  -31.6060   13.1560 C.2   392  CLT392      0.3649
     11  OG1       -8.3940  -31.7100   11.9690 O.co2 392  CLT392     -0.2457
     12  OG2       -7.2200  -32.3870   13.7150 O.co2 392  CLT392     -0.2457
@<TRIPOS>BOND
     1    11    10   ar
     2    10    12   ar
     3    10     1    1
     4     1     2    1
     5     2     3    1
     6     3     4    1
     7     4     5   ar
     8     4     6   ar
     9     5     7   ar
    10     6     8   ar
    11     7     9   ar
    12     8     9   ar
