@<TRIPOS>MOLECULE
3tz7_AQB_A_1.pdb
 46 50 0 0 0
SMALL
GASTEIGER

@<TRIPOS>ATOM
      1  N1         9.5820   35.8260    7.9810 N.2   601  AQB601     -0.0327
      2  C2        10.8360   35.4990    7.6780 C.3   601  AQB601      0.3920
      3  N3        11.5960   36.2730    6.9080 N.2   601  AQB601     -0.2184
      4  C4        11.1080   37.4230    6.4020 C.2   601  AQB601      0.0878
      5  C5         9.7920   37.8000    6.6960 C.2   601  AQB601      0.1045
      6  C6         9.0190   36.9530    7.5040 C.2   601  AQB601      0.3645
      7  CAA        9.1650   44.7170   -1.0770 C.3   601  AQB601      0.0897
      8  CAB        7.0680   43.6870   -0.4200 C.3   601  AQB601      0.0897
      9  CAC       -0.2850   27.3730    8.1880 C.3   601  AQB601      0.0060
     10  CAD       -0.1550   28.3330    5.9160 C.3   601  AQB601      0.0060
     11  CAE        1.9440   27.8640    7.2510 C.3   601  AQB601      0.0060
     12  NAF       -1.8810   35.9350    9.1950 N.pl3 601  AQB601     -0.1280
     13  OAG       11.3270   41.6790    3.6370 O.2   601  AQB601     -0.2730
     14  OAH        3.5310   32.4780    7.6190 O.2   601  AQB601     -0.2484
     15  CAI       -3.2850   32.7840   10.3740 C.ar  601  AQB601      0.0029
     16  CAJ       -3.1340   34.1540   10.1460 C.ar  601  AQB601      0.0182
     17  CAK       -2.3430   31.8830    9.8770 C.ar  601  AQB601      0.0193
     18  CAL        4.2870   36.3780    8.1300 C.ar  601  AQB601      0.0203
     19  CAM        5.6090   34.4740    8.7460 C.ar  601  AQB601      0.0203
     20  CAN        5.4530   37.0990    7.8920 C.ar  601  AQB601      0.0457
     21  CAO        6.7820   35.2040    8.5090 C.ar  601  AQB601      0.0457
     22  CAP       11.3860   39.4140    5.0770 C.2   601  AQB601      0.0181
     23  CAR       11.9070   38.2290    5.5910 C.2   601  AQB601      0.0204
     24  CAS       -1.1050   33.7210    8.9160 C.ar  601  AQB601      0.0372
     25  CAT        1.4740   30.6040    7.9200 C.ar  601  AQB601      0.0527
     26  CAU        9.2800   38.9960    6.1760 C.2   601  AQB601      0.0256
     27  CAV        8.8800   42.7160    2.0800 C.3   601  AQB601      0.0270
     28  CAW        9.3100   42.9570    3.5370 C.3   601  AQB601      0.0886
     29  CAX        8.8770   44.0080    1.2330 C.3   601  AQB601      0.0727
     30  NBA       -0.6530   30.3470    8.3060 N.ar  601  AQB601     -0.1683
     31  NBB        9.5440   40.9440    4.8690 N.am  601  AQB601     -0.1792
     32  NBC        3.1880   34.4030    8.7700 N.am  601  AQB601     -0.1606
     33  NBD        1.5860   32.8470    8.7040 N.am  601  AQB601     -0.1418
     34  NBE        7.7650   37.3010    7.8180 N.pl3 601  AQB601     -0.0060
     35  CBF       10.1620   41.7860    4.0250 C.2   601  AQB601      0.2456
     36  CBG        2.8130   33.1970    8.3160 C.2   601  AQB601      0.3491
     37  CBH       -2.0410   34.6270    9.4170 C.ar  601  AQB601      0.0906
     38  CBI        4.3480   35.0520    8.5490 C.ar  601  AQB601      0.0752
     39  CBJ        6.7060   36.5250    8.0690 C.ar  601  AQB601      0.1835
     40  CBK       10.0770   39.8140    5.3700 C.2   601  AQB601      0.0737
     41  CBL       -1.2390   32.3500    9.1560 C.ar  601  AQB601      0.0856
     42  CBM        0.4470   29.7590    7.8510 C.ar  601  AQB601      0.0811
     43  CBN        0.9500   31.7070    8.4330 C.ar  601  AQB601      0.1587
     44  NBR        8.5310   43.7230   -0.1840 N.3   601  AQB601     -0.2703
     45  NBS       -0.3460   31.4860    8.6610 N.ar  601  AQB601     -0.2145
     46  CBT        0.4930   28.3260    7.3030 C.3   601  AQB601      0.0372
@<TRIPOS>BOND
     1     7    44    1
     2     8    44    1
     3    44    29    1
     4    29    27    1
     5    27    28    1
     6    28    35    1
     7    13    35    2
     8    35    31    1
     9    31    40    2
    10    22    40    1
    11    22    23    2
    12    40    26    1
    13    23     4    1
    14    10    46    1
    15    26     5    2
    16     4     5    1
    17     4     3    2
    18     5     6    1
    19     3     2    1
    20    11    46    1
    21    46    42    1
    22    46     9    1
    23     6    34    1
    24     6     1    2
    25    14    36    2
    26     2     1    1
    27    34    39    1
    28    42    25   ar
    29    42    30   ar
    30    20    39   ar
    31    20    18   ar
    32    25    43   ar
    33    39    21   ar
    34    18    38   ar
    35    30    45   ar
    36    36    33   am
    37    36    32   am
    38    43    45   ar
    39    43    33    1
    40    21    19   ar
    41    38    19   ar
    42    38    32    1
    43    45    41    1
    44    24    41   ar
    45    24    37   ar
    46    41    17   ar
    47    12    37    1
    48    37    16   ar
    49    17    15   ar
    50    16    15   ar
