@<TRIPOS>MOLECULE
3tz8_AQM_A_1.pdb
 49 54 0 0 0
SMALL
GASTEIGER

@<TRIPOS>ATOM
      1  N1       -10.2940   35.7310   -8.3680 N.2     1  AQM1       -0.0327
      2  C2       -11.5210   35.2570   -8.2100 C.3     1  AQM1        0.3917
      3  N3       -12.4310   35.9160   -7.5100 N.2     1  AQM1       -0.2225
      4  C4       -12.1310   37.0910   -6.9320 C.2     1  AQM1        0.0699
      5  C5       -10.8490   37.6280   -7.0690 C.2     1  AQM1        0.1008
      6  C6        -9.9120   36.9010   -7.8130 C.2     1  AQM1        0.3642
      7  CAA       -9.4080   45.5960    1.4820 C.3     1  AQM1        0.0897
      8  CAB       -2.2430   28.2420   -6.6600 C.3     1  AQM1        0.0060
      9  CAC       -2.0860   27.2100   -8.9120 C.3     1  AQM1        0.0060
     10  CAD       -0.0100   27.9260   -7.7230 C.3     1  AQM1        0.0060
     11  NAE        1.2330   35.6770  -10.1990 N.pl3   1  AQM1       -0.1280
     12  OAF       -9.1230   41.0540   -5.6150 O.2     1  AQM1       -0.2729
     13  OAG       -4.3010   32.6590   -8.1360 O.2     1  AQM1       -0.2484
     14  CAH        2.0850   32.4170  -11.5190 C.ar    1  AQM1        0.0029
     15  CAI        2.1210   33.7850  -11.2630 C.ar    1  AQM1        0.0182
     16  CAJ        1.0910   31.6350  -10.9400 C.ar    1  AQM1        0.0193
     17  CAK       -6.3100   35.6290  -10.1940 C.ar    1  AQM1        0.0203
     18  CAL       -5.7230   35.1620   -7.9140 C.ar    1  AQM1        0.0203
     19  CAM       -7.3850   36.4210   -9.7650 C.ar    1  AQM1        0.0457
     20  CAN       -6.7970   35.9490   -7.4780 C.ar    1  AQM1        0.0457
     21  CAO      -12.8030   38.9790   -5.5930 C.2     1  AQM1       -0.0032
     22  CAQ      -13.1010   37.7630   -6.1970 C.3     1  AQM1        0.0731
     23  CAR        0.1710   33.5770   -9.8440 C.ar    1  AQM1        0.0372
     24  CAS       -2.6020   30.4540   -8.8360 C.ar    1  AQM1        0.0527
     25  CAT      -10.5510   38.8510   -6.4610 C.2     1  AQM1        0.0250
     26  CAU      -10.1830   42.6660   -4.1980 C.3     1  AQM1        0.1045
     27  CAV       -8.9920   42.6860   -3.2280 C.3     1  AQM1        0.0819
     28  CAW       -9.4720   45.6710   -0.9360 C.3     1  AQM1        0.0897
     29  CAX       -8.1680   43.9640    0.2110 C.3     1  AQM1        0.0897
     30  CAY       -9.4980   44.8430   -2.2320 C.3     1  AQM1        0.0897
     31  CAZ       -8.1100   43.1560   -1.1030 C.3     1  AQM1        0.0897
     32  NBC       -0.4630   30.2910   -9.1050 N.ar    1  AQM1       -0.1683
     33  NBD      -11.3120   40.7080   -5.0840 N.am    1  AQM1       -0.1795
     34  NBE       -4.4270   34.2460   -9.7380 N.am    1  AQM1       -0.1606
     35  NBF       -2.8180   32.6420   -9.8270 N.am    1  AQM1       -0.1418
     36  NBG       -8.6640   37.3500   -7.9840 N.pl3   1  AQM1       -0.0060
     37  CBH      -10.1540   41.3850   -5.0370 C.2     1  AQM1        0.2470
     38  CBI       -3.8760   33.1570   -9.1790 C.2     1  AQM1        0.3491
     39  CBJ        1.1720   34.3650  -10.4290 C.ar    1  AQM1        0.0906
     40  CBK       -5.4730   34.9760   -9.2820 C.ar    1  AQM1        0.0752
     41  CBL       -7.6390   36.5840   -8.4010 C.ar    1  AQM1        0.1835
     42  CBM      -11.5320   39.5400   -5.7230 C.2     1  AQM1        0.0698
     43  CBN        0.1220   32.2050  -10.1060 C.ar    1  AQM1        0.0856
     44  CBO       -1.5390   29.6720   -8.6400 C.ar    1  AQM1        0.0811
     45  CBP       -2.1180   31.5520   -9.4300 C.ar    1  AQM1        0.1587
     46  NBT       -9.3940   44.7880    0.2480 N.3     1  AQM1       -0.2691
     47  NBU       -9.2900   43.3970   -1.9670 N.3     1  AQM1       -0.2699
     48  NBV       -0.7950   31.3860   -9.5650 N.ar    1  AQM1       -0.2145
     49  CBW       -1.4810   28.2640   -7.9890 C.3     1  AQM1        0.0372
@<TRIPOS>BOND
     1    14    15   ar
     2    14    16   ar
     3    15    39   ar
     4    16    43   ar
     5    39    11    1
     6    39    23   ar
     7    17    19   ar
     8    17    40   ar
     9    43    23   ar
    10    43    48    1
    11    35    45    1
    12    35    38   am
    13    19    41   ar
    14    34    40    1
    15    34    38   am
    16    48    45   ar
    17    48    32   ar
    18    45    24   ar
    19    40    18   ar
    20    38    13    2
    21    32    44   ar
    22     9    49    1
    23    24    44   ar
    24    44    49    1
    25    41    36    1
    26    41    20   ar
    27     1     2    1
    28     1     6    2
    29     2     3    1
    30    49    10    1
    31    49     8    1
    32    36     6    1
    33    18    20   ar
    34     6     5    1
    35     3     4    2
    36     5     4    1
    37     5    25    2
    38     4    22    1
    39    25    42    1
    40    22    21    1
    41    42    21    2
    42    42    33    1
    43    12    37    2
    44    33    37   am
    45    37    26    1
    46    26    27    1
    47    27    47    1
    48    30    47    1
    49    30    28    1
    50    47    31    1
    51    31    29    1
    52    28    46    1
    53    29    46    1
    54    46     7    1
