@<TRIPOS>MOLECULE
3tz9_AQU_A_1.pdb
 37 41 0 0 0
SMALL
GASTEIGER

@<TRIPOS>ATOM
      1  N1       -10.6170   35.0960   -7.4200 N.2     1  AQU1       -0.0327
      2  C2       -11.9020   34.5690   -7.1740 C.3     1  AQU1        0.3917
      3  N3       -12.8230   35.3100   -6.3960 N.2     1  AQU1       -0.2225
      4  C4       -12.4770   36.5090   -5.8920 C.2     1  AQU1        0.0698
      5  C5       -11.2020   37.0330   -6.1340 C.2     1  AQU1        0.0995
      6  C6       -10.2930   36.3020   -6.9000 C.2     1  AQU1        0.3642
      7  CAA       -0.8490   27.3390   -7.5570 C.3     1  AQU1        0.0060
      8  CAB       -1.5300   28.3560   -5.3980 C.3     1  AQU1        0.0060
      9  CAC       -3.2620   27.6610   -7.0910 C.3     1  AQU1        0.0060
     10  NAD        0.4410   36.0350   -8.5920 N.pl3   1  AQU1       -0.1280
     11  OAE       -4.7450   32.5170   -7.0270 O.2     1  AQU1       -0.2484
     12  CAF      -13.0130   38.4620   -4.6060 C.2     1  AQU1       -0.0198
     13  CAG      -11.7400   38.9770   -4.8470 C.2     1  AQU1       -0.0039
     14  CAH        1.8440   33.0170  -10.0710 C.ar    1  AQU1        0.0029
     15  CAJ        1.6820   34.3670   -9.7340 C.ar    1  AQU1        0.0182
     16  CAK        0.9520   32.0510   -9.5970 C.ar    1  AQU1        0.0193
     17  CAL       -5.8240   35.4370   -6.8560 C.ar    1  AQU1        0.0203
     18  CAM       -6.7400   34.9830   -9.0460 C.ar    1  AQU1        0.0203
     19  CAN       -6.9830   36.1160   -6.5020 C.ar    1  AQU1        0.0457
     20  CAO       -7.8980   35.6680   -8.6970 C.ar    1  AQU1        0.0457
     21  CAP      -13.3900   37.2260   -5.1280 C.3     1  AQU1        0.0717
     22  CAQ      -10.8250   38.2700   -5.6140 C.2     1  AQU1        0.0084
     23  CAR       -0.2730   33.7880   -8.4350 C.ar    1  AQU1        0.0372
     24  CAS       -2.8230   30.5170   -7.6530 C.ar    1  AQU1        0.0527
     25  NAV       -0.6700   30.3240   -7.8740 N.ar    1  AQU1       -0.1683
     26  NAW       -4.5970   34.2460   -8.4790 N.am    1  AQU1       -0.1606
     27  NAX       -2.9820   32.7320   -8.4940 N.am    1  AQU1       -0.1418
     28  NAY       -9.1130   36.9070   -7.0710 N.pl3   1  AQU1       -0.0060
     29  CAZ       -4.1500   33.1160   -7.9330 C.2     1  AQU1        0.3491
     30  CBA        0.6170   34.7540   -8.9180 C.ar    1  AQU1        0.0906
     31  CBB       -5.7130   34.8570   -8.1180 C.ar    1  AQU1        0.0752
     32  CBC       -8.0230   36.2270   -7.4230 C.ar    1  AQU1        0.1835
     33  CBD       -0.1220   32.4300   -8.7700 C.ar    1  AQU1        0.0856
     34  CBE       -1.7860   29.7030   -7.4830 C.ar    1  AQU1        0.0811
     35  CBF       -2.3090   31.6370   -8.1480 C.ar    1  AQU1        0.1587
     36  NBJ       -0.9870   31.5100   -8.2960 N.ar    1  AQU1       -0.2145
     37  CBK       -1.8640   28.2700   -6.8940 C.3     1  AQU1        0.0372
@<TRIPOS>BOND
     1    14    15   ar
     2    14    16   ar
     3    15    30   ar
     4    16    33   ar
     5    18    20   ar
     6    18    31   ar
     7    30    10    1
     8    30    23   ar
     9    33    23   ar
    10    33    36    1
    11    20    32   ar
    12    27    35    1
    13    27    29   am
    14    26    31    1
    15    26    29   am
    16    36    35   ar
    17    36    25   ar
    18    35    24   ar
    19    31    17   ar
    20    29    11    2
    21    25    34   ar
    22    24    34   ar
    23     7    37    1
    24    34    37    1
    25    32    28    1
    26    32    19   ar
    27     1     2    1
    28     1     6    2
    29     2     3    1
    30     9    37    1
    31    28     6    1
    32     6     5    1
    33    37     8    1
    34    17    19   ar
    35     3     4    2
    36     5     4    1
    37     5    22    2
    38     4    21    1
    39    22    13    1
    40    21    12    1
    41    13    12    2
