@<TRIPOS>MOLECULE
3tza_TZG_A_1.pdb
 21 21 0 0 0
SMALL
GASTEIGER

@<TRIPOS>ATOM
      1  N1        -7.4540   27.6210   56.5340 N.pl3 261  TZG261      0.0585
      2  C4        -3.8980   27.5870   57.2760 C.ar  261  TZG261      0.0086
      3  C5        -5.2440   27.9180   57.3640 C.ar  261  TZG261      0.0797
      4  C6        -6.1580   27.3220   56.4980 C.ar  261  TZG261      0.1530
      5  C7        -1.9620   26.3680   56.2940 C.3   261  TZG261      0.0566
      6  C8        -1.7160   24.9950   56.8920 C.3   261  TZG261      0.1986
      7  C10       -4.5090   25.5050   53.0010 C.3   261  TZG261      0.1187
      8  O4         0.1040   24.3840   55.5150 O.co2 261  TZG261     -0.2440
      9  C12       -0.2490   24.6280   56.6920 C.2   261  TZG261      0.3822
     10  O5         0.4820   24.6060   57.7100 O.co2 261  TZG261     -0.2440
     11  N2        -2.0510   25.0420   58.3160 N.3   261  TZG261     -0.1205
     12  C3        -3.4570   26.6700   56.3220 C.ar  261  TZG261     -0.0232
     13 CL1        -5.7480   29.0520   58.5740 Cl    261  TZG261     -0.0805
     14  O1        -8.4290   26.6620   56.1380 O.2   261  TZG261     -0.1261
     15  O2        -7.8500   28.9390   56.8480 O.2   261  TZG261     -0.1261
     16  C1        -5.7160   26.4170   55.5430 C.ar  261  TZG261      0.0204
     17  C2        -4.3720   26.0810   55.4490 C.ar  261  TZG261     -0.0238
     18  C9        -3.9890   25.0700   54.3680 C.3   261  TZG261      0.0379
     19  C11       -5.9850   25.1250   52.8300 C.2   261  TZG261      0.3652
     20  O7        -6.6880   25.8970   52.1530 O.co2 261  TZG261     -0.2456
     21  O6        -6.3860   24.0830   53.3880 O.co2 261  TZG261     -0.2456
@<TRIPOS>BOND
     1    20    19   ar
     2    19     7    1
     3    19    21   ar
     4     7    18    1
     5    18    17    1
     6    17    16   ar
     7    17    12   ar
     8     8     9   ar
     9    16     4   ar
    10    14     1    2
    11     5    12    1
    12     5     6    1
    13    12     2   ar
    14     4     1    1
    15     4     3   ar
    16     1    15    2
    17     9     6    1
    18     9    10   ar
    19     6    11    1
    20     2     3   ar
    21     3    13    1
