@<TRIPOS>MOLECULE
3tzb_AA_A_1.pdb
 15 17 0 0 0
SMALL
GASTEIGER

@<TRIPOS>ATOM
      1  C1        15.0860    2.1000   -7.7550 C.2   501  AA501      -0.0214
      2  C2        14.0150    1.5000   -8.4270 C.3   501  AA501       0.0519
      3  C3        13.6200    0.1920   -8.0900 C.2   501  AA501      -0.0188
      4  C4        14.2960   -0.5110   -7.0930 C.2   501  AA501       0.0275
      5  C5        17.7860   -0.8550   -3.6990 C.2   501  AA501       0.0275
      6  C6        18.8650   -0.3080   -3.0030 C.2   501  AA501      -0.0188
      7  C7        19.2980    0.9950   -3.3000 C.3   501  AA501       0.0519
      8  C8        18.6550    1.7490   -4.2830 C.2   501  AA501      -0.0214
      9  C9        16.8910    1.9570   -6.0220 C.3   501  AA501       0.1405
     10  N10       16.0560   -0.6130   -5.4180 N.2   501  AA501      -0.4025
     11  C11       17.1280   -0.0880   -4.7140 C.2   501  AA501       0.1285
     12  C12       17.5640    1.1850   -5.0070 C.2   501  AA501       0.0249
     13  C13       15.7770    1.3820   -6.7320 C.2   501  AA501       0.0249
     14  C14       15.3940    0.1040   -6.4090 C.2   501  AA501       0.1285
     15  N9        17.3290    3.2890   -6.3250 N.3   501  AA501      -0.1231
@<TRIPOS>BOND
     1     2     3    1
     2     2     1    1
     3     3     4    2
     4     1    13    2
     5     4    14    1
     6    13    14    1
     7    13     9    1
     8    14    10    2
     9    15     9    1
    10     9    12    1
    11    10    11    2
    12    12    11    1
    13    12     8    2
    14    11     5    1
    15     8     7    1
    16     5     6    2
    17     7     6    1
