@<TRIPOS>MOLECULE
3tzc_NAP_A_1.pdb
 27 29 0 0 0
SMALL
GASTEIGER

@<TRIPOS>ATOM
      1  PA       -15.7310   -2.1900   21.7260 P.3   249  NAP249      0.5327
      2  O1A      -16.2570   -2.4960   20.3410 O.2   249  NAP249     -0.2224
      3  O2A      -14.7280   -3.1490   22.3340 O.3   249  NAP249     -0.1145
      4  O5B      -15.1640   -0.6620   21.8100 O.3   249  NAP249     -0.2675
      5  C5B      -15.2210    0.3170   20.7580 C.3   249  NAP249      0.1860
      6  C4B      -15.2270    1.7570   21.3010 C.3   249  NAP249      0.1822
      7  O4B      -16.4790    2.0820   21.9420 O.3   249  NAP249     -0.3136
      8  C3B      -14.1550    2.0450   22.3540 C.3   249  NAP249      0.2157
      9  O3B      -13.5090    3.3020   22.0710 O.3   249  NAP249     -0.2175
     10  C2B      -14.9100    2.0900   23.6800 C.3   249  NAP249      0.2314
     11  O2B      -14.2330    2.8460   24.6920 O.3   249  NAP249     -0.2630
     12  C1B      -16.2600    2.6710   23.2490 C.3   249  NAP249      0.3158
     13  N9A      -17.3800    2.3930   24.2210 N.pl3 249  NAP249     -0.1439
     14  C8A      -17.8780    1.1820   24.5080 C.3   249  NAP249      0.3377
     15  N7A      -18.8740    1.2770   25.4140 N.2   249  NAP249     -0.2095
     16  C5A      -19.0320    2.5590   25.7410 C.2   249  NAP249      0.2526
     17  C6A      -19.9210    3.3080   26.6600 C.2   249  NAP249      0.4393
     18  N6A      -20.8320    2.6290   27.4030 N.pl3 249  NAP249      0.2180
     19  N1A      -19.7790    4.6640   26.7210 N.2   249  NAP249      0.0021
     20  C2A      -18.8580    5.2950   25.9490 C.3   249  NAP249      0.5254
     21  N3A      -18.0050    4.6510   25.0950 N.2   249  NAP249     -0.0055
     22  C4A      -18.0410    3.3000   24.9570 C.2   249  NAP249      0.3518
     23  O3       -16.9650   -2.1260   22.7610 O.3   249  NAP249     -0.1145
     24  P2B      -13.0110    2.1740   25.5160 P.3   249  NAP249      0.5328
     25  O1X      -12.2950    3.2920   26.2320 O.3   249  NAP249     -0.1145
     26  O2X      -13.7120    1.1990   26.4140 O.3   249  NAP249     -0.1145
     27  O3X      -12.1680    1.5120   24.4640 O.2   249  NAP249     -0.2224
@<TRIPOS>BOND
     1     2     1    2
     2     5     6    1
     3     5     4    1
     4     6     7    1
     5     6     8    1
     6     1     4    1
     7     1     3    1
     8     1    23    1
     9     7    12    1
    10     9     8    1
    11     8    10    1
    12    12    10    1
    13    12    13    1
    14    10    11    1
    15    13    14    1
    16    13    22    1
    17    27    24    2
    18    14    15    1
    19    11    24    1
    20    22    21    2
    21    22    16    1
    22    21    20    1
    23    15    16    2
    24    24    25    1
    25    24    26    1
    26    16    17    1
    27    20    19    1
    28    17    19    2
    29    17    18    1
