@<TRIPOS>MOLECULE
3tze_TRP_A_1.pdb
 15 16 0 0 0
SMALL
GASTEIGER

@<TRIPOS>ATOM
      1  N         16.7560   23.0710  -36.1630 N.3   386  TRP386     -0.1205
      2  CA        16.9060   23.7590  -34.8390 C.3   386  TRP386      0.1987
      3  C         16.5570   22.9170  -33.6540 C.2   386  TRP386      0.3822
      4  O         15.4890   22.3120  -33.6100 O.co2 386  TRP386     -0.2440
      5  CB        16.1110   25.0610  -34.7880 C.3   386  TRP386      0.0585
      6  CG        16.9340   26.2730  -35.1800 C.2   386  TRP386      0.0001
      7  CD1       16.6470   27.2000  -36.1770 C.2   386  TRP386      0.0946
      8  CD2       18.2340   26.7120  -34.6120 C.2   386  TRP386      0.0113
      9  NE1       17.6270   28.1580  -36.2570 N.2   386  TRP386     -0.2442
     10  CE2       18.6080   27.9360  -35.3510 C.2   386  TRP386      0.0804
     11  CE3       19.0850   26.2430  -33.5950 C.2   386  TRP386     -0.0202
     12  CZ2       19.7810   28.6420  -35.0740 C.2   386  TRP386      0.0148
     13  CZ3       20.2610   26.9700  -33.3260 C.3   386  TRP386      0.0521
     14  CH2       20.5970   28.1350  -34.0530 C.2   386  TRP386     -0.0199
     15  OXT       17.3370   22.8350  -32.7020 O.co2 386  TRP386     -0.2440
@<TRIPOS>BOND
     1     9     7    1
     2     9    10    2
     3     7     6    2
     4     1     2    1
     5    10    12    1
     6    10     8    1
     7     6     5    1
     8     6     8    1
     9    12    14    2
    10     2     5    1
    11     2     3    1
    12     8    11    2
    13    14    13    1
    14     3     4   ar
    15     3    15   ar
    16    11    13    1
