@<TRIPOS>MOLECULE
3tzf_HH2_A_1.pdb
 22 23 0 0 0
SMALL
GASTEIGER

@<TRIPOS>ATOM
      1  N1        13.8660   15.2730   41.3970 N.2   278  HH2278     -0.3831
      2  C2        14.0770   14.6010   42.5590 C.2   278  HH2278      0.1441
      3  C3        14.9660   15.1480   43.6470 C.3   278  HH2278      0.1939
      4  N4        15.5660   16.4430   43.3240 N.2   278  HH2278     -0.1992
      5  N5        15.9280   18.2780   41.9350 N.2   278  HH2278     -0.2672
      6  C6        15.7070   18.9490   40.7720 C.1   278  HH2278      0.2609
      7  N6        16.3060   20.1460   40.5940 N.pl3 278  HH2278     -0.0220
      8  N7        14.9080   18.4640   39.8010 N.2   278  HH2278     -0.2466
      9  C8        14.2640   17.2830   39.9250 C.1   278  HH2278      0.2569
     10  O8        13.4690   16.8330   38.9240 O.2   278  HH2278     -0.2052
     11  C9        14.4540   16.4810   41.1660 C.2   278  HH2278      0.2989
     12  C10       15.3470   17.0800   42.1800 C.1   278  HH2278      0.1401
     13  C11       13.4760   13.2350   42.8100 C.3   278  HH2278      0.2051
     14  O4        14.5470   12.2900   42.4830 O.3   278  HH2278     -0.3064
     15  P1        15.2910   11.4420   43.6560 P.3   278  HH2278      0.2234
     16  O1P       16.2490   12.2860   44.4040 O.3   278  HH2278     -0.4370
     17  O2P       16.0110   10.0700   43.2520 O.2   278  HH2278     -0.5169
     18  O3P       13.9490   11.1310   44.5260 O.3   278  HH2278     -0.2261
     19  P2        13.7860   11.4890   46.0950 P.3   278  HH2278      0.5373
     20  O4P       13.0170   12.7820   46.1700 O.2   278  HH2278     -0.2221
     21  O5P       15.1600   11.4210   46.7310 O.3   278  HH2278     -0.1143
     22  O6P       12.8950   10.3390   46.7740 O.3   278  HH2278     -0.1143
@<TRIPOS>BOND
     1    10     9    2
     2     8     9    2
     3     8     6    2
     4     9    11    1
     5     7     6    1
     6     6     5    2
     7    11     1    2
     8    11    12    1
     9     1     2    2
    10     5    12    2
    11    12     4    2
    12    14    13    1
    13    14    15    1
    14     2    13    1
    15     2     3    1
    16    17    15    2
    17     4     3    1
    18    15    16    1
    19    15    18    1
    20    18    19    1
    21    19    20    2
    22    19    21    1
    23    19    22    1
