@<TRIPOS>MOLECULE
3tzf_08D_B_1.pdb
 17 18 0 0 0
SMALL
GASTEIGER

@<TRIPOS>ATOM
      1  O12       28.0110    0.9430   10.0560 O.2   280  08D280     -0.1483
      2  S10       28.6160   -0.3560   10.0270 S.O2  280  08D280      0.0943
      3  O11       28.6610   -0.8880   11.3620 O.2   280  08D280     -0.1483
      4  C4        27.7800   -1.3230    9.0630 C.ar  280  08D280      0.1272
      5  C3        27.4780   -2.6260    9.4680 C.ar  280  08D280      0.0216
      6  C2        26.7640   -3.4740    8.6280 C.ar  280  08D280      0.0194
      7  C5        27.3660   -0.8720    7.8070 C.ar  280  08D280      0.0216
      8  C6        26.6490   -1.7190    6.9630 C.ar  280  08D280      0.0194
      9  C1        26.3500   -3.0190    7.3750 C.ar  280  08D280      0.0892
     10  N7        25.6570   -3.8470    6.5560 N.pl3 280  08D280     -0.1281
     11  N13       30.1060   -0.2350    9.4420 N.pl3 280  08D280     -0.0737
     12  C15       31.0710   -1.1800    9.5980 C.ar  280  08D280      0.2126
     13  N19       30.6330   -2.4680    9.7360 N.ar  280  08D280     -0.0590
     14  O18       31.7400   -3.2080    9.8590 O.2   280  08D280     -0.3564
     15  C17       32.8280   -2.4040    9.7970 C.ar  280  08D280      0.1563
     16  C16       32.4680   -1.0830    9.6280 C.ar  280  08D280      0.0765
     17  C20       34.2450   -2.9000    9.9050 C.3   280  08D280      0.0754
@<TRIPOS>BOND
     1    10     9    1
     2     8     9   ar
     3     8     7   ar
     4     9     6   ar
     5     7     4   ar
     6     6     5   ar
     7     4     5   ar
     8     4     2    1
     9    11    12    1
    10    11     2    1
    11    12    16   ar
    12    12    13   ar
    13    16    15   ar
    14    13    14   ar
    15    15    14   ar
    16    15    17    1
    17     2     1    2
    18     2     3    2
