@<TRIPOS>MOLECULE
3tzi_ACD_A_1.pdb
 22 21 0 0 0
SMALL
GASTEIGER

@<TRIPOS>ATOM
      1  C1        40.3110   13.1790   27.6520 C.2     1  ACD1        0.3649
      2  C2        41.4720   12.5840   26.8910 C.3     1  ACD1        0.1144
      3  C3        42.1520   13.6520   26.0380 C.3     1  ACD1        0.0165
      4  C4        43.2870   13.0840   25.1860 C.3     1  ACD1        0.0263
      5  C5        42.7900   11.9850   24.2690 C.2     1  ACD1       -0.0304
      6  C6        42.2360   12.2090   23.0750 C.2     1  ACD1       -0.0260
      7  C7        42.0380   13.5940   22.5050 C.3     1  ACD1        0.0513
      8  C8        41.9060   13.5280   21.0000 C.2     1  ACD1       -0.0257
      9  C9        40.8480   13.9790   20.3150 C.2     1  ACD1       -0.0257
     10  C10       39.6160   14.6100   20.9270 C.3     1  ACD1        0.0513
     11  C11       40.0060   15.7460   21.8410 C.2     1  ACD1       -0.0257
     12  C12       39.9500   17.0160   21.4560 C.2     1  ACD1       -0.0257
     13  C13       39.4650   17.4280   20.0830 C.3     1  ACD1        0.0513
     14  C14       38.9680   18.8620   20.0910 C.2     1  ACD1       -0.0260
     15  C15       38.2040   19.4220   21.0370 C.2     1  ACD1       -0.0304
     16  C16       37.7070   18.7460   22.3000 C.3     1  ACD1        0.0257
     17  C17       36.6330   17.6880   22.0300 C.3     1  ACD1        0.0047
     18  C18       36.0740   17.0740   23.3110 C.3     1  ACD1        0.0003
     19  C19       35.6090   18.1460   24.2970 C.3     1  ACD1        0.0000
     20  C20       34.5580   17.6640   25.2710 C.3     1  ACD1        0.0000
     21  O1        39.8170   14.2540   27.2420 O.co2   1  ACD1       -0.2457
     22  O2        39.8860   12.5690   28.6630 O.co2   1  ACD1       -0.2457
@<TRIPOS>BOND
     1    13    14    1
     2    13    12    1
     3    14    15    2
     4     9    10    1
     5     9     8    2
     6    10    11    1
     7     8     7    1
     8    15    16    1
     9    12    11    2
    10    17    16    1
    11    17    18    1
    12     7     6    1
    13     6     5    2
    14    18    19    1
    15     5     4    1
    16    19    20    1
    17     4     3    1
    18     3     2    1
    19     2     1    1
    20    21     1   ar
    21     1    22   ar
