@<TRIPOS>MOLECULE
3tzi_COH_A_1.pdb
 43 50 0 0 0
SMALL
GASTEIGER

@<TRIPOS>ATOM
      1 CO         26.2890   27.3170   17.4570 Co.oh 619  COH619      0.0000
      2  CHA       27.1260   30.0150   19.4140 C.2   619  COH619      0.0000
      3  CHB       23.8880   29.3060   15.8500 C.2   619  COH619      0.0000
      4  CHC       24.9550   24.5420   15.8500 C.2   619  COH619      0.0000
      5  CHD       28.8100   25.4640   18.7480 C.2   619  COH619      0.0000
      6  NA        25.6230   29.2980   17.5900 N.ar  619  COH619      0.0000
      7  C1A       26.1200   30.2270   18.4880 C.ar  619  COH619      0.0000
      8  C2A       25.3860   31.4670   18.2890 C.ar  619  COH619      0.0000
      9  C3A       24.4870   31.2760   17.3090 C.ar  619  COH619      0.0000
     10  C4A       24.6220   29.9060   16.8490 C.ar  619  COH619      0.0000
     11  CMA       23.4800   32.3140   16.7520 C.3   619  COH619      0.0000
     12  CAA       25.6140   32.7640   19.0940 C.3   619  COH619      0.0000
     13  CBA       25.3790   32.4690   20.5760 C.3   619  COH619      0.0000
     14  CGA       24.4900   33.5220   21.1780 C.2   619  COH619      0.0000
     15  O1A       23.4770   33.1510   21.8420 O.co2 619  COH619      0.0000
     16  O2A       24.8060   34.7330   20.9870 O.co2 619  COH619      0.0000
     17  NB        24.7070   26.9850   16.0390 N.2   619  COH619      0.0000
     18  C1B       23.8010   27.9470   15.6160 C.2   619  COH619      0.0000
     19  C2B       22.7420   27.2750   14.8920 C.2   619  COH619      0.0000
     20  C3B       23.0060   25.9650   14.8810 C.2   619  COH619      0.0000
     21  C4B       24.2680   25.7410   15.6070 C.2   619  COH619      0.0000
     22  CMB       21.5190   27.9620   14.2370 C.3   619  COH619      0.0000
     23  CAB       22.0830   24.9420   14.1730 C.2   619  COH619      0.0000
     24  CBB       21.7940   23.7510   14.7000 C.2   619  COH619      0.0000
     25  NC        26.7750   25.3250   17.3530 N.ar  619  COH619      0.0000
     26  C1C       26.1530   24.3700   16.5550 C.ar  619  COH619      0.0000
     27  C2C       26.9930   23.1770   16.6120 C.ar  619  COH619      0.0000
     28  C3C       28.0480   23.4300   17.4130 C.ar  619  COH619      0.0000
     29  C4C       27.9350   24.7980   17.9000 C.ar  619  COH619      0.0000
     30  CMC       26.7170   21.8350   15.8830 C.3   619  COH619      0.0000
     31  CAC       29.1810   22.4250   17.7390 C.2   619  COH619      0.0000
     32  CBC       29.7430   22.3730   18.9480 C.2   619  COH619      0.0000
     33  ND        27.7950   27.7060   18.8570 N.2   619  COH619      0.0000
     34  C1D       28.6580   26.7170   19.3210 C.2   619  COH619      0.0000
     35  C2D       29.3500   27.2380   20.4930 C.2   619  COH619      0.0000
     36  C3D       28.8100   28.6590   20.6930 C.2   619  COH619      0.0000
     37  C4D       27.8510   28.8610   19.6300 C.2   619  COH619      0.0000
     38  CMD       30.4060   26.5390   21.3770 C.3   619  COH619      0.0000
     39  CAD       29.2020   29.6580   21.8050 C.3   619  COH619      0.0000
     40  CBD       28.1580   29.5970   22.9220 C.3   619  COH619      0.0000
     41  CGD       28.2810   30.8030   23.8280 C.2   619  COH619      0.0000
     42  O1D       29.3990   31.3830   23.9140 O.co2 619  COH619      0.0000
     43  O2D       27.2690   31.1960   24.4640 O.co2 619  COH619      0.0000
@<TRIPOS>BOND
     1    23    24    2
     2    23    20    1
     3    22    19    1
     4    20    19    2
     5    20    21    1
     6    19    18    1
     7    21     4    2
     8    21    17    1
     9    18     3    1
    10    18    17    2
    11     3    10    2
    12     4    26    1
    13    30    27    1
    14    17     1    1
    15    26    27   ar
    16    26    25   ar
    17    27    28   ar
    18    11     9    1
    19    10     9   ar
    20    10     6   ar
    21     9     8   ar
    22    25     1    1
    23    25    29   ar
    24    28    31    1
    25    28    29   ar
    26     1     6    1
    27     1    33    1
    28     6     7   ar
    29    31    32    2
    30    29     5    1
    31     8     7   ar
    32     8    12    1
    33     7     2    2
    34     5    34    2
    35    33    34    1
    36    33    37    2
    37    12    13    1
    38    34    35    1
    39     2    37    1
    40    37    36    1
    41    35    36    2
    42    35    38    1
    43    13    14    1
    44    36    39    1
    45    16    14   ar
    46    14    15   ar
    47    39    40    1
    48    40    41    1
    49    41    42   ar
    50    41    43   ar
