@<TRIPOS>MOLECULE
3tzl_TRP_A_1.pdb
 15 16 0 0 0
SMALL
GASTEIGER

@<TRIPOS>ATOM
      1  N         37.9630   14.3640   27.7660 N.3   331  TRP331     -0.1205
      2  CA        38.4140   15.5780   28.4330 C.3   331  TRP331      0.1984
      3  C         39.5980   15.3020   29.3450 C.2   331  TRP331      0.3822
      4  O         40.1800   16.2430   29.9020 O.co2 331  TRP331     -0.2440
      5  CB        37.2810   16.2090   29.2360 C.3   331  TRP331      0.0549
      6  CG        36.1370   16.6130   28.3840 C.2   331  TRP331     -0.0138
      7  CD1       34.8570   16.1360   28.4390 C.2   331  TRP331      0.0907
      8  CD2       36.1640   17.5850   27.3320 C.3   331  TRP331      0.0819
      9  NE1       34.0870   16.7620   27.4950 N.2   331  TRP331     -0.2482
     10  CE2       34.8610   17.6580   26.8030 C.2   331  TRP331      0.0665
     11  CE3       37.1620   18.4150   26.7980 C.2   331  TRP331     -0.0164
     12  CZ2       34.5270   18.5140   25.7520 C.2   331  TRP331      0.0153
     13  CZ3       36.8260   19.2710   25.7640 C.2   331  TRP331     -0.0038
     14  CH2       35.5200   19.3120   25.2510 C.2   331  TRP331      0.0009
     15  OXT       39.9730   14.1420   29.5320 O.co2 331  TRP331     -0.2440
@<TRIPOS>BOND
     1    14    12    2
     2    14    13    1
     3    12    10    1
     4    13    11    2
     5    11     8    1
     6    10     8    1
     7    10     9    2
     8     8     6    1
     9     9     7    1
    10     1     2    1
    11     6     7    2
    12     6     5    1
    13     2     5    1
    14     2     3    1
    15     3    15   ar
    16     3     4   ar
