@<TRIPOS>MOLECULE
3tzl_ADP_A_1.pdb
 27 29 0 0 0
SMALL
GASTEIGER

@<TRIPOS>ATOM
      1  PB        47.9520   14.9880   34.5270 P.3   330  ADP330      0.5373
      2  O1B       49.2900   15.4600   34.2900 O.3   330  ADP330     -0.1143
      3  O2B       47.9940   14.6230   35.9080 O.3   330  ADP330     -0.1143
      4  O3B       47.9170   13.6910   33.9070 O.2   330  ADP330     -0.2221
      5  PA        46.1100   16.0810   32.9100 P.3   330  ADP330      0.2231
      6  O1A       44.7370   15.6430   33.0700 O.3   330  ADP330     -0.4370
      7  O2A       46.6160   15.0930   31.9440 O.2   330  ADP330     -0.5169
      8  O3A       46.8360   15.9850   34.2590 O.3   330  ADP330     -0.2261
      9  O5'       46.0970   17.5040   32.3050 O.3   330  ADP330     -0.3111
     10  C5'       46.4820   17.6540   31.0080 C.3   330  ADP330      0.1813
     11  C4'       46.5830   19.1120   30.7280 C.3   330  ADP330      0.1821
     12  O4'       47.3410   19.8350   31.6340 O.3   330  ADP330     -0.3135
     13  C3'       47.1620   19.3570   29.3850 C.3   330  ADP330      0.2184
     14  O3'       46.7430   20.5630   28.9440 O.3   330  ADP330     -0.2174
     15  C2'       48.5650   19.4980   29.6820 C.3   330  ADP330      0.2570
     16  O2'       49.1220   20.3730   28.8040 O.3   330  ADP330     -0.2130
     17  C1'       48.5520   20.0810   31.0330 C.3   330  ADP330      0.3186
     18  N9        49.6000   19.4800   31.7640 N.pl3 330  ADP330     -0.1439
     19  C8        49.4880   18.4390   32.6120 C.3   330  ADP330      0.3377
     20  N7        50.6560   18.1230   33.1120 N.2   330  ADP330     -0.2095
     21  C5        51.5970   18.9470   32.5970 C.2   330  ADP330      0.2526
     22  C6        52.9760   19.0830   32.7510 C.2   330  ADP330      0.4393
     23  N6        53.7130   18.2600   33.5970 N.pl3 330  ADP330      0.2180
     24  N1        53.5730   20.0240   32.0510 N.2   330  ADP330      0.0021
     25  C2        52.9230   20.8220   31.2410 C.3   330  ADP330      0.5254
     26  N3        51.6340   20.7310   31.0700 N.2   330  ADP330     -0.0055
     27  C4        50.9400   19.8220   31.7160 C.2   330  ADP330      0.3518
@<TRIPOS>BOND
     1    16    15    1
     2    14    13    1
     3    13    15    1
     4    13    11    1
     5    15    17    1
     6    11    10    1
     7    11    12    1
     8    10     9    1
     9    17    12    1
    10    17    18    1
    11    26    25    1
    12    26    27    2
    13    25    24    1
    14    27    18    1
    15    27    21    1
    16    18    19    1
    17     7     5    2
    18    24    22    2
    19     9     5    1
    20    21    22    1
    21    21    20    2
    22    19    20    1
    23    22    23    1
    24     5     6    1
    25     5     8    1
    26     4     1    2
    27     8     1    1
    28     2     1    1
    29     1     3    1
