@<TRIPOS>MOLECULE
3tzm_085_A_1.pdb
 29 33 0 0 0
SMALL
GASTEIGER

@<TRIPOS>ATOM
      1  CAM        2.9800    7.8420    4.4510 C.ar    1  0851        0.0428
      2  CAZ        2.5850    7.3020    3.2330 C.ar    1  0851        0.1765
      3  OAS        1.3620    6.8470    2.8250 O.3     1  0851       -0.4346
      4  CAN        1.4870    6.5390    1.4490 C.3     1  0851        0.4294
      5  OAR        2.8900    6.6130    1.1140 O.3     1  0851       -0.4346
      6  CAY        3.5140    7.1560    2.1970 C.ar    1  0851        0.1764
      7  CAL        4.8300    7.5540    2.3920 C.ar    1  0851        0.0403
      8  CAK        5.2140    8.1060    3.6200 C.ar    1  0851        0.0060
      9  CAW        4.2910    8.2760    4.6630 C.ar    1  0851        0.0364
     10  CBB        4.6500    8.7580    5.9450 C.2     1  0851        0.1756
     11  NAP        4.1290    8.2770    7.0770 N.2     1  0851       -0.3371
     12  CBA        4.6870    8.8730    8.1340 C.1     1  0851        0.1380
     13  CAV        4.3700    8.6180    9.4730 C.ar    1  0851        0.0856
     14  CAJ        4.8810    9.4190   10.5060 C.ar    1  0851        0.0122
     15  CAH        4.5510    9.1460   11.8400 C.ar    1  0851        0.0054
     16  CAI        3.5460    7.5300    9.8010 C.ar    1  0851        0.0122
     17  CAG        3.2260    7.2540   11.1350 C.ar    1  0851        0.0054
     18  CAU        3.7190    8.0660   12.1570 C.ar    1  0851        0.0567
     19  CAT        3.3650    7.7760   13.6190 C.2     1  0851        0.2842
     20  OAB        4.1680    8.0050   14.5320 O.2     1  0851       -0.2667
     21  NAA        2.1350    7.3020   13.8110 N.am    1  0851       -0.0837
     22  NAQ        5.5940    9.7370    7.6730 N.2     1  0851       -0.3356
     23  CBC        5.6050    9.7010    6.3320 C.2     1  0851        0.1915
     24  CAX        6.4230   10.5120    5.5230 C.ar    1  0851        0.1143
     25  CAF        7.7050   10.8120    5.9810 C.ar    1  0851        0.0219
     26  CAD        8.5460   11.6330    5.2310 C.ar    1  0851        0.0032
     27  CAC        8.0800   12.1880    4.0360 C.ar    1  0851        0.0207
     28  CAE        6.7740   11.8790    3.6240 C.ar    1  0851        0.0989
     29  NAO        5.9840   11.0750    4.3660 N.ar    1  0851       -0.2411
@<TRIPOS>BOND
     1     5     4    1
     2     5     6    1
     3     4     3    1
     4     6     7   ar
     5     6     2   ar
     6     7     8   ar
     7     3     2    1
     8     2     1   ar
     9     8     9   ar
    10    28    27   ar
    11    28    29   ar
    12    27    26   ar
    13    29    24   ar
    14     1     9   ar
    15     9    10    1
    16    26    25   ar
    17    24    25   ar
    18    24    23    1
    19    10    23    1
    20    10    11    2
    21    23    22    2
    22    11    12    2
    23    22    12    2
    24    12    13    1
    25    13    16   ar
    26    13    14   ar
    27    16    17   ar
    28    14    15   ar
    29    17    18   ar
    30    15    18   ar
    31    18    19    1
    32    19    21   am
    33    19    20    2
