@<TRIPOS>MOLECULE
3tzo_HEM_A_1.pdb
 43 50 0 0 0
SMALL
GASTEIGER

@<TRIPOS>ATOM
      1  CHA       -1.4220   -1.8160  -17.4940 C.2   430  HEM430      0.0000
      2  CHB        0.2360   -3.7040  -21.5930 C.2   430  HEM430      0.0000
      3  CHC        4.6640   -3.9540  -19.7260 C.2   430  HEM430      0.0000
      4  CHD        3.0110   -2.0410  -15.6080 C.2   430  HEM430      0.0000
      5  C1A       -1.3800   -2.3060  -18.7730 C.ar  430  HEM430      0.0000
      6  C2A       -2.5140   -2.4400  -19.6860 C.ar  430  HEM430      0.0000
      7  C3A       -2.0450   -2.9560  -20.8300 C.ar  430  HEM430      0.0000
      8  C4A       -0.6170   -3.1740  -20.6710 C.ar  430  HEM430      0.0000
      9  CMA       -2.8310   -3.2940  -22.1030 C.3   430  HEM430      0.0000
     10  CAA       -3.9760   -2.0610  -19.3390 C.3   430  HEM430      0.0000
     11  CBA       -4.4250   -0.6300  -19.5840 C.3   430  HEM430      0.0000
     12  CGA       -5.8670   -0.4400  -19.1020 C.2   430  HEM430      0.0000
     13  O1A       -6.6770    0.0530  -19.9520 O.co2 430  HEM430      0.0000
     14  O2A       -6.1550   -0.7800  -17.9580 O.co2 430  HEM430      0.0000
     15  C1B        1.5690   -3.9370  -21.4560 C.2   430  HEM430      0.0000
     16  C2B        2.4070   -4.5290  -22.4970 C.2   430  HEM430      0.0000
     17  C3B        3.6700   -4.6150  -21.9710 C.2   430  HEM430      0.0000
     18  C4B        3.6090   -4.0660  -20.6220 C.2   430  HEM430      0.0000
     19  CMB        1.8860   -4.9580  -23.8950 C.3   430  HEM430      0.0000
     20  CAB        4.9880   -5.1690  -22.5740 C.3   430  HEM430      0.0000
     21  CBB        5.1970   -5.0180  -24.1010 C.3   430  HEM430      0.0000
     22  C1C        4.5980   -3.4450  -18.4310 C.ar  430  HEM430      0.0000
     23  C2C        5.7520   -3.3450  -17.5280 C.ar  430  HEM430      0.0000
     24  C3C        5.2970   -2.8100  -16.3750 C.ar  430  HEM430      0.0000
     25  C4C        3.8730   -2.5730  -16.5460 C.ar  430  HEM430      0.0000
     26  CMC        7.1960   -3.7920  -17.9020 C.3   430  HEM430      0.0000
     27  CAC        6.0710   -2.4820  -15.0770 C.3   430  HEM430      0.0000
     28  CBC        7.0440   -1.2920  -15.1830 C.3   430  HEM430      0.0000
     29  C1D        1.6660   -1.8070  -15.7420 C.2   430  HEM430      0.0000
     30  C2D        0.7920   -1.2460  -14.7260 C.2   430  HEM430      0.0000
     31  C3D       -0.4570   -1.1720  -15.2550 C.2   430  HEM430      0.0000
     32  C4D       -0.3620   -1.7020  -16.6080 C.2   430  HEM430      0.0000
     33  CMD        1.2550   -0.8250  -13.3170 C.3   430  HEM430      0.0000
     34  CAD       -1.7240   -0.6330  -14.5720 C.3   430  HEM430      0.0000
     35  CBD       -1.8490    0.8980  -14.8900 C.3   430  HEM430      0.0000
     36  CGD       -3.0620    1.5900  -14.2940 C.2   430  HEM430      0.0000
     37  O1D       -2.9540    2.7520  -13.8890 O.co2 430  HEM430      0.0000
     38  O2D       -4.1160    0.9330  -14.2780 O.co2 430  HEM430      0.0000
     39  NA        -0.2440   -2.7660  -19.4000 N.ar  430  HEM430      0.0000
     40  NB         2.3260   -3.6640  -20.3240 N.2   430  HEM430      0.0000
     41  NC         3.4690   -2.9600  -17.8070 N.ar  430  HEM430      0.0000
     42  ND         0.9440   -2.0810  -16.9040 N.2   430  HEM430      0.0000
     43 FE          1.6290   -2.8420  -18.6020 Fe    430  HEM430      0.0000
@<TRIPOS>BOND
     1    21    20    1
     2    19    16    1
     3    20    17    1
     4    16    17    2
     5    16    15    1
     6     9     7    1
     7    17    18    1
     8     2    15    1
     9     2     8    2
    10    15    40    2
    11     7     8   ar
    12     7     6   ar
    13     8    39   ar
    14    18    40    1
    15    18     3    2
    16    40    43    1
    17    13    12   ar
    18     3    22    1
    19     6    10    1
    20     6     5   ar
    21    11    10    1
    22    11    12    1
    23    39     5   ar
    24    39    43    1
    25    12    14   ar
    26     5     1    2
    27    43    41    1
    28    43    42    1
    29    22    41   ar
    30    22    23   ar
    31    26    23    1
    32    41    25   ar
    33    23    24   ar
    34     1    32    1
    35    42    32    2
    36    42    29    1
    37    32    31    1
    38    25    24   ar
    39    25     4    1
    40    24    27    1
    41    29     4    2
    42    29    30    1
    43    31    30    2
    44    31    34    1
    45    28    27    1
    46    35    34    1
    47    35    36    1
    48    30    33    1
    49    36    38   ar
    50    36    37   ar
