@<TRIPOS>MOLECULE
3tzs_PHU_A_1.pdb
 10 10 0 0 0
SMALL
GASTEIGER

@<TRIPOS>ATOM
      1  C1        30.5030   81.8320   64.2180 C.2   201  PHU201      0.3632
      2  C2        28.2990   81.2800   63.3650 C.ar  201  PHU201      0.0750
      3  C3        27.2620   81.6330   62.4750 C.ar  201  PHU201      0.0167
      4  C4        28.2490   80.0230   63.9930 C.ar  201  PHU201      0.0167
      5  C5        27.1660   79.1470   63.7490 C.ar  201  PHU201      0.0013
      6  C6        26.1900   80.7810   62.2390 C.ar  201  PHU201      0.0013
      7  C7        26.1340   79.5260   62.8740 C.ar  201  PHU201      0.0001
      8  N1        29.3890   82.1970   63.5770 N.am  201  PHU201     -0.1596
      9  N2        31.4860   82.6770   64.3850 N.am  201  PHU201     -0.0676
     10  O1        30.6460   80.7210   64.6780 O.2   201  PHU201     -0.2471
@<TRIPOS>BOND
     1     6     3   ar
     2     6     7   ar
     3     3     2   ar
     4     7     5   ar
     5     2     8    1
     6     2     4   ar
     7     8     1   am
     8     5     4   ar
     9     1     9   am
    10     1    10    2
