@<TRIPOS>MOLECULE
3tzv_LSC_C_1.pdb
 35 34 0 0 0
SMALL
GASTEIGER

@<TRIPOS>ATOM
      1  C1       -45.2570   -0.8680   84.8760 C.3   303  LSC303      0.0000
      2  C2       -45.1330   -1.3320   83.4400 C.3   303  LSC303      0.0000
      3  C3       -43.6780   -1.6010   83.0670 C.3   303  LSC303      0.0000
      4  C4       -43.5660   -2.0710   81.6240 C.3   303  LSC303      0.0000
      5  C5       -42.1150   -2.0740   81.1590 C.3   303  LSC303      0.0000
      6  C6       -42.0340   -2.3970   79.6700 C.3   303  LSC303      0.0003
      7  C7       -41.5960   -3.8360   79.4160 C.3   303  LSC303      0.0047
      8  C8       -40.1620   -3.8620   78.9010 C.3   303  LSC303      0.0257
      9  C9       -40.1100   -3.1860   77.5520 C.2   303  LSC303     -0.0307
     10  C10      -39.0620   -2.4370   77.2220 C.2   303  LSC303     -0.0307
     11  C11      -39.0180   -1.7650   75.8730 C.3   303  LSC303      0.0257
     12  C12      -38.2800   -0.4360   75.9890 C.3   303  LSC303      0.0047
     13  C13      -36.9930   -0.4420   75.1750 C.3   303  LSC303      0.0003
     14  C14      -36.6450    0.9670   74.7070 C.3   303  LSC303      0.0000
     15  C15      -36.3340    0.9930   73.2140 C.3   303  LSC303      0.0006
     16  C16      -34.9610    0.3970   72.9190 C.3   303  LSC303      0.0116
     17  C17      -34.7300    0.2980   71.4160 C.3   303  LSC303      0.1096
     18  C18      -33.3210   -0.1670   71.1370 C.2   303  LSC303      0.3171
     19  O19      -32.3340    0.7470   70.5830 O.3   303  LSC303     -0.4456
     20  C20      -31.1920    0.2100   69.9190 C.3   303  LSC303      0.2437
     21  C21      -30.0590    1.2290   69.8680 C.3   303  LSC303      0.2252
     22  C22      -30.2560    2.2100   68.7180 C.3   303  LSC303      0.1857
     23  O23      -28.9780    2.7230   68.3370 O.3   303  LSC303     -0.3112
     24  P24      -28.8160    4.1390   67.5810 P.3   303  LSC303      0.2140
     25  O25      -29.5930    5.1800   68.3480 O.3   303  LSC303     -0.4373
     26  C30      -30.9600    3.6200   66.1400 C.3   303  LSC303      0.1271
     27  C31      -31.5640    4.1360   64.8400 C.3   303  LSC303     -0.0402
     28  N32      -32.7780    3.3650   64.5500 N.4   303  LSC303      0.3874
     29  O32      -32.9880   -1.3150   71.3820 O.2   303  LSC303     -0.2501
     30  C33      -33.6570    4.1370   63.6610 C.3   303  LSC303     -0.0959
     31  O33      -28.8150    0.5400   69.6970 O.3   303  LSC303     -0.2164
     32  C34      -33.4750    3.0670   65.8100 C.3   303  LSC303     -0.0959
     33  O34      -27.3470    4.3500   67.3070 O.2   303  LSC303     -0.5172
     34  C35      -32.3990    2.1110   63.8860 C.3   303  LSC303     -0.0959
     35  O35      -29.5660    3.9190   66.1740 O.3   303  LSC303     -0.3163
@<TRIPOS>BOND
     1    30    28    1
     2    34    28    1
     3    28    27    1
     4    28    32    1
     5    27    26    1
     6    26    35    1
     7    35    24    1
     8    33    24    2
     9    24    23    1
    10    24    25    1
    11    23    22    1
    12    22    21    1
    13    31    21    1
    14    21    20    1
    15    20    19    1
    16    19    18    1
    17    18    29    2
    18    18    17    1
    19    17    16    1
    20    16    15    1
    21    15    14    1
    22    14    13    1
    23    13    12    1
    24    11    12    1
    25    11    10    1
    26    10     9    2
    27     9     8    1
    28     8     7    1
    29     7     6    1
    30     6     5    1
    31     5     4    1
    32     4     3    1
    33     3     2    1
    34     2     1    1
