@<TRIPOS>MOLECULE
3tzz_XPM_A_1.pdb
 20 19 0 0 0
SMALL
GASTEIGER

@<TRIPOS>ATOM
      1  C1        -4.2550  -19.8880  -54.4380 C.3   2001  XPM2001     0.1933
      2  C2        -4.0110  -19.9690  -55.9430 C.3   2001  XPM2001     0.1362
      3  O2        -3.0840  -19.3070  -53.8560 O.3   2001  XPM2001    -0.2198
      4  C3        -3.9980  -18.6030  -56.6400 C.3   2001  XPM2001     0.0139
      5  C4        -2.8860  -18.5360  -57.7040 C.3   2001  XPM2001     0.0006
      6  C5        -3.2440  -17.5600  -58.8270 C.3   2001  XPM2001     0.0000
      7  C6        -3.0630  -18.1990  -60.1960 C.3   2001  XPM2001     0.0000
      8  C7        -3.9510  -17.5150  -61.2210 C.3   2001  XPM2001     0.0000
      9  C8        -5.0690  -18.4330  -61.7020 C.3   2001  XPM2001     0.0000
     10  C9        -4.7660  -18.9820  -63.0900 C.3   2001  XPM2001     0.0000
     11  CA        -5.9550  -18.8460  -64.0360 C.3   2001  XPM2001     0.0000
     12  CB        -5.9690  -20.0090  -65.0120 C.3   2001  XPM2001     0.0000
     13  CC        -6.7680  -19.6950  -66.2640 C.3   2001  XPM2001     0.0000
     14  CD        -7.3210  -20.9830  -66.8580 C.3   2001  XPM2001     0.0000
     15  CE        -7.8920  -20.7280  -68.2470 C.3   2001  XPM2001     0.0000
     16  CF        -9.3990  -20.9660  -68.2720 C.3   2001  XPM2001     0.0000
     17  CG        -9.9280  -20.9700  -69.6900 C.3   2001  XPM2001     0.0000
     18  C2A       -4.9770  -20.9780  -56.5010 C.2   2001  XPM2001     0.3669
     19  O2A       -4.4560  -22.0450  -56.8530 O.co2 2001  XPM2001    -0.2456
     20  O2B       -6.2110  -20.7730  -56.5420 O.co2 2001  XPM2001    -0.2456
@<TRIPOS>BOND
     1    17    16    1
     2    16    15    1
     3    15    14    1
     4    14    13    1
     5    13    12    1
     6    12    11    1
     7    11    10    1
     8    10     9    1
     9     9     8    1
    10     8     7    1
    11     7     6    1
    12     6     5    1
    13     5     4    1
    14    19    18   ar
    15     4     2    1
    16    20    18   ar
    17    18     2    1
    18     2     1    1
    19     1     3    1
