@<TRIPOS>MOLECULE
3u03_488_A_1.pdb
 21 23 0 0 0
SMALL
GASTEIGER

@<TRIPOS>ATOM
      1  C1        27.2340   78.5360   63.7100 C.ar  180  488180      0.1976
      2  N1        28.5570   81.3210   65.4000 N.2   180  488180     -0.2629
      3  O1        27.8310   77.7210   64.6480 O.3   180  488180     -0.2865
      4  S1        29.1090   82.0130   63.1370 S.3   180  488180     -0.0932
      5  C2        26.2880   77.9610   62.8740 C.ar  180  488180      0.0421
      6  N2        29.6120   83.8700   67.0930 N.3   180  488180     -0.2537
      7  S2        27.5170   83.2700   68.2200 S.3   180  488180     -0.1209
      8  C3        25.6320   78.7000   61.9030 C.ar  180  488180      0.0033
      9  C4        25.8900   80.0390   61.6940 C.ar  180  488180      0.0003
     10  C5        26.8220   80.6730   62.4810 C.ar  180  488180      0.0052
     11  C6        27.5130   79.9970   63.4880 C.ar  180  488180      0.0620
     12  C12       28.4260   80.9520   64.1830 C.2   180  488180      0.1045
     13  C13       28.8380   83.3670   64.2120 C.3   180  488180      0.0902
     14  C14       28.0960   82.7410   65.4120 C.3   180  488180      0.1398
     15  C15       28.2490   83.6480   66.6490 C.3   180  488180      0.1300
     16  C16       28.6500   84.2970   69.1380 C.3   180  488180      0.0864
     17  C17       29.6140   84.9230   68.1010 C.3   180  488180      0.1735
     18  C18       30.7930   83.1160   66.6680 C.3   180  488180      0.0907
     19  C19       30.9840   85.3020   68.6030 C.2   180  488180      0.3799
     20  O20       31.9330   85.3510   67.7750 O.co2 180  488180     -0.2441
     21  O21       31.1250   85.5800   69.8160 O.co2 180  488180     -0.2441
@<TRIPOS>BOND
     1     9     8   ar
     2     9    10   ar
     3     8     5   ar
     4    10    11   ar
     5     5     1   ar
     6     4    12    1
     7     4    13    1
     8    11     1   ar
     9    11    12    1
    10     1     3    1
    11    12     2    2
    12    13    14    1
    13     2    14    1
    14    14    15    1
    15    15     6    1
    16    15     7    1
    17    18     6    1
    18     6    17    1
    19    20    19   ar
    20    17    19    1
    21    17    16    1
    22     7    16    1
    23    19    21   ar
