@<TRIPOS>MOLECULE
3u04_BB2_A_1.pdb
 27 27 0 0 0
SMALL
GASTEIGER

@<TRIPOS>ATOM
      1  C5       -11.0700    3.4110   12.2170 C.3   210  BB2210      0.0603
      2  C3       -11.4420    4.8540   12.2730 C.2   210  BB2210      0.0873
      3  O4       -11.7840    5.5830   11.3070 O.2   210  BB2210     -0.5395
      4  N1       -11.2640    5.4000   13.4580 N.am  210  BB2210     -0.2030
      5  O2       -11.3590    6.7530   13.5440 O.3   210  BB2210     -0.4026
      6  C6        -9.6130    3.2250   11.7560 C.3   210  BB2210      0.0845
      7  C12       -9.4990    1.8740   11.1580 C.2   210  BB2210      0.2417
      8  O13       -9.8170    0.8790   11.8120 O.2   210  BB2210     -0.2733
      9  C7        -8.6450    3.2940   12.9160 C.3   210  BB2210      0.0095
     10  C8        -7.1760    2.9430   12.5470 C.3   210  BB2210      0.0005
     11  C9        -6.4200    4.2000   12.2240 C.3   210  BB2210      0.0000
     12  C10       -4.9240    4.0670   11.8960 C.3   210  BB2210      0.0000
     13  C11       -4.4670    2.7620   11.3010 C.3   210  BB2210      0.0000
     14  N14       -9.0190    1.8230    9.9220 N.am  210  BB2210     -0.1978
     15  C15       -8.6600    0.5530    9.2730 C.3   210  BB2210      0.1711
     16  C16       -9.6400    0.1660    8.1630 C.3   210  BB2210      0.0289
     17  C18      -10.9660   -0.3080    8.7560 C.3   210  BB2210      0.0023
     18  C17       -9.9690    1.3090    7.2060 C.3   210  BB2210      0.0023
     19  C19       -7.2020    0.6330    8.8380 C.2   210  BB2210      0.2455
     20  O20       -6.7570    1.7140    8.4880 O.2   210  BB2210     -0.2730
     21  N21       -6.4120   -0.4630    8.9410 N.am  210  BB2210     -0.2772
     22  C22       -4.9780   -0.4410    8.5790 C.3   210  BB2210      0.1083
     23  C23       -6.8130   -1.7940    9.4550 C.3   210  BB2210      0.0935
     24  C24       -5.6010   -2.7020    9.2560 C.3   210  BB2210      0.0233
     25  C25       -4.4140   -1.7580    9.1080 C.3   210  BB2210      0.0243
     26  C26       -4.7870   -0.3230    7.0780 C.3   210  BB2210      0.2017
     27  O27       -3.3730   -0.2750    6.7880 O.3   210  BB2210     -0.2186
@<TRIPOS>BOND
     1    27    26    1
     2    26    22    1
     3    18    16    1
     4    16    17    1
     5    16    15    1
     6    20    19    2
     7    22    21    1
     8    22    25    1
     9    19    21   am
    10    19    15    1
    11    21    23    1
    12    25    24    1
    13    24    23    1
    14    15    14    1
    15    14     7   am
    16     7     6    1
    17     7     8    2
    18    13    12    1
    19     3     2    2
    20     6     1    1
    21     6     9    1
    22    12    11    1
    23     1     2    1
    24    11    10    1
    25     2     4   am
    26    10     9    1
    27     4     5    1
