@<TRIPOS>MOLECULE
3u06_ADP_A_1.pdb
 39 41 0 0 0
SMALL
GASTEIGER

@<TRIPOS>ATOM
      1  PB       -13.4910   13.6750   30.7500 P.3     1  ADP1        0.5373
      2  O1B      -14.6730   14.6140   30.7210 O.3     1  ADP1       -0.1143
      3  O2B      -13.8660   12.2200   30.9140 O.3     1  ADP1       -0.1143
      4  O3B      -12.4810   13.9570   29.6630 O.2     1  ADP1       -0.2221
      5  PA       -11.4920   15.0640   32.1750 P.3     1  ADP1        0.2224
      6  O1A      -11.9600   16.4260   31.7210 O.3     1  ADP1       -0.4370
      7  O2A      -10.3530   14.3870   31.4540 O.2     1  ADP1       -0.5170
      8  O3A      -12.7440   14.0490   32.1310 O.3     1  ADP1       -0.2261
      9  O5'      -11.1420   15.1700   33.7460 O.3     1  ADP1       -0.3245
     10  C5'      -12.0250   15.8290   34.6570 C.3     1  ADP1        0.0836
     11  C4'      -11.1920   16.7380   35.5530 C.3     1  ADP1        0.1131
     12  O4'      -10.6030   15.9750   36.6080 O.3     1  ADP1       -0.3474
     13  C3'      -10.0630   17.3940   34.7720 C.3     1  ADP1        0.1133
     14  O3'      -10.0750   18.8080   34.9930 O.3     1  ADP1       -0.3864
     15  C2'       -8.7820   16.7660   35.2910 C.3     1  ADP1        0.1266
     16  O2'       -7.7680   17.7520   35.5170 O.3     1  ADP1       -0.3849
     17  C1'       -9.1750   16.0630   36.5800 C.3     1  ADP1        0.1617
     18  N9        -8.6230   14.6870   36.6440 N.pl3   1  ADP1       -0.2234
     19  C8        -9.0770   13.6360   35.9320 C.2     1  ADP1        0.1451
     20  N7        -8.3720   12.5120   36.2270 N.2     1  ADP1       -0.3871
     21  C5        -7.4470   12.8410   37.1500 C.2     1  ADP1        0.2211
     22  C6        -6.3760   12.1360   37.8940 C.2     1  ADP1        0.2227
     23  N6        -6.1340   10.8140   37.7130 N.pl3   1  ADP1       -0.3300
     24  N1        -5.6380   12.8600   38.7660 N.2     1  ADP1       -0.3296
     25  C2        -5.8480   14.1750   38.9710 C.1     1  ADP1        0.0930
     26  N3        -6.8020   14.8710   38.3250 N.2     1  ADP1       -0.3287
     27  C4        -7.6170   14.2760   37.4210 C.2     1  ADP1        0.2354
     28 H5'1      -12.7600   16.4190   34.1060 H       1  ADP1        0.0591
     29 H5'2      -12.5560   15.0920   35.2620 H       1  ADP1        0.0591
     30  H4'      -11.8400   17.5210   35.9700 H       1  ADP1        0.0647
     31  H3'      -10.1770   17.1660   33.7020 H       1  ADP1        0.0647
     32 HO3'       -9.3560   19.2180   34.4940 H       1  ADP1        0.2100
     33  H2'       -8.4300   16.0180   34.5670 H       1  ADP1        0.0663
     34 HO2'       -7.5540   18.1920   34.6840 H       1  ADP1        0.2101
     35  H1'       -8.8160   16.6550   37.4340 H       1  ADP1        0.0841
     36  H8        -9.8920   13.6810   35.2210 H       1  ADP1        0.1149
     37 HN61       -6.6910   10.2840   37.0590 H       1  ADP1        0.1448
     38 HN62       -5.3970   10.3600   38.2340 H       1  ADP1        0.1448
     39  H2        -5.2210   14.6960   39.6840 H       1  ADP1        0.1751
@<TRIPOS>BOND
     1     4     1    2
     2     2     1    1
     3     1     3    1
     4     1     8    1
     5     7     5    2
     6     6     5    1
     7     8     5    1
     8     5     9    1
     9    31    13    1
    10     9    10    1
    11    28    10    1
    12    32    14    1
    13    33    15    1
    14    10    29    1
    15    10    11    1
    16    34    16    1
    17    13    14    1
    18    13    15    1
    19    13    11    1
    20    36    19    1
    21    15    16    1
    22    15    17    1
    23    11    30    1
    24    11    12    1
    25    19    20    2
    26    19    18    1
    27    20    21    2
    28    17    12    1
    29    17    18    1
    30    17    35    1
    31    18    27    1
    32    37    23    1
    33    21    27    1
    34    21    22    1
    35    27    26    2
    36    23    22    1
    37    23    38    1
    38    22    24    2
    39    26    25    2
    40    24    25    2
    41    25    39    1
