@<TRIPOS>MOLECULE
3u0d_DBH_A_1.pdb
 11 11 0 0 0
SMALL
GASTEIGER

@<TRIPOS>ATOM
      1  O17       17.5970   22.2060    6.1670 O.co2 180  DBH180     -0.2404
      2  C21       18.1110   21.7030    5.1500 C.2   180  DBH180      0.3910
      3  O9        18.7950   22.3920    4.3470 O.co2 180  DBH180     -0.2404
      4  C18       17.8300   20.2620    4.8300 C.ar  180  DBH180      0.1218
      5  C15       16.7770   19.5580    5.4430 C.ar  180  DBH180      0.0100
      6  C12       16.4870   18.2240    5.0840 C.ar  180  DBH180      0.0037
      7  C3        18.6330   19.5890    3.7710 C.ar  180  DBH180      0.2405
      8  O3        19.6480   20.2230    3.1120 O.3   180  DBH180     -0.2829
      9  C6        18.2840   18.1980    3.4230 C.ar  180  DBH180      0.2345
     10  C9        17.2320   17.5530    4.0940 C.ar  180  DBH180      0.0454
     11  O6        19.0180   17.5860    2.4590 O.3   180  DBH180     -0.2831
@<TRIPOS>BOND
     1    11     9    1
     2     8     7    1
     3     9     7   ar
     4     9    10   ar
     5     7     4   ar
     6    10     6   ar
     7     3     2   ar
     8     4     2    1
     9     4     5   ar
    10     6     5   ar
    11     2     1   ar
