@<TRIPOS>MOLECULE
3u0e_07K_A_1.pdb
 12 13 0 0 0
SMALL
GASTEIGER

@<TRIPOS>ATOM
      1  C10       13.6420   20.0420    6.7560 C.ar  408  07K408     -0.0002
      2  C01       15.3500   21.1100    8.0910 C.ar  408  07K408      0.0341
      3  C02       14.3820   21.4660    9.0570 C.ar  408  07K408      0.0786
      4  N03       14.6840   22.1790   10.2150 N.ar  408  07K408     -0.2441
      5  C04       15.9680   22.5120   10.3960 C.ar  408  07K408      0.1002
      6  C05       17.0150   22.2180    9.4980 C.ar  408  07K408      0.0387
      7  C06       16.7140   21.5070    8.3430 C.ar  408  07K408      0.0920
      8  N07       17.6890   21.1920    7.4440 N.pl3 408  07K408     -0.1280
      9  C08       13.0220   21.0700    8.8630 C.ar  408  07K408     -0.0042
     10  C09       12.6710   20.3840    7.7280 C.ar  408  07K408     -0.0028
     11  C11       14.9490   20.3860    6.9380 C.ar  408  07K408      0.0028
     12  C12       12.0060   21.4620    9.8750 C.3   408  07K408      0.0326
@<TRIPOS>BOND
     1     1    11   ar
     2     1    10   ar
     3    11     2   ar
     4     8     7    1
     5    10     9   ar
     6     2     7   ar
     7     2     3   ar
     8     7     6   ar
     9     9     3   ar
    10     9    12    1
    11     3     4   ar
    12     6     5   ar
    13     4     5   ar
