@<TRIPOS>MOLECULE
3u0f_07L_A_1.pdb
 12 13 0 0 0
SMALL
GASTEIGER

@<TRIPOS>ATOM
      1  O11       18.7980   -3.7180   21.8750 O.2   411  07L411     -0.2445
      2  C9        18.3130   -4.7050   22.4440 C.ar  411  07L411      0.3459
      3  C8        16.9670   -5.0430   22.3680 C.ar  411  07L411      0.0824
      4  C7        16.4960   -6.1590   23.0560 C.ar  411  07L411      0.0097
      5  C2        17.3840   -6.9330   23.8190 C.ar  411  07L411      0.0351
      6  O10       19.1630   -5.4700   23.1830 O.2   411  07L411     -0.4209
      7  C3        18.7220   -6.5650   23.8710 C.ar  411  07L411      0.1519
      8  C4        19.6370   -7.2870   24.6170 C.ar  411  07L411      0.0796
      9  C5        19.2040   -8.3960   25.3290 C.ar  411  07L411      0.1988
     10  O12       20.0860   -9.1210   26.0710 O.3   411  07L411     -0.2865
     11  C6        17.8600   -8.7810   25.2810 C.ar  411  07L411      0.0422
     12  C1        16.9490   -8.0440   24.5350 C.ar  411  07L411      0.0063
@<TRIPOS>BOND
     1     1     2    2
     2     3     2   ar
     3     3     4   ar
     4     2     6   ar
     5     4     5   ar
     6     6     7   ar
     7     5     7   ar
     8     5    12   ar
     9     7     8   ar
    10    12    11   ar
    11     8     9   ar
    12    11     9   ar
    13     9    10    1
