@<TRIPOS>MOLECULE
3u0p_LSC_A_1.pdb
 35 34 0 0 0
SMALL
GASTEIGER

@<TRIPOS>ATOM
      1  C1       -20.5680   53.0630   59.4310 C.3   305  LSC305      0.0000
      2  C2       -19.3830   52.9590   58.4920 C.3   305  LSC305      0.0000
      3  C3       -18.0730   53.0760   59.2590 C.3   305  LSC305      0.0000
      4  C4       -16.8860   52.9990   58.3110 C.3   305  LSC305      0.0000
      5  C5       -15.6710   53.6930   58.9130 C.3   305  LSC305      0.0000
      6  C6       -14.6760   52.7090   59.5130 C.3   305  LSC305      0.0003
      7  C7       -13.3990   53.4690   59.8330 C.3   305  LSC305      0.0047
      8  C8       -12.3420   52.6330   60.5440 C.3   305  LSC305      0.0257
      9  C9       -11.0810   53.4600   60.5280 C.2   305  LSC305     -0.0307
     10  C10      -10.7340   54.1180   61.6270 C.2   305  LSC305     -0.0307
     11  C11       -9.4850   54.9640   61.6520 C.3   305  LSC305      0.0257
     12  C12       -9.6680   56.0880   62.6670 C.3   305  LSC305      0.0047
     13  C13      -10.8570   56.9690   62.2920 C.3   305  LSC305      0.0003
     14  C14      -11.0720   58.0930   63.3020 C.3   305  LSC305      0.0000
     15  C15      -10.5350   59.4210   62.7800 C.3   305  LSC305      0.0006
     16  C16       -9.0760   59.6100   63.1750 C.3   305  LSC305      0.0116
     17  C17       -8.5450   58.4080   63.9540 C.3   305  LSC305      0.1096
     18  C18       -7.1840   58.7540   64.5130 C.2   305  LSC305      0.3171
     19  O19       -6.8350   60.1570   64.6290 O.3   305  LSC305     -0.4456
     20  C20       -7.6390   61.0370   65.4100 C.3   305  LSC305      0.2437
     21  C21       -7.5270   62.4230   64.7790 C.3   305  LSC305      0.2252
     22  C22       -7.7760   63.5130   65.8200 C.3   305  LSC305      0.1857
     23  O23       -8.9970   64.2120   65.5840 O.3   305  LSC305     -0.3112
     24  P24       -9.2710   65.0730   64.2470 P.3   305  LSC305      0.2140
     25  O25       -9.8590   64.1290   63.2250 O.2   305  LSC305     -0.5172
     26  C30       -6.6010   65.3260   64.3800 C.3   305  LSC305      0.1271
     27  C31       -5.4420   65.2870   63.3890 C.3   305  LSC305     -0.0402
     28  N32       -5.0570   66.6420   62.9760 N.4   305  LSC305      0.3874
     29  O32       -6.3790   57.8970   64.8490 O.2   305  LSC305     -0.2501
     30  C33       -6.2370   67.5190   62.9280 C.3   305  LSC305     -0.0959
     31  O33       -8.4530   62.5370   63.6880 O.3   305  LSC305     -0.2164
     32  C34       -4.4600   66.5740   61.6340 C.3   305  LSC305     -0.0959
     33  O34      -10.0610   66.3030   64.6260 O.3   305  LSC305     -0.4373
     34  C35       -4.0750   67.1790   63.9280 C.3   305  LSC305     -0.0959
     35  O35       -7.8330   65.5570   63.6930 O.3   305  LSC305     -0.3163
@<TRIPOS>BOND
     1     4     5    1
     2     4     3    1
     3     2     3    1
     4     2     1    1
     5     5     6    1
     6     6     7    1
     7     7     8    1
     8     9     8    1
     9     9    10    2
    10    10    11    1
    11    32    28    1
    12    11    12    1
    13    13    12    1
    14    13    14    1
    15    15    16    1
    16    15    14    1
    17    30    28    1
    18    28    27    1
    19    28    34    1
    20    16    17    1
    21    25    24    2
    22    27    26    1
    23    31    21    1
    24    35    24    1
    25    35    26    1
    26    17    18    1
    27    24    33    1
    28    24    23    1
    29    18    19    1
    30    18    29    2
    31    19    20    1
    32    21    20    1
    33    21    22    1
    34    23    22    1
