@<TRIPOS>MOLECULE
3u0x_GTI_A_1.pdb
 17 19 0 0 0
SMALL
GASTEIGER

@<TRIPOS>ATOM
      1  NJ        -2.6300  -53.1120   18.2810 N.2     1  GTI1       -0.1420
      2  NK        -3.3290  -52.4580   20.3360 N.2     1  GTI1       -0.3265
      3  NL        -3.8260  -47.6260   21.6640 N.3     1  GTI1       -0.2144
      4  NQ        -3.9250  -50.1420   20.3090 N.pl3   1  GTI1       -0.2737
      5  CAA       -2.3480  -57.2370   21.2100 C.ar    1  GTI1        0.0000
      6  CAB       -2.0000  -57.0120   19.8810 C.ar    1  GTI1        0.0007
      7  CAC       -2.8660  -56.2100   21.9820 C.ar    1  GTI1        0.0007
      8  CAD       -2.1730  -55.7540   19.3160 C.ar    1  GTI1        0.0110
      9  CAE       -3.0300  -54.9490   21.4200 C.ar    1  GTI1        0.0110
     10  CAF       -3.5230  -48.9020   22.3500 C.3     1  GTI1        0.1102
     11  CAG       -3.4360  -47.7870   20.2460 C.3     1  GTI1        0.1102
     12  CAH       -4.3110  -50.0560   21.7320 C.3     1  GTI1        0.1125
     13  CAI       -4.2170  -48.9140   19.5720 C.3     1  GTI1        0.1125
     14  SAM       -3.0010  -51.5030   18.1130 S.3     1  GTI1        0.0730
     15  CAN       -2.6910  -54.7270   20.0890 C.ar    1  GTI1        0.0746
     16  CAO       -2.8660  -53.4570   19.5620 C.1     1  GTI1        0.0961
     17  CAP       -3.4610  -51.3010   19.7090 C.2     1  GTI1        0.2439
@<TRIPOS>BOND
     1    14     1    1
     2    14    17    1
     3     1    16    2
     4     8     6   ar
     5     8    15   ar
     6    16    15    1
     7    16     2    2
     8    13    11    1
     9    13     4    1
    10    17     4    1
    11    17     2    2
    12     6     5   ar
    13    15     9   ar
    14    11     3    1
    15     4    12    1
    16     5     7   ar
    17     9     7   ar
    18     3    10    1
    19    12    10    1
