@<TRIPOS>MOLECULE
3u0y_GTI_A_1.pdb
 17 19 0 0 0
SMALL
GASTEIGER

@<TRIPOS>ATOM
      1  NJ         2.2910  -42.2710   20.1440 N.2   401  GTI401     -0.1420
      2  NK         1.5210  -44.3530   19.7610 N.2   401  GTI401     -0.3265
      3  NL        -2.1520  -46.3680   22.6670 N.3   401  GTI401     -0.2144
      4  NQ        -0.5230  -44.6750   21.0240 N.pl3 401  GTI401     -0.2737
      5  CAA        5.6100  -44.1330   16.8590 C.ar  401  GTI401      0.0000
      6  CAB        5.5200  -42.9130   17.5140 C.ar  401  GTI401      0.0007
      7  CAC        4.6670  -45.1280   17.0890 C.ar  401  GTI401      0.0007
      8  CAD        4.4800  -42.6730   18.4100 C.ar  401  GTI401      0.0110
      9  CAE        3.6290  -44.8850   17.9820 C.ar  401  GTI401      0.0110
     10  CAF       -1.0050  -46.8940   21.8720 C.3   401  GTI401      0.1102
     11  CAG       -1.8150  -44.9770   23.0340 C.3   401  GTI401      0.1102
     12  CAH       -0.7930  -46.0630   20.6160 C.3   401  GTI401      0.1125
     13  CAI       -1.6140  -44.1120   21.8190 C.3   401  GTI401      0.1125
     14  SAM        0.9050  -42.3610   21.0460 S.3   401  GTI401      0.0730
     15  CAN        3.5410  -43.6700   18.6440 C.ar  401  GTI401      0.0746
     16  CAO        2.4800  -43.4390   19.5160 C.1   401  GTI401      0.0961
     17  CAP        0.5730  -43.9290   20.6000 C.2   401  GTI401      0.2439
@<TRIPOS>BOND
     1     5     7   ar
     2     5     6   ar
     3     7     9   ar
     4     6     8   ar
     5     9    15   ar
     6     8    15   ar
     7    15    16    1
     8    16     2    2
     9    16     1    2
    10     2    17    2
    11     1    14    1
    12    17     4    1
    13    17    14    1
    14    12     4    1
    15    12    10    1
    16     4    13    1
    17    13    11    1
    18    10     3    1
    19     3    11    1
