@<TRIPOS>MOLECULE
3u0y_UDP_A_1.pdb
 25 26 0 0 0
SMALL
GASTEIGER

@<TRIPOS>ATOM
      1  N1        -7.7780  -51.8570   24.1130 N.am  402  UDP402     -0.1996
      2  C2        -8.3240  -52.3380   25.2850 C.1   402  UDP402      0.2802
      3  N3        -7.9660  -53.5690   25.7890 N.2   402  UDP402     -0.2497
      4  C4        -7.0470  -54.3520   25.1370 C.1   402  UDP402      0.1941
      5  C5        -6.4880  -53.8750   23.9520 C.3   402  UDP402      0.1579
      6  C6        -6.7430  -52.5590   23.5450 C.3   402  UDP402      0.1249
      7  O2        -9.1420  -51.6840   25.8950 O.2   402  UDP402     -0.1922
      8  O4        -6.7460  -55.4450   25.6240 O.2   402  UDP402     -0.2133
      9  C1'       -8.1960  -50.5340   23.5850 C.3   402  UDP402      0.2361
     10  C2'       -7.5990  -49.4000   24.4210 C.3   402  UDP402      0.2316
     11  O2'       -8.3500  -48.1830   24.4480 O.3   402  UDP402     -0.2157
     12  C3'       -6.3210  -49.1270   23.6870 C.3   402  UDP402      0.2158
     13  C4'       -6.8080  -49.2680   22.2530 C.3   402  UDP402      0.1799
     14  O4'       -7.6810  -50.3950   22.2700 O.3   402  UDP402     -0.3322
     15  O3'       -5.8480  -47.8500   24.0220 O.3   402  UDP402     -0.2175
     16  C5'       -5.6610  -49.4050   21.2560 C.3   402  UDP402      0.1813
     17  O5'       -4.7340  -50.3070   21.8040 O.3   402  UDP402     -0.3111
     18  PA        -3.2530  -49.8300   22.1650 P.3   402  UDP402      0.2231
     19  O1A       -3.3380  -48.5790   22.9300 O.3   402  UDP402     -0.4370
     20  O2A       -2.5090  -50.8700   22.9060 O.2   402  UDP402     -0.5169
     21  O3A       -2.5890  -49.5250   20.7260 O.3   402  UDP402     -0.2261
     22  PB        -1.1600  -48.7760   20.6100 P.3   402  UDP402      0.5373
     23  O1B       -0.1770  -49.4750   21.4720 O.3   402  UDP402     -0.1143
     24  O2B       -0.7350  -48.8320   19.1910 O.2   402  UDP402     -0.2221
     25  O3B       -1.2770  -47.3720   21.0650 O.3   402  UDP402     -0.1143
@<TRIPOS>BOND
     1    24    22    2
     2    22    21    1
     3    22    25    1
     4    22    23    1
     5    21    18    1
     6    16    17    1
     7    16    13    1
     8    17    18    1
     9    18    20    2
    10    18    19    1
    11    13    14    1
    12    13    12    1
    13    14     9    1
    14     6     5    1
    15     6     1    1
    16     9     1    1
    17     9    10    1
    18    12    15    1
    19    12    10    1
    20     5     4    1
    21     1     2   am
    22    10    11    1
    23     4     8    2
    24     4     3    2
    25     2     3    2
    26     2     7    2
