@<TRIPOS>MOLECULE
3u0z_CMP_A_1.pdb
 22 25 0 0 0
SMALL
GASTEIGER

@<TRIPOS>ATOM
      1  P        -53.3720  -22.5210   10.3660 P.3   646  CMP646      0.2141
      2  O1P      -54.0060  -22.3820   11.7410 O.3   646  CMP646     -0.4373
      3  O2P      -52.9580  -23.9600   10.1000 O.2   646  CMP646     -0.5172
      4  O5'      -54.3790  -22.0610    9.2090 O.3   646  CMP646     -0.3114
      5  C5'      -54.6700  -20.6860    9.0110 C.3   646  CMP646      0.1812
      6  C4'      -53.3540  -20.0010    8.7620 C.3   646  CMP646      0.1793
      7  O4'      -53.4050  -18.5800    8.6040 O.3   646  CMP646     -0.3136
      8  C3'      -52.5020  -20.1640    9.9920 C.3   646  CMP646      0.1884
      9  O3'      -52.1440  -21.5240   10.1270 O.3   646  CMP646     -0.3111
     10  C2'      -51.3780  -19.2110    9.6740 C.3   646  CMP646      0.2541
     11  O2'      -50.3610  -19.9350    8.9650 O.3   646  CMP646     -0.2131
     12  C1'      -52.0870  -18.1010    8.8690 C.3   646  CMP646      0.3185
     13  N9       -52.0240  -16.9190    9.7710 N.pl3 646  CMP646     -0.1439
     14  C8       -52.5070  -16.8690   11.0300 C.3   646  CMP646      0.3377
     15  N7       -52.2210  -15.6760   11.6110 N.2   646  CMP646     -0.2095
     16  C5       -51.5220  -14.9350   10.7340 C.2   646  CMP646      0.2526
     17  C6       -50.9050  -13.5840   10.7290 C.2   646  CMP646      0.4393
     18  N6       -50.9990  -12.7900   11.8210 N.pl3 646  CMP646      0.2180
     19  N1       -50.2590  -13.1630    9.6170 N.2   646  CMP646      0.0021
     20  C2       -50.1660  -13.9800    8.5500 C.3   646  CMP646      0.5254
     21  N3       -50.6890  -15.2250    8.4790 N.2   646  CMP646     -0.0055
     22  C4       -51.3830  -15.7570    9.5200 C.2   646  CMP646      0.3518
@<TRIPOS>BOND
     1    21    20    1
     2    21    22    2
     3    20    19    1
     4     7     6    1
     5     7    12    1
     6     6     5    1
     7     6     8    1
     8    12    10    1
     9    12    13    1
    10    11    10    1
    11     5     4    1
    12     4     1    1
    13    22    13    1
    14    22    16    1
    15    19    17    2
    16    10     8    1
    17    13    14    1
    18     8     9    1
    19     3     1    2
    20     9     1    1
    21     1     2    1
    22    17    16    1
    23    17    18    1
    24    16    15    2
    25    14    15    1
