@<TRIPOS>MOLECULE
3u10_CMP_A_1.pdb
 22 25 0 0 0
SMALL
GASTEIGER

@<TRIPOS>ATOM
      1  P         -7.2770  -23.1400   -7.4720 P.3   701  CMP701      0.2141
      2  O1P       -7.9230  -23.0200   -6.0810 O.3   701  CMP701     -0.4373
      3  O2P       -6.6670  -24.4770   -7.6230 O.2   701  CMP701     -0.5172
      4  O5'       -8.3270  -22.8030   -8.6170 O.3   701  CMP701     -0.3114
      5  C5'       -8.9090  -21.5190   -8.7910 C.3   701  CMP701      0.1812
      6  C4'       -7.7440  -20.5820   -8.8650 C.3   701  CMP701      0.1793
      7  O4'       -8.1070  -19.2240   -8.8560 O.3   701  CMP701     -0.3136
      8  C3'       -6.8420  -20.6900   -7.6540 C.3   701  CMP701      0.1884
      9  O3'       -6.2370  -21.9340   -7.5680 O.3   701  CMP701     -0.3111
     10  C2'       -5.8980  -19.5640   -7.9220 C.3   701  CMP701      0.2541
     11  O2'       -4.7130  -19.9300   -8.6620 O.3   701  CMP701     -0.2131
     12  C1'       -6.8280  -18.5710   -8.6370 C.3   701  CMP701      0.3185
     13  N9        -6.9720  -17.4850   -7.6490 N.pl3 701  CMP701     -0.1439
     14  C8        -7.5970  -17.6290   -6.4530 C.3   701  CMP701      0.3377
     15  N7        -7.5580  -16.4690   -5.7530 N.2   701  CMP701     -0.2095
     16  C5        -6.9000  -15.5550   -6.5060 C.2   701  CMP701      0.2526
     17  C6        -6.5300  -14.1350   -6.3500 C.2   701  CMP701      0.4393
     18  N6        -6.8380  -13.4320   -5.2140 N.pl3 701  CMP701      0.2180
     19  N1        -5.8860  -13.5600   -7.4070 N.2   701  CMP701      0.0021
     20  C2        -5.5600  -14.2340   -8.5480 C.3   701  CMP701      0.5254
     21  N3        -5.8590  -15.5400   -8.7220 N.2   701  CMP701     -0.0055
     22  C4        -6.5190  -16.2320   -7.7600 C.2   701  CMP701      0.3518
@<TRIPOS>BOND
     1     6     7    1
     2     6     5    1
     3     6     8    1
     4     7    12    1
     5     5     4    1
     6    21    20    1
     7    21    22    2
     8    11    10    1
     9    12    10    1
    10    12    13    1
    11     4     1    1
    12    20    19    1
    13    10     8    1
    14    22    13    1
    15    22    16    1
    16     8     9    1
    17    13    14    1
    18     3     1    2
    19     9     1    1
    20     1     2    1
    21    19    17    2
    22    16    17    1
    23    16    15    2
    24    14    15    1
    25    17    18    1
