@<TRIPOS>MOLECULE
3u11_CMP_A_1.pdb
 22 25 0 0 0
SMALL
GASTEIGER

@<TRIPOS>ATOM
      1  P         -5.1530  -26.1590  -11.9150 P.3   846  CMP846      0.2141
      2  O1P       -5.9970  -26.5290  -13.1020 O.2   846  CMP846     -0.5172
      3  O2P       -4.5920  -24.7670  -11.9910 O.3   846  CMP846     -0.4373
      4  O5'       -5.9620  -26.3760  -10.5400 O.3   846  CMP846     -0.3114
      5  C5'       -6.4190  -27.6780  -10.1910 C.3   846  CMP846      0.1812
      6  C4'       -5.1490  -28.4900  -10.0190 C.3   846  CMP846      0.1793
      7  O4'       -5.3110  -29.8810   -9.7030 O.3   846  CMP846     -0.3136
      8  C3'       -4.3940  -28.5450  -11.3330 C.3   846  CMP846      0.1884
      9  O3'       -4.0000  -27.2470  -11.7780 O.3   846  CMP846     -0.3111
     10  C2'       -3.2920  -29.5150  -10.9720 C.3   846  CMP846      0.2541
     11  O2'       -2.3070  -28.8630  -10.1830 O.3   846  CMP846     -0.2131
     12  C1'       -4.0730  -30.4900  -10.0990 C.3   846  CMP846      0.3185
     13  N9        -4.4150  -31.6950  -10.8930 N.pl3 846  CMP846     -0.1439
     14  C8        -5.3040  -31.7520  -11.9180 C.3   846  CMP846      0.3377
     15  N7        -5.3920  -33.0290  -12.3830 N.2   846  CMP846     -0.2095
     16  C5        -4.5540  -33.7820  -11.6470 C.2   846  CMP846      0.2526
     17  C6        -4.1620  -35.1980  -11.6130 C.2   846  CMP846      0.4393
     18  N6        -4.7020  -36.0480  -12.5040 N.pl3 846  CMP846      0.2180
     19  N1        -3.2550  -35.5900  -10.6900 N.2   846  CMP846      0.0021
     20  C2        -2.7150  -34.7410   -9.8000 C.3   846  CMP846      0.5254
     21  N3        -3.0520  -33.4550   -9.7630 N.2   846  CMP846     -0.0055
     22  C4        -3.9240  -32.9210  -10.6580 C.2   846  CMP846      0.3518
@<TRIPOS>BOND
     1     2     1    2
     2    18    17    1
     3    15    14    1
     4    15    16    2
     5     3     1    1
     6    14    13    1
     7     1     9    1
     8     1     4    1
     9     9     8    1
    10    16    17    1
    11    16    22    1
    12    17    19    2
    13     8    10    1
    14     8     6    1
    15    10    11    1
    16    10    12    1
    17    13    22    1
    18    13    12    1
    19    19    20    1
    20    22    21    2
    21     4     5    1
    22     5     6    1
    23    12     7    1
    24     6     7    1
    25    20    21    1
