@<TRIPOS>MOLECULE
3u14_FRU_A_1.pdb
 11 11 0 0 0
SMALL
GASTEIGER

@<TRIPOS>ATOM
      1  C1        26.6090   -0.9150   12.4130 C.3   1000  FRU1000     0.2141
      2  C2        27.7500   -1.0510   11.4150 C.3   1000  FRU1000     0.1810
      3  C3        28.3790    0.2780   11.0640 C.3   1000  FRU1000     0.2141
      4  C4        29.1720   -0.1030    9.8110 C.3   1000  FRU1000     0.2141
      5  C5        28.2640   -1.1380    9.1270 C.3   1000  FRU1000     0.1810
      6  C6        28.9880   -2.3830    8.6190 C.3   1000  FRU1000     0.2141
      7  O1        25.4030   -0.6290   11.7220 O.3   1000  FRU1000    -0.2176
      8  O3        29.1330    0.7710   12.1780 O.3   1000  FRU1000    -0.2176
      9  O4        29.4650    1.0070    8.9550 O.3   1000  FRU1000    -0.2176
     10  O5        27.3420   -1.5610   10.1350 O.3   1000  FRU1000    -0.3480
     11  O6        28.0740   -3.1400    7.8190 O.3   1000  FRU1000    -0.2176
@<TRIPOS>BOND
     1    11     6    1
     2     6     5    1
     3     9     4    1
     4     5     4    1
     5     5    10    1
     6     4     3    1
     7    10     2    1
     8     3     2    1
     9     3     8    1
    10     2     1    1
    11     7     1    1
