@<TRIPOS>MOLECULE
3u15_03M_A_1.pdb
 28 31 0 0 0
SMALL
GASTEIGER

@<TRIPOS>ATOM
      1  C4       -10.1830  -34.3510    1.6740 C.2     1  03M1       -0.0193
      2  C6        -8.0530  -37.1220    0.5890 C.2     1  03M1        0.0950
      3  C7        -9.2640  -36.5010    0.6750 C.2     1  03M1        0.0053
      4  C8        -9.2280  -35.3140    1.3560 C.2     1  03M1        0.0114
      5  C10      -10.4630  -36.9840    0.0160 C.3     1  03M1        0.0927
      6  N12       -9.7710  -39.0810   -1.2730 N.2     1  03M1       -0.3203
      7  C13      -10.5630  -39.8700   -2.0390 C.1     1  03M1        0.2749
      8  C15      -11.9750  -38.4190   -1.4440 C.2     1  03M1        0.2897
      9  C20      -15.0410  -40.8860   -1.6330 C.ar    1  03M1       -0.0001
     10  C21      -15.7810  -41.8660   -0.9540 C.ar    1  03M1        0.0317
     11  C22      -15.3550  -43.2060   -0.9660 C.ar    1  03M1        0.1674
     12  C24      -13.4170  -42.5540   -2.2720 C.ar    1  03M1        0.0294
     13  C1        -9.7660  -33.2810    2.4220 C.3     1  03M1        0.0637
     14  C2        -8.4360  -33.1820    2.8070 C.2     1  03M1        0.0373
     15  C3        -7.4970  -34.1130    2.4680 C.2     1  03M1        0.0026
     16  N5        -7.2530  -36.2880    1.2880 N.2     1  03M1       -0.2445
     17  C9        -7.9050  -35.2080    1.7540 C.2     1  03M1        0.0773
     18  C11      -10.6750  -38.1460   -0.8290 C.2     1  03M1        0.1817
     19  N14      -11.8990  -39.5090   -2.2160 N.am    1  03M1       -0.1663
     20  O16      -10.0200  -40.8770   -2.6500 O.2     1  03M1       -0.1926
     21  O17      -13.0060  -37.6760   -1.1760 O.2     1  03M1       -0.2664
     22  C18      -12.9700  -40.1810   -3.0040 C.3     1  03M1        0.1385
     23  C19      -13.8200  -41.2180   -2.2690 C.ar    1  03M1        0.0012
     24  C23      -14.1610  -43.5220   -1.6120 C.ar    1  03M1        0.1671
     25  F25      -13.7230  -44.7900   -1.6240 F       1  03M1       -0.2018
     26  F26      -16.0480  -44.1980   -0.3160 F       1  03M1       -0.2018
     27  C27       -6.0640  -33.9890    2.9150 C.3     1  03M1        0.0332
     28 CL         -8.0200  -31.7770    3.7790 Cl      1  03M1       -0.0869
@<TRIPOS>BOND
     1    22    23    1
     2    22    19    1
     3    20     7    2
     4    12    23   ar
     5    12    24   ar
     6    23     9   ar
     7    19     7   am
     8    19     8   am
     9     7     6    2
    10     9    10   ar
    11    25    24    1
    12    24    11   ar
    13     8    21    2
    14     8    18    1
    15     6    18    2
    16    11    10   ar
    17    11    26    1
    18    18     5    1
    19     5     3    1
    20     2     3    2
    21     2    16    1
    22     3     4    1
    23    16    17    2
    24     4     1    2
    25     4    17    1
    26     1    13    1
    27    17    15    1
    28    13    14    1
    29    15    14    2
    30    15    27    1
    31    14    28    1
