@<TRIPOS>MOLECULE
3u16_H89_A_1.pdb
 33 37 0 0 0
SMALL
GASTEIGER

@<TRIPOS>ATOM
      1  C1       -26.0420   -6.9270   15.7070 C.ar  543  H89543      0.0986
      2  C2       -26.6300   -6.8690   14.4410 C.ar  543  H89543      0.0183
      3  C3       -25.8210   -6.6900   13.3170 C.ar  543  H89543      0.0053
      4  C4       -24.4460   -6.5500   13.5220 C.ar  543  H89543      0.0183
      5  C5       -23.9070   -6.6170   14.8100 C.ar  543  H89543      0.0986
      6  N6       -24.7120   -6.7950   15.8740 N.ar  543  H89543     -0.2423
      7  C7       -26.3940   -6.6090   11.9010 C.3   543  H89543      0.1565
      8  N8       -25.2780   -6.0590   11.1220 N.ar  543  H89543     -0.2197
      9  C9       -24.2570   -6.6540   10.5190 C.ar  543  H89543      0.2119
     10  C10      -23.4960   -5.6180   10.0180 C.ar  543  H89543      0.0715
     11  C11      -24.0880   -4.3460   10.3350 C.ar  543  H89543      0.1242
     12  N12      -25.2070   -4.6580   11.0360 N.ar  543  H89543     -0.1653
     13  N13      -23.9200   -7.9510   10.3730 N.2   543  H89543     -0.3869
     14  C14      -22.8160   -8.2820    9.6930 C.2   543  H89543      0.1155
     15  C15      -22.0030   -7.2910    9.1540 C.3   543  H89543      0.0922
     16  C16      -22.3400   -5.9490    9.3140 C.2   543  H89543      0.0701
     17  C18      -21.4510   -4.8860    8.7150 C.2   543  H89543      0.3844
     18  O19      -21.7290   -3.6730    8.8420 O.co2 543  H89543     -0.2409
     19  O20      -20.4310   -5.2470    8.1000 O.co2 543  H89543     -0.2409
     20  C21      -22.4930   -9.7200    9.5690 C.ar  543  H89543      0.0260
     21  C22      -23.1510  -10.6050   10.4120 C.ar  543  H89543      0.0053
     22  C23      -22.8820  -11.9620   10.3520 C.ar  543  H89543      0.0370
     23  C24      -21.9480  -12.4360    9.4400 C.ar  543  H89543      0.1391
     24  C25      -21.2870  -11.5520    8.5840 C.ar  543  H89543      0.0370
     25  C26      -21.5540  -10.1820    8.6510 C.ar  543  H89543      0.0053
     26  O27      -21.6910  -13.7830    9.3900 O.3   543  H89543     -0.4706
     27  C28      -21.3830  -15.1100    7.3890 C.ar  543  H89543      0.0212
     28  C29      -22.2730  -14.7360    6.3890 C.ar  543  H89543     -0.0007
     29  C30      -22.8070  -15.7010    5.5390 C.ar  543  H89543     -0.0002
     30  C31      -22.4540  -17.0420    5.6970 C.ar  543  H89543     -0.0000
     31  C32      -21.5610  -17.4260    6.6970 C.ar  543  H89543     -0.0002
     32  C33      -21.0250  -16.4510    7.5360 C.ar  543  H89543     -0.0007
     33  C34      -20.7940  -14.0620    8.3110 C.3   543  H89543      0.2320
@<TRIPOS>BOND
     1    29    30   ar
     2    29    28   ar
     3    30    31   ar
     4    28    27   ar
     5    31    32   ar
     6    27    32   ar
     7    27    33    1
     8    19    17   ar
     9    33    26    1
    10    24    25   ar
    11    24    23   ar
    12    25    20   ar
    13    17    18   ar
    14    17    16    1
    15    15    16    1
    16    15    14    1
    17    16    10    2
    18    26    23    1
    19    23    22   ar
    20    20    14    1
    21    20    21   ar
    22    14    13    2
    23    10    11   ar
    24    10     9   ar
    25    11    12   ar
    26    22    21   ar
    27    13     9    2
    28     9     8   ar
    29    12     8   ar
    30     8     7    1
    31     7     3    1
    32     3     4   ar
    33     3     2   ar
    34     4     5   ar
    35     2     1   ar
    36     5     6   ar
    37     1     6   ar
