@<TRIPOS>MOLECULE
3u17_H90_A_1.pdb
 33 37 0 0 0
SMALL
GASTEIGER

@<TRIPOS>ATOM
      1  C1       -23.7040   -6.5340   14.8910 C.ar  543  H90543      0.0986
      2  C2       -24.1810   -6.4500   13.5740 C.ar  543  H90543      0.0183
      3  C3       -25.5410   -6.5670   13.2830 C.ar  543  H90543      0.0053
      4  C4       -26.3900   -6.7610   14.3710 C.ar  543  H90543      0.0183
      5  C5       -25.8680   -6.8360   15.6780 C.ar  543  H90543      0.0986
      6  N6       -24.5470   -6.7110   15.9220 N.ar  543  H90543     -0.2423
      7  C7       -26.0490   -6.4890   11.8220 C.3   543  H90543      0.1565
      8  N8       -24.9320   -5.8910   11.0910 N.ar  543  H90543     -0.2197
      9  C9       -23.8880   -6.4500   10.5040 C.ar  543  H90543      0.2119
     10  C10      -23.1300   -5.3820   10.0610 C.ar  543  H90543      0.0715
     11  C11      -23.7580   -4.1340   10.3970 C.ar  543  H90543      0.1242
     12  N12      -24.8900   -4.4870   11.0440 N.ar  543  H90543     -0.1653
     13  N13      -23.5270   -7.7370   10.3230 N.2   543  H90543     -0.3869
     14  C14      -22.3800   -8.0160    9.7010 C.2   543  H90543      0.1155
     15  C15      -21.5700   -6.9970    9.1930 C.3   543  H90543      0.0922
     16  C16      -21.9430   -5.6630    9.3790 C.2   543  H90543      0.0701
     17  C18      -21.0850   -4.5370    8.8600 C.2   543  H90543      0.3844
     18  O19      -21.4410   -3.3570    9.0550 O.co2 543  H90543     -0.2409
     19  O20      -20.0280   -4.7900    8.2520 O.co2 543  H90543     -0.2409
     20  C21      -22.0660   -9.4390    9.5330 C.ar  543  H90543      0.0258
     21  C22      -22.8900  -10.3800   10.1380 C.ar  543  H90543      0.0023
     22  C23      -22.6150  -11.7320    9.9740 C.ar  543  H90543      0.0033
     23  C24      -21.5240  -12.1310    9.1990 C.ar  543  H90543      0.0390
     24  C25      -20.7210  -11.1740    8.5930 C.ar  543  H90543      0.0033
     25  C26      -20.9860   -9.8230    8.7610 C.ar  543  H90543      0.0023
     26  C27      -21.2260  -13.5850    8.9840 C.2   543  H90543      0.1955
     27  O27      -22.1440  -14.3330    8.6560 O.2   543  H90543     -0.2866
     28  C28      -19.8330  -14.1320    9.0720 C.ar  543  H90543      0.0390
     29  C29      -19.5440  -15.3350    8.4270 C.ar  543  H90543      0.0032
     30  C30      -18.2650  -15.8760    8.4710 C.ar  543  H90543      0.0001
     31  C31      -17.2700  -15.2030    9.1670 C.ar  543  H90543      0.0000
     32  C32      -17.5550  -14.0000    9.8040 C.ar  543  H90543      0.0001
     33  C33      -18.8360  -13.4550    9.7560 C.ar  543  H90543      0.0032
@<TRIPOS>BOND
     1    19    17   ar
     2    29    30   ar
     3    29    28   ar
     4    30    31   ar
     5    24    25   ar
     6    24    23   ar
     7    27    26    2
     8    25    20   ar
     9    17    18   ar
    10    17    16    1
    11    26    28    1
    12    26    23    1
    13    28    33   ar
    14    31    32   ar
    15    15    16    1
    16    15    14    1
    17    23    22   ar
    18    16    10    2
    19    20    14    1
    20    20    21   ar
    21    14    13    2
    22    33    32   ar
    23    22    21   ar
    24    10    11   ar
    25    10     9   ar
    26    13     9    2
    27    11    12   ar
    28     9     8   ar
    29    12     8   ar
    30     8     7    1
    31     7     3    1
    32     3     2   ar
    33     3     4   ar
    34     2     1   ar
    35     4     5   ar
    36     1     6   ar
    37     5     6   ar
