@<TRIPOS>MOLECULE
3u1b_AMP_A_1.pdb
 23 25 0 0 0
SMALL
GASTEIGER

@<TRIPOS>ATOM
      1  P         22.5350   46.9990  -11.8740 P.3   401  AMP401      0.5327
      2  O1P       23.8150   46.2080  -12.0060 O.2   401  AMP401     -0.2224
      3  O2P       22.6210   48.4490  -11.4400 O.3   401  AMP401     -0.1145
      4  O3P       21.5490   46.2280  -11.0180 O.3   401  AMP401     -0.1145
      5  O5'       21.7330   46.9080  -13.2070 O.3   401  AMP401     -0.2675
      6  C5'       22.3040   47.3240  -14.4080 C.3   401  AMP401      0.1860
      7  C4'       21.3240   47.1700  -15.5170 C.3   401  AMP401      0.1823
      8  O4'       21.9210   47.6420  -16.7330 O.3   401  AMP401     -0.3135
      9  C3'       20.9400   45.7360  -15.8480 C.3   401  AMP401      0.2184
     10  O3'       19.9740   45.2010  -14.9660 O.3   401  AMP401     -0.2174
     11  C2'       20.4540   45.8690  -17.2710 C.3   401  AMP401      0.2570
     12  O2'       19.1600   46.4650  -17.2810 O.3   401  AMP401     -0.2130
     13  C1'       21.4530   46.8920  -17.8170 C.3   401  AMP401      0.3186
     14  N9        22.6170   46.2740  -18.4800 N.pl3 401  AMP401     -0.1439
     15  C8        23.8580   46.1690  -17.9910 C.3   401  AMP401      0.3377
     16  N7        24.6700   45.6240  -18.9300 N.2   401  AMP401     -0.2095
     17  C5        23.9320   45.4170  -20.0290 C.2   401  AMP401      0.2526
     18  C6        24.1490   44.8610  -21.3690 C.2   401  AMP401      0.4393
     19  N6        25.3830   44.4060  -21.7100 N.pl3 401  AMP401      0.2180
     20  N1        23.0900   44.8130  -22.2060 N.2   401  AMP401      0.0021
     21  C2        21.8660   45.2620  -21.8740 C.3   401  AMP401      0.5254
     22  N3        21.6140   45.7750  -20.6540 N.2   401  AMP401     -0.0055
     23  C4        22.5840   45.8430  -19.7320 C.2   401  AMP401      0.3518
@<TRIPOS>BOND
     1    20    21    1
     2    20    18    2
     3    21    22    1
     4    19    18    1
     5    18    17    1
     6    22    23    2
     7    17    23    1
     8    17    16    2
     9    23    14    1
    10    16    15    1
    11    14    15    1
    12    14    13    1
    13    13    11    1
    14    13     8    1
    15    12    11    1
    16    11     9    1
    17     8     7    1
    18     9     7    1
    19     9    10    1
    20     7     6    1
    21     6     5    1
    22     5     1    1
    23     2     1    2
    24     1     3    1
    25     1     4    1
