@<TRIPOS>MOLECULE
3u1e_387_B_1.pdb
 24 25 0 0 0
SMALL
GASTEIGER

@<TRIPOS>ATOM
      1  CAI      -39.8300  -13.4020   -7.0840 C.ar  806  387806      0.0086
      2  CAU      -39.2470  -14.6560   -7.0900 C.ar  806  387806      0.0582
      3 CLC       -37.4910  -14.7990   -6.9980 Cl    806  387806     -0.0822
      4  CAH      -40.0070  -15.8060   -7.1030 C.ar  806  387806      0.0228
      5  CAV      -41.3780  -15.6730   -7.0800 C.ar  806  387806      0.0582
      6 CLD       -42.3580  -17.1050   -7.0620 Cl    806  387806     -0.0822
      7  CAJ      -41.9940  -14.4410   -7.0570 C.ar  806  387806      0.0086
      8  CAW      -41.2220  -13.2880   -7.0600 C.ar  806  387806     -0.0031
      9  CAO      -41.9060  -11.9430   -6.9550 C.3   806  387806      0.1150
     10  NAP      -42.2950  -11.3180   -8.2270 N.3   806  387806     -0.2132
     11  CAM      -43.4650  -11.9410   -8.8620 C.3   806  387806      0.0909
     12  CAL      -43.9420  -11.1630  -10.0800 C.3   806  387806      0.0423
     13  CAN      -44.8440  -11.9320  -11.0280 C.3   806  387806      0.1183
     14  NAQ      -44.1140  -12.8320  -11.9120 N.am  806  387806     -0.1869
     15  CAS      -44.7510  -13.6020  -12.8110 C.2   806  387806      0.3435
     16  OAA      -45.9650  -13.5570  -12.9570 O.2   806  387806     -0.2488
     17  NAR      -43.9400  -14.4600  -13.5120 N.am  806  387806     -0.1609
     18  CAX      -44.3180  -15.4750  -14.4390 C.ar  806  387806      0.0782
     19  CAK      -45.6220  -15.6440  -14.8920 C.ar  806  387806      0.0587
     20  CAG      -43.3530  -16.4160  -14.7800 C.ar  806  387806      0.0169
     21  CAE      -43.7050  -17.5280  -15.5300 C.ar  806  387806      0.0046
     22  CAF      -45.0060  -17.7000  -15.9710 C.ar  806  387806      0.0421
     23  CAT      -45.9610  -16.7510  -15.6560 C.ar  806  387806      0.1970
     24  OAB      -47.2420  -16.8920  -16.1060 O.3   806  387806     -0.2865
@<TRIPOS>BOND
     1    24    23    1
     2    22    23   ar
     3    22    21   ar
     4    23    19   ar
     5    21    20   ar
     6    19    18   ar
     7    20    18   ar
     8    18    17    1
     9    17    15   am
    10    16    15    2
    11    15    14   am
    12    14    13    1
    13    13    12    1
    14    12    11    1
    15    11    10    1
    16    10     9    1
    17     4     2   ar
    18     4     5   ar
    19     2     1   ar
    20     2     3    1
    21     1     8   ar
    22     5     6    1
    23     5     7   ar
    24     8     7   ar
    25     8     9    1
