@<TRIPOS>MOLECULE
3u1f_392_B_1.pdb
 24 25 0 0 0
SMALL
GASTEIGER

@<TRIPOS>ATOM
      1  CAJ      -42.0090  -14.4840   -6.9890 C.ar  808  392808      0.0086
      2  CAT      -41.3950  -15.7170   -6.9910 C.ar  808  392808      0.0582
      3 CLC       -42.3800  -17.1430   -6.9240 Cl    808  392808     -0.0822
      4  CAI      -40.0220  -15.8530   -6.9980 C.ar  808  392808      0.0228
      5  CAU      -39.2610  -14.7020   -6.9800 C.ar  808  392808      0.0582
      6 CLD       -37.5050  -14.8430   -6.9100 Cl    808  392808     -0.0822
      7  CAK      -39.8450  -13.4450   -6.9790 C.ar  808  392808      0.0086
      8  CAW      -41.2380  -13.3310   -6.9780 C.ar  808  392808     -0.0031
      9  CAO      -41.9290  -11.9890   -6.9010 C.3   808  392808      0.1150
     10  NAP      -42.3210  -11.4200   -8.1980 N.3   808  392808     -0.2132
     11  CAM      -43.5120  -12.0470   -8.7830 C.3   808  392808      0.0909
     12  CAL      -44.0250  -11.2820   -9.9920 C.3   808  392808      0.0423
     13  CAN      -45.0040  -12.0460  -10.8750 C.3   808  392808      0.1183
     14  NAQ      -44.3660  -12.8120  -11.9400 N.am  808  392808     -0.1869
     15  CAS      -45.0540  -13.6940  -12.6940 C.2   808  392808      0.3436
     16  OAA      -46.2810  -13.7820  -12.6460 O.2   808  392808     -0.2488
     17  NAR      -44.2720  -14.5900  -13.3760 N.am  808  392808     -0.1577
     18  CAX      -44.6500  -15.5590  -14.3500 C.ar  808  392808      0.1137
     19  CAH      -43.6750  -16.4710  -14.7480 C.ar  808  392808      0.0199
     20  CAF      -44.0260  -17.5400  -15.5580 C.ar  808  392808      0.0015
     21  CAE      -45.3190  -17.6700  -16.0250 C.ar  808  392808      0.0034
     22  CAG      -46.2780  -16.7360  -15.6880 C.ar  808  392808      0.0434
     23  CAV      -45.9560  -15.6810  -14.8430 C.ar  808  392808      0.2109
     24  OAB      -46.8010  -14.6200  -14.7580 O.3   808  392808     -0.2852
@<TRIPOS>BOND
     1    21    22   ar
     2    21    20   ar
     3    22    23   ar
     4    20    19   ar
     5    23    24    1
     6    23    18   ar
     7    19    18   ar
     8    18    17    1
     9    17    15   am
    10    15    16    2
    11    15    14   am
    12    14    13    1
    13    13    12    1
    14    12    11    1
    15    11    10    1
    16    10     9    1
    17     4     2   ar
    18     4     5   ar
    19     2     1   ar
    20     2     3    1
    21     1     8   ar
    22     5     7   ar
    23     5     6    1
    24     7     8   ar
    25     8     9    1
