@<TRIPOS>MOLECULE
3u1g_415_B_1.pdb
 24 25 0 0 0
SMALL
GASTEIGER

@<TRIPOS>ATOM
      1  CAA      -41.4560  -17.9440   -6.9600 C.3   804  415804      0.2525
      2  OAS      -41.9700  -16.6250   -6.9500 O.3   804  415804     -0.4714
      3  CAX      -41.0830  -15.5820   -7.0310 C.ar  804  415804      0.1393
      4  CAK      -41.6880  -14.3400   -6.9720 C.ar  804  415804      0.0341
      5  CAJ      -39.7120  -15.7080   -7.1300 C.ar  804  415804      0.0483
      6  CAU      -38.9600  -14.5560   -7.1510 C.ar  804  415804      0.0604
      7 CLC       -37.2360  -14.6890   -7.2210 Cl    804  415804     -0.0822
      8  CAI      -39.5340  -13.3050   -7.0980 C.ar  804  415804      0.0087
      9  CAV      -40.9180  -13.1890   -7.0140 C.ar  804  415804     -0.0009
     10  CAO      -41.5900  -11.8380   -6.9870 C.3   804  415804      0.1151
     11  NAP      -41.8950  -11.3150   -8.3210 N.3   804  415804     -0.2132
     12  CAM      -43.0660  -11.9490   -8.9290 C.3   804  415804      0.0909
     13  CAL      -43.5200  -11.2260  -10.1750 C.3   804  415804      0.0423
     14  CAN      -44.4410  -12.0290  -11.0620 C.3   804  415804      0.1183
     15  NAQ      -43.7230  -12.8560  -12.0260 N.am  804  415804     -0.1869
     16  CAT      -44.3810  -13.6870  -12.8540 C.2   804  415804      0.3435
     17  OAB      -45.6080  -13.7050  -12.9180 O.2   804  415804     -0.2488
     18  NAR      -43.5770  -14.5400  -13.5640 N.am  804  415804     -0.1610
     19  CAW      -43.9860  -15.5280  -14.4990 C.ar  804  415804      0.0750
     20  CAG      -43.0490  -16.4730  -14.8970 C.ar  804  415804      0.0166
     21  CAE      -43.4360  -17.5410  -15.6870 C.ar  804  415804      0.0013
     22  CAD      -44.7480  -17.6680  -16.0990 C.ar  804  415804      0.0001
     23  CAF      -45.6770  -16.7300  -15.7210 C.ar  804  415804      0.0013
     24  CAH      -45.3060  -15.6580  -14.9230 C.ar  804  415804      0.0166
@<TRIPOS>BOND
     1    22    23   ar
     2    22    21   ar
     3    23    24   ar
     4    21    20   ar
     5    24    19   ar
     6    20    19   ar
     7    19    18    1
     8    18    16   am
     9    17    16    2
    10    16    15   am
    11    15    14    1
    12    14    13    1
    13    13    12    1
    14    12    11    1
    15    11    10    1
    16     7     6    1
    17     6     5   ar
    18     6     8   ar
    19     5     3   ar
    20     8     9   ar
    21     3     4   ar
    22     3     2    1
    23     9    10    1
    24     9     4   ar
    25     1     2    1
