@<TRIPOS>MOLECULE
3u1i_III_E_1.pdb
 22 21 0 0 0
SMALL
GASTEIGER

@<TRIPOS>ATOM
      1  N         34.6610  -41.9970   45.0230 N.3     4  ARG4       -0.1231
      2  CA        35.9690  -41.5760   44.4760 C.3     4  ARG4        0.1694
      3  C         36.5310  -40.3830   45.2690 C.2     4  ARG4        0.2591
      4  O         36.1910  -39.2400   44.9660 O.2     4  ARG4       -0.2718
      5  CB        35.7800  -41.2570   43.0020 C.3     4  ARG4        0.0321
      6  CG        34.5500  -41.9370   42.4660 C.3     4  ARG4        0.0489
      7  CD        34.6510  -42.1470   41.0080 C.3     4  ARG4        0.2205
      8  NE        33.9000  -41.1340   40.2970 N.pl3   4  ARG4       -0.0865
      9  CZ        32.6360  -41.2590   39.9230 C.cat   4  ARG4        0.5346
     10  NH1       32.0550  -40.2640   39.2650 N.pl3   4  ARG4        0.1354
     11  NH2       31.9620  -42.3610   40.2040 N.pl3   4  ARG4        0.1354
     12  OH1       36.0410  -43.2720   46.2660 O.2     5  OAR5       -0.2864
     13  N1        37.3900  -40.6280   46.2680 N.am    5  OAR5       -0.1980
     14  N2        39.4700  -42.0940   50.9160 N.pl3   5  OAR5       -0.0865
     15  N3        40.5110  -44.1370   51.0850 N.pl3   5  OAR5        0.1354
     16  N4        38.9680  -43.4650   52.6560 N.pl3   5  OAR5        0.1354
     17  C1        38.0000  -41.9410   46.5760 C.3     5  OAR5        0.1597
     18  C2        38.2230  -42.1320   48.0820 C.3     5  OAR5        0.0334
     19  C3        39.1250  -41.0940   48.7230 C.3     5  OAR5        0.0492
     20  C4        40.1260  -41.7100   49.6790 C.3     5  OAR5        0.2205
     21  C5        39.6480  -43.2410   51.5450 C.cat   5  OAR5        0.5346
     22  C6        37.2370  -43.1320   46.0280 C.2     5  OAR5        0.2287
@<TRIPOS>BOND
     1    10     9    1
     2     9    11    1
     3     9     8    2
     4     8     7    1
     5     7     6    1
     6     6     5    1
     7     5     2    1
     8     2     1    1
     9     2     3    1
    10     4     3    2
    11     3    13   am
    12    22    12    2
    13    22    17    1
    14    13    17    1
    15    17    18    1
    16    18    19    1
    17    19    20    1
    18    20    14    1
    19    14    21    2
    20    15    21    1
    21    21    16    1
