@<TRIPOS>MOLECULE
3u1y_03I_A_1.pdb
 34 36 0 0 0
SMALL
GASTEIGER

@<TRIPOS>ATOM
      1  C1        14.5690    6.0630   24.7380 C.ar  405  03I405      0.0002
      2  C2        14.1150    5.6760   23.4910 C.ar  405  03I405      0.0031
      3  C3        14.8900    5.8570   22.3610 C.ar  405  03I405      0.0369
      4  C4        16.1370    6.4290   22.4730 C.ar  405  03I405      0.1386
      5  C5        16.6210    6.8230   23.7090 C.ar  405  03I405      0.0369
      6  C6        15.8230    6.6460   24.8280 C.ar  405  03I405      0.0031
      7  O7        16.8400    6.5550   21.2890 O.3   405  03I405     -0.4754
      8  C8        13.7510    5.8400   25.9300 C.ar  405  03I405     -0.0000
      9  C9        12.3760    6.0350   25.9320 C.ar  405  03I405     -0.0003
     10  C10       11.6160    5.8180   27.0740 C.ar  405  03I405     -0.0043
     11  C11       12.2180    5.3990   28.2450 C.ar  405  03I405     -0.0221
     12  C12       13.5900    5.2080   28.2470 C.ar  405  03I405     -0.0043
     13  C13       14.3490    5.4200   27.1090 C.ar  405  03I405     -0.0003
     14  C14       11.4350    5.1600   29.5060 C.3   405  03I405      0.0284
     15  C15       11.0380    3.6930   29.5920 C.3   405  03I405      0.0327
     16  C16       10.1750    3.2340   30.7720 C.3   405  03I405      0.1504
     17  C17       10.8300    3.5970   32.1130 C.2   405  03I405      0.1066
     18  S18        9.9210    1.4550   30.6810 S.O2  405  03I405     -0.0061
     19  C19       11.5450    0.7500   30.6840 C.3   405  03I405      0.1764
     20  O20        9.2140    1.0090   31.8680 O.2   405  03I405     -0.1727
     21  O21        9.3380    1.1040   29.3990 O.2   405  03I405     -0.1727
     22  C22        8.7920    3.8430   30.6170 C.3   405  03I405      0.0301
     23  N23       10.0560    4.3430   32.9700 N.am  405  03I405     -0.2013
     24  O24       11.9660    3.2690   32.4310 O.2   405  03I405     -0.5380
     25  C25       17.7830    7.6130   21.3410 C.3   405  03I405      0.2068
     26  C26       18.2620    7.8010   19.9200 C.3   405  03I405      0.0646
     27  C27       19.7190    8.1470   19.9610 C.3   405  03I405      0.0761
     28  O28       10.7370    4.5440   34.1910 O.3   405  03I405     -0.4026
     29  N29       20.2750    8.1200   18.5900 N.3   405  03I405     -0.2683
     30  C30       20.8750    6.7930   18.2450 C.3   405  03I405      0.1046
     31  C31       21.3620    6.8880   16.8140 C.3   405  03I405      0.1595
     32  O32       22.3310    7.9440   16.7580 O.3   405  03I405     -0.3508
     33  C33       21.7390    9.2250   17.0040 C.3   405  03I405      0.1595
     34  C34       21.2220    9.2620   18.4290 C.3   405  03I405      0.1046
@<TRIPOS>BOND
     1    32    31    1
     2    32    33    1
     3    31    30    1
     4    33    34    1
     5    30    29    1
     6    34    29    1
     7    29    27    1
     8    26    27    1
     9    26    25    1
    10     7    25    1
    11     7     4    1
    12     3     4   ar
    13     3     2   ar
    14     4     5   ar
    15     2     1   ar
    16     5     6   ar
    17     1     6   ar
    18     1     8    1
    19     8     9   ar
    20     8    13   ar
    21     9    10   ar
    22    10    11   ar
    23    13    12   ar
    24    11    12   ar
    25    11    14    1
    26    21    18    2
    27    14    15    1
    28    15    16    1
    29    22    16    1
    30    18    19    1
    31    18    16    1
    32    18    20    2
    33    16    17    1
    34    17    24    2
    35    17    23   am
    36    23    28    1
