@<TRIPOS>MOLECULE
3u1z_43E_B_1.pdb
 22 23 0 0 0
SMALL
GASTEIGER

@<TRIPOS>ATOM
      1  CAH      -41.2940   14.5210    7.1910 C.ar  807  43E807      0.0086
      2  CAS      -40.6990   15.7620    7.1280 C.ar  807  43E807      0.0582
      3 CLB       -41.7080   17.1750    7.0610 Cl    807  43E807     -0.0822
      4  CAG      -39.3290   15.9170    7.0890 C.ar  807  43E807      0.0228
      5  CAT      -38.5560   14.7750    7.1020 C.ar  807  43E807      0.0582
      6 CLC       -36.8130   14.9290    7.0430 Cl    807  43E807     -0.0822
      7  CAI      -39.1210   13.5160    7.1570 C.ar  807  43E807      0.0086
      8  CAU      -40.5040   13.3820    7.2010 C.ar  807  43E807     -0.0031
      9  CAM      -41.1470   12.0180    7.2300 C.3   807  43E807      0.1150
     10  NAN      -41.4100   11.5290    8.5840 N.3   807  43E807     -0.2132
     11  CAK      -42.7950   11.7290    9.0060 C.3   807  43E807      0.0909
     12  CAJ      -43.0180   11.3640   10.4610 C.3   807  43E807      0.0423
     13  CAL      -43.9750   12.2720   11.2070 C.3   807  43E807      0.1183
     14  NAO      -43.3030   13.0960   12.2010 N.am  807  43E807     -0.1869
     15  CAR      -43.9810   13.9060   13.0340 C.2   807  43E807      0.3435
     16  OAA      -45.1910   13.8040   13.2210 O.2   807  43E807     -0.2488
     17  NAP      -43.2140   14.8450   13.6990 N.am  807  43E807     -0.1604
     18  CAV      -43.6730   15.8190   14.5980 C.ar  807  43E807      0.0819
     19  CAE      -42.7200   16.6960   15.2020 C.ar  807  43E807      0.0241
     20  CAD      -43.2630   17.6430   15.9670 C.ar  807  43E807      0.0368
     21  SAQ      -44.9250   17.5000   15.9770 S.2   807  43E807     -0.0845
     22  CAF      -44.9340   16.1490   14.9540 C.ar  807  43E807      0.0521
@<TRIPOS>BOND
     1     6     5    1
     2     3     2    1
     3     4     5   ar
     4     4     2   ar
     5     5     7   ar
     6     2     1   ar
     7     7     8   ar
     8     1     8   ar
     9     8     9    1
    10     9    10    1
    11    10    11    1
    12    11    12    1
    13    12    13    1
    14    13    14    1
    15    14    15   am
    16    15    16    2
    17    15    17   am
    18    17    18    1
    19    18    22   ar
    20    18    19   ar
    21    22    21   ar
    22    19    20   ar
    23    20    21   ar
