@<TRIPOS>MOLECULE
3u20_44F_B_1.pdb
 23 24 0 0 0
SMALL
GASTEIGER

@<TRIPOS>ATOM
      1  CAA      -41.6230  -17.8280   -6.9210 C.3   808  44F808      0.2525
      2  OAQ      -42.1520  -16.5120   -6.9360 O.3   808  44F808     -0.4714
      3  CAW      -41.2770  -15.4670   -7.0040 C.ar  808  44F808      0.1393
      4  CAI      -41.8340  -14.2040   -7.0260 C.ar  808  44F808      0.0341
      5  CAH      -39.9100  -15.6530   -7.0580 C.ar  808  44F808      0.0483
      6  CAT      -39.1110  -14.5370   -7.1330 C.ar  808  44F808      0.0604
      7 CLC       -37.3920  -14.7460   -7.1790 Cl    808  44F808     -0.0822
      8  CAG      -39.6360  -13.2610   -7.1670 C.ar  808  44F808      0.0087
      9  CAU      -41.0170  -13.0870   -7.1140 C.ar  808  44F808     -0.0009
     10  CAM      -41.6370  -11.7110   -7.1310 C.3   808  44F808      0.1151
     11  NAN      -42.0160  -11.2300   -8.4640 N.3   808  44F808     -0.2132
     12  CAK      -43.1050  -11.9940   -9.0730 C.3   808  44F808      0.0909
     13  CAJ      -43.6530  -11.3100  -10.3070 C.3   808  44F808      0.0423
     14  CAL      -44.5720  -12.1660  -11.1510 C.3   808  44F808      0.1183
     15  NAO      -43.8450  -13.0060  -12.0920 N.am  808  44F808     -0.1869
     16  CAS      -44.4730  -13.8350  -12.9440 C.2   808  44F808      0.3435
     17  OAB      -45.6840  -13.8030  -13.1280 O.2   808  44F808     -0.2488
     18  NAP      -43.6660  -14.7420  -13.6170 N.am  808  44F808     -0.1604
     19  CAV      -44.1210  -15.7160  -14.5350 C.ar  808  44F808      0.0819
     20  CAE      -43.1680  -16.5950  -15.1350 C.ar  808  44F808      0.0241
     21  CAD      -43.7400  -17.5500  -15.9050 C.ar  808  44F808      0.0368
     22  SAR      -45.4280  -17.3990  -15.9350 S.2   808  44F808     -0.0845
     23  CAF      -45.4040  -16.0450  -14.9110 C.ar  808  44F808      0.0521
@<TRIPOS>BOND
     1    22    21   ar
     2    22    23   ar
     3    21    20   ar
     4    20    19   ar
     5    23    19   ar
     6    19    18    1
     7    18    16   am
     8    17    16    2
     9    16    15   am
    10    15    14    1
    11    14    13    1
    12    13    12    1
    13    12    11    1
    14    11    10    1
    15     7     6    1
    16     8     6   ar
    17     8     9   ar
    18     6     5   ar
    19    10     9    1
    20     9     4   ar
    21     5     3   ar
    22     4     3   ar
    23     3     2    1
    24     2     1    1
