@<TRIPOS>MOLECULE
3u2c_NAP_A_1.pdb
 48 52 0 0 0
SMALL
GASTEIGER

@<TRIPOS>ATOM
      1  PA         2.2380    5.4090   23.7890 P.3   400  NAP400      0.2189
      2  O1A        1.6740    4.3600   24.6750 O.3   400  NAP400     -0.4371
      3  O2A        3.2380    5.0500   22.7550 O.2   400  NAP400     -0.5170
      4  O5B        2.7270    6.5950   24.7270 O.3   400  NAP400     -0.3112
      5  C5B        3.2450    7.8160   24.1470 C.3   400  NAP400      0.1813
      6  C4B        3.5500    8.7560   25.3090 C.3   400  NAP400      0.1820
      7  O4B        4.6000    8.2090   26.1140 O.3   400  NAP400     -0.3136
      8  C3B        3.9840   10.1560   24.9010 C.3   400  NAP400      0.2157
      9  O3B        3.4380   11.0980   25.8350 O.3   400  NAP400     -0.2175
     10  C2B        5.5180   10.0690   25.0490 C.3   400  NAP400      0.2314
     11  O2B        6.0790   11.3280   25.3510 O.3   400  NAP400     -0.2630
     12  C1B        5.6640    9.1320   26.2290 C.3   400  NAP400      0.3158
     13  N9A        6.8980    8.4070   26.2510 N.pl3 400  NAP400     -0.1439
     14  C8A        7.4850    7.7060   25.1980 C.3   400  NAP400      0.3377
     15  N7A        8.5780    7.1010   25.5120 N.2   400  NAP400     -0.2095
     16  C5A        8.7450    7.3970   26.8380 C.2   400  NAP400      0.2526
     17  C6A        9.7710    7.0080   27.7140 C.2   400  NAP400      0.4393
     18  N6A       10.8100    6.2560   27.3610 N.pl3 400  NAP400      0.2180
     19  N1A        9.6390    7.4930   29.0120 N.2   400  NAP400      0.0021
     20  C2A        8.5960    8.2720   29.3840 C.3   400  NAP400      0.5254
     21  N3A        7.5920    8.6900   28.5790 N.2   400  NAP400     -0.0055
     22  C4A        7.7160    8.1960   27.2980 C.2   400  NAP400      0.3518
     23  O3         0.9690    6.1190   23.0900 O.3   400  NAP400     -0.2703
     24  PN         0.2230    6.1690   21.6860 P.3   400  NAP400      0.2189
     25  O1N        0.7770    7.2670   20.8790 O.2   400  NAP400     -0.5170
     26  O2N       -1.2320    6.1660   21.9840 O.3   400  NAP400     -0.4371
     27  O5D        0.5050    4.7610   20.9880 O.3   400  NAP400     -0.3112
     28  C5D        1.6760    4.5060   20.1490 C.3   400  NAP400      0.1813
     29  C4D        1.2860    4.6150   18.6790 C.3   400  NAP400      0.1799
     30  O4D        0.3200    3.5850   18.3360 O.3   400  NAP400     -0.3327
     31  C3D        0.5860    5.8780   18.2170 C.3   400  NAP400      0.2158
     32  O3D        1.4480    7.0140   18.1610 O.3   400  NAP400     -0.2175
     33  C2D        0.0410    5.4390   16.8730 C.3   400  NAP400      0.2309
     34  O2D        1.1360    5.3880   15.9550 O.3   400  NAP400     -0.2158
     35  C1D       -0.4460    4.0160   17.2110 C.3   400  NAP400      0.2263
     36  N1N       -1.8870    3.9710   17.6300 N.pl3 400  NAP400     -0.2787
     37  C2N       -2.8130    3.4340   16.8600 C.3   400  NAP400      0.1244
     38  C3N       -4.1220    3.4100   17.0720 C.2   400  NAP400      0.0544
     39  C7N       -5.1480    2.7650   16.1710 C.2   400  NAP400      0.2818
     40  O7N       -6.3410    2.9880   16.3250 O.2   400  NAP400     -0.2670
     41  N7N       -4.6640    1.9860   15.2500 N.am  400  NAP400     -0.0839
     42  C4N       -4.5710    3.9860   18.2940 C.2   400  NAP400      0.0033
     43  C5N       -3.6510    4.5350   19.1660 C.2   400  NAP400      0.0157
     44  C6N       -2.2980    4.5150   18.8780 C.2   400  NAP400      0.0633
     45  P2B        6.9510   12.2150   24.2950 P.3   400  NAP400      0.5328
     46  O1X        8.4040   11.7810   24.4670 O.3   400  NAP400     -0.1145
     47  O2X        6.4310   11.9420   22.9210 O.2   400  NAP400     -0.2224
     48  O3X        6.7120   13.6170   24.7920 O.3   400  NAP400     -0.1145
@<TRIPOS>BOND
     1    41    39   am
     2    34    33    1
     3    39    40    2
     4    39    38    1
     5    37    38    1
     6    37    36    1
     7    33    35    1
     8    33    31    1
     9    38    42    2
    10    35    36    1
    11    35    30    1
    12    36    44    1
    13    32    31    1
    14    31    29    1
    15    42    43    1
    16    30    29    1
    17    29    28    1
    18    44    43    2
    19    28    27    1
    20    25    24    2
    21    27    24    1
    22    24    26    1
    23    24    23    1
    24     3     1    2
    25    47    45    2
    26    23     1    1
    27     1     2    1
    28     1     4    1
    29     5     4    1
    30     5     6    1
    31    45    46    1
    32    45    48    1
    33    45    11    1
    34     8    10    1
    35     8     6    1
    36     8     9    1
    37    10    11    1
    38    10    12    1
    39    14    15    1
    40    14    13    1
    41     6     7    1
    42    15    16    2
    43     7    12    1
    44    12    13    1
    45    13    22    1
    46    16    22    1
    47    16    17    1
    48    22    21    2
    49    18    17    1
    50    17    19    2
    51    21    20    1
    52    19    20    1
