@<TRIPOS>MOLECULE
3u2c_SUZ_A_1.pdb
 25 27 0 0 0
SMALL
GASTEIGER

@<TRIPOS>ATOM
      1  C20      -12.0470   12.5410   19.0540 C.ar  2001  SUZ2001     0.0083
      2  C19      -11.1090   11.5150   19.1020 C.ar  2001  SUZ2001    -0.0034
      3  C5       -11.4610   10.1720   18.9270 C.ar  2001  SUZ2001    -0.0181
      4  C6       -10.4880    9.0440   18.9400 C.3   2001  SUZ2001     0.0486
      5  C7        -9.2690    8.9560   18.4090 C.2   2001  SUZ2001    -0.0364
      6  C18       -8.4940    9.8690   17.5070 C.ar  2001  SUZ2001    -0.0077
      7  C17       -8.7480   11.0830   16.8840 C.ar  2001  SUZ2001     0.0017
      8  C16       -7.8120   11.6830   16.0650 C.ar  2001  SUZ2001     0.0296
      9  C15       -6.5750   11.0490   15.8630 C.ar  2001  SUZ2001     0.1401
     10  F         -5.6900   11.6410   15.0840 F     2001  SUZ2001    -0.2042
     11  C14       -6.2890    9.8200   16.4590 C.ar  2001  SUZ2001     0.0290
     12  C13       -7.2610    9.2790   17.2680 C.ar  2001  SUZ2001    -0.0054
     13  C10       -7.2070    7.9680   18.0120 C.2   2001  SUZ2001    -0.0295
     14  C11       -5.9910    7.1300   17.9670 C.3   2001  SUZ2001     0.1364
     15  C12       -5.3520    6.6240   16.8090 C.2   2001  SUZ2001     0.3689
     16  O3        -5.7740    6.2720   15.8590 O.co2 2001  SUZ2001    -0.2453
     17  O2        -3.9880    6.4810   16.7890 O.co2 2001  SUZ2001    -0.2453
     18  C8        -8.3660    7.7850   18.6780 C.3   2001  SUZ2001     0.0374
     19  C9        -8.8270    6.6640   19.5330 C.3   2001  SUZ2001     0.0087
     20  C4       -12.7970    9.8170   18.6480 C.ar  2001  SUZ2001    -0.0034
     21  C3       -13.7220   10.8860   18.5900 C.ar  2001  SUZ2001     0.0083
     22  C2       -13.3990   12.2380   18.7870 C.ar  2001  SUZ2001     0.0562
     23  S        -14.5120   13.6060   18.7440 S.O   2001  SUZ2001     0.0658
     24  O1       -15.3070   13.6520   19.9560 O.2   2001  SUZ2001    -0.2514
     25  C1       -15.7230   13.1020   17.5140 C.3   2001  SUZ2001     0.1110
@<TRIPOS>BOND
     1    10     9    1
     2    16    15   ar
     3     9     8   ar
     4     9    11   ar
     5     8     7   ar
     6    11    12   ar
     7    17    15   ar
     8    15    14    1
     9     7     6   ar
    10    12     6   ar
    11    12    13    2
    12     6     5    2
    13    25    23    1
    14    14    13    1
    15    13    18    1
    16     5    18    1
    17     5     4    1
    18    21    20   ar
    19    21    22   ar
    20    20     3   ar
    21    18    19    1
    22    23    22    1
    23    23    24    2
    24    22     1   ar
    25     3     4    1
    26     3     2   ar
    27     1     2   ar
