@<TRIPOS>MOLECULE
3u2d_08B_A_1.pdb
 25 27 0 0 0
SMALL
GASTEIGER

@<TRIPOS>ATOM
      1  C1         5.6860    7.9840   23.6000 C.3     1  08B1        0.0669
      2  C2         4.4350    7.1580   23.5490 C.2     1  08B1        0.1158
      3  C3         3.5110    7.1520   22.5480 C.2     1  08B1        0.0626
      4  C4         2.5120    6.2340   22.8910 C.2     1  08B1        0.0457
      5  C5         2.8630    5.7130   24.1240 C.2     1  08B1        0.1863
      6  N6         4.0470    6.2830   24.5090 N.2     1  08B1       -0.4010
      7  C8         2.1430    4.7040   24.8870 C.2     1  08B1        0.2945
      8  O9         2.6220    4.3330   25.9540 O.2     1  08B1       -0.2656
      9  N10        0.9810    4.2000   24.4000 N.am    1  08B1       -0.2011
     10  C11        0.2650    3.1550   25.1360 C.3     1  08B1        0.0991
     11  C12       -1.2170    3.0960   24.7230 C.3     1  08B1        0.0432
     12  C13       -1.8650    1.8520   25.3520 C.3     1  08B1        0.0940
     13  N14       -1.1190    0.6830   24.8460 N.pl3   1  08B1       -0.2918
     14  C15        0.2540    0.6260   25.3590 C.3     1  08B1        0.0940
     15  C16        1.0040    1.8430   24.8110 C.3     1  08B1        0.0432
     16  C17       -1.7690   -0.5490   24.7800 C.ar    1  08B1        0.1543
     17  C18       -2.8710   -0.7450   23.9350 C.ar    1  08B1        0.1742
     18  C19       -3.4560   -2.0050   23.9100 C.ar    1  08B1        0.0285
     19  C20       -2.9290   -3.0250   24.7040 C.ar    1  08B1        0.0225
     20  C21       -1.8350   -2.7660   25.5030 C.ar    1  08B1        0.1004
     21  N22       -1.2960   -1.5580   25.5110 N.ar    1  08B1       -0.2275
     22  N23       -3.3890    0.2460   23.1520 N.pl3   1  08B1        0.0605
     23  O24       -4.5910    0.4240   23.0980 O.2     1  08B1       -0.1260
     24  O25       -2.6660    0.9650   22.4870 O.2     1  08B1       -0.1260
     25 BR          3.5570    8.1980   20.9700 Br      1  08B1       -0.0466
@<TRIPOS>BOND
     1    25     3    1
     2    24    22    2
     3     3     4    2
     4     3     2    1
     5     4     5    1
     6    23    22    2
     7    22    17    1
     8     2     1    1
     9     2     6    2
    10    18    17   ar
    11    18    19   ar
    12    17    16   ar
    13     5     6    2
    14     5     7    1
    15     9     7   am
    16     9    10    1
    17    19    20   ar
    18    11    10    1
    19    11    12    1
    20    16    13    1
    21    16    21   ar
    22    15    10    1
    23    15    14    1
    24    13    12    1
    25    13    14    1
    26     7     8    2
    27    20    21   ar
