@<TRIPOS>MOLECULE
3u2e_NUC_C_1.pdb
 47 52 0 0 0
SMALL
GASTEIGER

@<TRIPOS>ATOM
      1  OP3       19.2270   -0.6780   63.8400 O.3   601  RG601      -0.1145
      2  P         19.0260   -1.8330   62.9200 P.3   601  RG601       0.5327
      3  OP1       19.3300   -3.0940   63.6770 O.3   601  RG601      -0.1145
      4  OP2       19.7160   -1.5950   61.5870 O.2   601  RG601      -0.2224
      5  O5'       17.4310   -1.9200   62.7360 O.3   601  RG601      -0.2675
      6  C5'       16.5990   -0.7550   62.4910 C.3   601  RG601       0.1858
      7  C4'       15.1510   -1.1530   62.2540 C.3   601  RG601       0.1772
      8  O4'       14.2530   -0.1480   62.8310 O.3   601  RG601      -0.3327
      9  C3'       14.7240   -1.2840   60.7900 C.3   601  RG601       0.1857
     10  O3'       13.7910   -2.3450   60.6410 O.3   601  RG601      -0.3112
     11  C2'       14.0720    0.0640   60.5060 C.3   601  RG601       0.2282
     12  O2'       13.2170    0.0680   59.3810 O.3   601  RG601      -0.2159
     13  C1'       13.3580    0.3220   61.8350 C.3   601  RG601       0.2292
     14  N9        13.0340    1.7090   62.1510 N.pl3 601  RG601      -0.2354
     15  C8        13.7150    2.8470   61.7820 C.3   601  RG601       0.2246
     16  N7        13.2110    3.9380   62.3010 N.2   601  RG601      -0.2322
     17  C5        12.1630    3.4880   63.0930 C.2   601  RG601       0.2182
     18  C6        11.2580    4.2080   63.9260 C.1   601  RG601       0.2372
     19  O6        11.1880    5.4310   64.1180 O.2   601  RG601      -0.2069
     20  N1        10.3600    3.3570   64.5580 N.2   601  RG601      -0.2485
     21  C2        10.3200    1.9900   64.4020 C.1   601  RG601       0.2531
     22  N2         9.3700    1.3420   65.0940 N.pl3 601  RG601      -0.0226
     23  N3        11.1650    1.3050   63.6440 N.2   601  RG601      -0.3074
     24  C4        12.0420    2.1140   63.0110 C.2   601  RG601       0.2300
     25  P         13.9770   -3.3970   59.4630 P.3   602  RG602       0.2141
     26  OP1       14.2840   -2.6580   58.2120 O.2   602  RG602      -0.5172
     27  OP2       12.7860   -4.2930   59.5160 O.3   602  RG602      -0.4373
     28  O5'       15.2890   -4.2040   59.8840 O.3   602  RG602      -0.3114
     29  C5'       15.2310   -5.2770   60.8460 C.3   602  RG602       0.1813
     30  C4'       16.6010   -5.9010   61.0260 C.3   602  RG602       0.1799
     31  O4'       17.1280   -6.3470   59.7300 O.3   602  RG602      -0.3326
     32  C3'       17.6650   -4.9780   61.6250 C.3   602  RG602       0.2158
     33  O3'       18.4510   -5.6080   62.6370 O.3   602  RG602      -0.2175
     34  C2'       18.4960   -4.5730   60.4060 C.3   602  RG602       0.2310
     35  O2'       19.8550   -4.2320   60.5890 O.3   602  RG602      -0.2158
     36  C1'       18.4400   -5.8450   59.5670 C.3   602  RG602       0.2293
     37  N9        18.6720   -5.5430   58.1600 N.pl3 602  RG602      -0.2354
     38  C8        18.0390   -4.5780   57.4150 C.3   602  RG602       0.2246
     39  N7        18.4920   -4.4930   56.1960 N.2   602  RG602      -0.2322
     40  C5        19.5320   -5.4100   56.1510 C.2   602  RG602       0.2182
     41  C6        20.4150   -5.7420   55.0950 C.1   602  RG602       0.2372
     42  O6        20.4600   -5.2700   53.9510 O.2   602  RG602      -0.2069
     43  N1        21.2840   -6.7670   55.4580 N.2   602  RG602      -0.2485
     44  C2        21.3410   -7.3520   56.7010 C.1   602  RG602       0.2531
     45  N2        22.2780   -8.2990   56.8660 N.pl3 602  RG602      -0.0226
     46  N3        20.5410   -7.0280   57.7070 N.2   602  RG602      -0.3074
     47  C4        19.6670   -6.0560   57.3630 C.2   602  RG602       0.2300
@<TRIPOS>BOND
     1    42    41    2
     2    41    43    2
     3    41    40    1
     4    43    44    2
     5    40    39    2
     6    40    47    1
     7    39    38    1
     8    44    45    1
     9    44    46    2
    10    47    46    2
    11    47    37    1
    12    38    37    1
    13    37    36    1
    14    26    25    2
    15    12    11    1
    16    25    27    1
    17    25    28    1
    18    25    10    1
    19    36    31    1
    20    36    34    1
    21    31    30    1
    22    28    29    1
    23    34    35    1
    24    34    32    1
    25    11     9    1
    26    11    13    1
    27    10     9    1
    28     9     7    1
    29    29    30    1
    30    30    32    1
    31     4     2    2
    32    32    33    1
    33    15    14    1
    34    15    16    1
    35    13    14    1
    36    13     8    1
    37    14    24    1
    38     7     6    1
    39     7     8    1
    40    16    17    2
    41     6     5    1
    42     5     2    1
    43     2     3    1
    44     2     1    1
    45    24    17    1
    46    24    23    2
    47    17    18    1
    48    23    21    2
    49    18    19    2
    50    18    20    2
    51    21    20    2
    52    21    22    1
