@<TRIPOS>MOLECULE
3u2k_087_A_1.pdb
 27 29 0 0 0
SMALL
GASTEIGER

@<TRIPOS>ATOM
      1  C1         5.5680    8.3670   23.6180 C.3     1  0871        0.0674
      2 CL1        -4.8970   -1.4580   23.0670 Cl      1  0871       -0.0479
      3  C2         4.2700    7.6230   23.5300 C.2     1  0871        0.1210
      4 CL2         0.9340    6.5700   21.8840 Cl      1  0871       -0.0785
      5  C3         3.3600    7.6780   22.5220 C.2     1  0871        0.0961
      6 CL3         3.4080    8.6500   21.0550 Cl      1  0871       -0.0790
      7  C4         2.3270    6.7950   22.8750 C.2     1  0871        0.1044
      8  C5         2.6280    6.2230   24.1090 C.2     1  0871        0.1970
      9  N6         3.8510    6.7420   24.4810 N.2     1  0871       -0.3998
     10  C8         1.9110    5.2240   24.9150 C.2     1  0871        0.2953
     11  O9         2.4290    4.8550   25.9700 O.2     1  0871       -0.2655
     12  N10        0.7290    4.6880   24.4950 N.am    1  0871       -0.2011
     13  C11        0.0410    3.6530   25.2790 C.3     1  0871        0.0991
     14  C12       -1.4120    3.5290   24.7830 C.3     1  0871        0.0432
     15  C13       -2.0840    2.2590   25.3400 C.3     1  0871        0.0946
     16  N14       -1.2290    1.0980   25.0350 N.pl3   1  0871       -0.2866
     17  C15        0.0920    1.1370   25.6640 C.3     1  0871        0.0946
     18  C16        0.8220    2.3410   25.0500 C.3     1  0871        0.0432
     19  C17       -1.8290   -0.1550   24.9870 C.2     1  0871        0.1656
     20  C18       -1.3170   -1.2490   25.6950 C.3     1  0871        0.1059
     21  C19       -1.9510   -2.4930   25.6040 C.2     1  0871        0.0463
     22  C20       -3.0830   -2.5820   24.7750 C.2     1  0871        0.0448
     23  C21       -3.5120   -1.4450   24.1040 C.2     1  0871        0.1898
     24  N22       -2.8870   -0.2930   24.2200 N.2     1  0871       -0.3797
     25  C24       -1.4400   -3.6650   26.3670 C.2     1  0871        0.2808
     26  O25       -0.2420   -3.8480   26.4900 O.2     1  0871       -0.2670
     27  N26       -2.2900   -4.5440   26.9380 N.am    1  0871       -0.0840
@<TRIPOS>BOND
     1     6     5    1
     2     4     7    1
     3     5     7    2
     4     5     3    1
     5     7     8    1
     6     2    23    1
     7     3     1    1
     8     3     9    2
     9    23    24    2
    10    23    22    1
    11     8     9    2
    12     8    10    1
    13    24    19    2
    14    12    10   am
    15    12    13    1
    16    22    21    2
    17    14    13    1
    18    14    15    1
    19    10    11    2
    20    19    16    1
    21    19    20    1
    22    16    15    1
    23    16    17    1
    24    18    13    1
    25    18    17    1
    26    21    20    1
    27    21    25    1
    28    25    26    2
    29    25    27   am
