@<TRIPOS>MOLECULE
3u2o_FMN_A_1.pdb
 31 33 0 0 0
SMALL
GASTEIGER

@<TRIPOS>ATOM
      1  N1         3.4580   42.3250    8.5250 N.2   500  FMN500     -0.2887
      2  C2         3.0870   43.0160    9.6490 C.1   500  FMN500      0.3669
      3  O2         3.6630   42.8400   10.7240 O.2   500  FMN500     -0.1744
      4  N3         2.0380   43.8930    9.5860 N.2   500  FMN500     -0.2300
      5  C4         1.3450   44.1560    8.4370 C.1   500  FMN500      0.2513
      6  O4         0.2950   44.8180    8.5070 O.2   500  FMN500     -0.2057
      7  C4A        1.6990   43.4610    7.2870 C.2   500  FMN500      0.2703
      8  N5         1.0460   43.6750    6.0850 N.2   500  FMN500     -0.3882
      9  C5A        1.4030   42.9410    4.9550 C.2   500  FMN500      0.1277
     10  C6         0.7100   43.1180    3.7540 C.3   500  FMN500      0.0820
     11  C7         1.0540   42.3860    2.6130 C.2   500  FMN500     -0.0408
     12  C7M        0.0670   42.3500    1.4620 C.3   500  FMN500      0.0265
     13  C8         2.1180   41.4600    2.7020 C.2   500  FMN500     -0.0280
     14  C8M        2.3740   40.4320    1.6260 C.3   500  FMN500      0.0304
     15  C9         2.7940   41.2730    3.9030 C.2   500  FMN500      0.0123
     16  C9A        2.4390   42.0120    5.0330 C.2   500  FMN500      0.0793
     17  N10        3.1190   41.8530    6.2390 N.pl3 500  FMN500     -0.2545
     18  C10        2.7560   42.5490    7.3610 C.2   500  FMN500      0.2449
     19  C1'        4.3960   41.0920    6.3180 C.3   500  FMN500      0.1336
     20  C2'        4.1000   39.5930    6.5860 C.3   500  FMN500      0.2048
     21  O2'        3.5470   39.4190    7.8520 O.3   500  FMN500     -0.2185
     22  C3'        5.3800   38.7600    6.5580 C.3   500  FMN500      0.2165
     23  O3'        6.2280   39.2290    7.6090 O.3   500  FMN500     -0.2175
     24  C4'        6.1130   38.8670    5.2050 C.3   500  FMN500      0.2147
     25  O4'        5.2010   38.8860    4.1150 O.3   500  FMN500     -0.2176
     26  C5'        7.0640   37.6720    4.9610 C.3   500  FMN500      0.1892
     27  O5'        6.3170   36.4720    4.9150 O.3   500  FMN500     -0.2674
     28  P          5.8230   35.8450    3.5040 P.3   500  FMN500      0.5327
     29  O1P        4.6720   36.5560    2.8790 O.3   500  FMN500     -0.1145
     30  O2P        5.3340   34.4830    3.8710 O.3   500  FMN500     -0.1145
     31  O3P        7.0030   35.7340    2.5860 O.2   500  FMN500     -0.2224
@<TRIPOS>BOND
     1    12    11    1
     2    14    13    1
     3    31    28    2
     4    11    13    2
     5    11    10    1
     6    13    15    1
     7    29    28    1
     8    28    30    1
     9    28    27    1
    10    10     9    1
    11    15    16    2
    12    25    24    1
    13    27    26    1
    14     9    16    1
    15     9     8    2
    16    26    24    1
    17    16    17    1
    18    24    22    1
    19     8     7    2
    20    17    19    1
    21    17    18    1
    22    19    20    1
    23    22    20    1
    24    22    23    1
    25    20    21    1
    26     7    18    1
    27     7     5    1
    28    18     1    2
    29     5     6    2
    30     5     4    2
    31     1     2    2
    32     4     2    2
    33     2     3    2
