@<TRIPOS>MOLECULE
3u2o_03U_A_1.pdb
 27 28 0 0 0
SMALL
GASTEIGER

@<TRIPOS>ATOM
      1  C1        -8.8050   32.1530   -0.6400 C.ar    1  03U1        0.0023
      2  C2        -7.8800   32.1170   -1.7010 C.ar    1  03U1        0.0003
      3  C3        -9.8110   31.2180   -0.5290 C.ar    1  03U1        0.0296
      4  C4        -8.0360   31.1990   -2.7250 C.ar    1  03U1        0.0023
      5  C5        -9.9260   30.2750   -1.5310 C.ar    1  03U1        0.1401
      6  C6        -9.0550   30.2600   -2.6190 C.ar    1  03U1        0.0296
      7  C7        -6.9150   33.2340   -1.7070 C.ar    1  03U1        0.0063
      8  C8        -6.1410   33.6280   -0.6170 C.ar    1  03U1        0.0769
      9  C9        -6.9030   34.0110   -2.8670 C.ar    1  03U1        0.0015
     10  C10       -5.3440   34.7650   -0.7160 C.ar    1  03U1        0.0230
     11  C11       -6.1060   35.1520   -2.9590 C.ar    1  03U1        0.0166
     12  C12       -5.3230   35.5270   -1.8780 C.ar    1  03U1        0.0739
     13  F13      -10.8870   29.3830   -1.4280 F       1  03U1       -0.2042
     14  C14       -6.1210   32.8920    0.6550 C.2     1  03U1        0.3414
     15  O15       -6.1890   33.5940    1.8140 O.3     1  03U1       -0.4413
     16  O16       -6.0400   31.6910    0.6870 O.2     1  03U1       -0.2449
     17  C17       -6.2970   32.8980    3.0650 C.3     1  03U1        0.2560
     18  N18       -4.5380   36.6940   -1.9210 N.am    1  03U1       -0.1748
     19  C19       -3.8790   37.2190   -2.9940 C.2     1  03U1        0.2815
     20  C20       -3.1090   38.4520   -2.8160 C.2     1  03U1        0.1581
     21  O21       -3.9290   36.6680   -4.0730 O.2     1  03U1       -0.2672
     22  C22       -2.9920   39.0780   -1.6220 C.2     1  03U1        0.1871
     23  C23       -2.4850   38.9790   -3.9770 C.1     1  03U1        0.1080
     24  N24       -1.9270   39.4370   -4.8780 N.1     1  03U1       -0.1906
     25  O25       -3.5870   38.6090   -0.5130 O.2     1  03U1       -0.2905
     26  C26       -2.1930   40.3600   -1.4590 C.3     1  03U1        0.0701
     27  C27       -0.6910   40.0120   -1.3930 C.3     1  03U1        0.0086
@<TRIPOS>BOND
     1    24    23    3
     2    21    19    2
     3    23    20    1
     4    19    20    1
     5    19    18   am
     6    11     9   ar
     7    11    12   ar
     8     9     7   ar
     9    20    22    2
    10     4     6   ar
    11     4     2   ar
    12     6     5   ar
    13    18    12    1
    14    12    10   ar
    15     7     2    1
    16     7     8   ar
    17     2     1   ar
    18    22    26    1
    19    22    25    1
    20     5    13    1
    21     5     3   ar
    22    26    27    1
    23    10     8   ar
    24     1     3   ar
    25     8    14    1
    26    14    16    2
    27    14    15    1
    28    15    17    1
