@<TRIPOS>MOLECULE
3u2q_GDP_A_1.pdb
 28 30 0 0 0
SMALL
GASTEIGER

@<TRIPOS>ATOM
      1  PB        14.6280    1.0920  -27.9700 P.3   501  GDP501      0.5373
      2  O1B       14.2690   -0.2160  -28.7200 O.2   501  GDP501     -0.2221
      3  O2B       16.1360    1.0830  -27.6350 O.3   501  GDP501     -0.1143
      4  O3B       13.8040    1.2330  -26.7220 O.3   501  GDP501     -0.1143
      5  O3A       14.3890    2.2400  -29.0210 O.3   501  GDP501     -0.2261
      6  PA        15.2590    3.2250  -29.8920 P.3   501  GDP501      0.2231
      7  O1A       16.2100    4.0460  -29.0790 O.3   501  GDP501     -0.4370
      8  O2A       15.9860    2.3480  -30.9480 O.2   501  GDP501     -0.5169
      9  O5'       14.3020    4.1250  -30.7390 O.3   501  GDP501     -0.3111
     10  C5'       13.1330    4.7380  -30.0950 C.3   501  GDP501      0.1813
     11  C4'       12.2990    5.5980  -31.0780 C.3   501  GDP501      0.1799
     12  O4'       11.7870    6.7460  -30.3900 O.3   501  GDP501     -0.3326
     13  C3'       13.0930    6.1200  -32.3050 C.3   501  GDP501      0.2158
     14  O3'       12.2820    6.0850  -33.4890 O.3   501  GDP501     -0.2175
     15  C2'       13.4610    7.5370  -31.9230 C.3   501  GDP501      0.2310
     16  O2'       13.4390    8.4620  -33.0240 O.3   501  GDP501     -0.2158
     17  C1'       12.4470    7.9190  -30.8640 C.3   501  GDP501      0.2293
     18  N9        13.2490    8.6880  -29.8860 N.pl3 501  GDP501     -0.2354
     19  C8        13.8650    8.2450  -28.6770 C.3   501  GDP501      0.2246
     20  N7        13.6010    8.9560  -27.5650 N.2   501  GDP501     -0.2322
     21  C5        12.6860    9.9980  -28.0520 C.2   501  GDP501      0.2182
     22  C6        11.9930   11.1270  -27.3650 C.1   501  GDP501      0.2372
     23  O6        12.1880   11.3110  -26.1760 O.2   501  GDP501     -0.2069
     24  N1        11.1580   11.9090  -28.1270 N.2   501  GDP501     -0.2485
     25  C2        10.9280   11.7270  -29.4720 C.1   501  GDP501      0.2531
     26  N2        10.1030   12.5300  -30.1230 N.pl3 501  GDP501     -0.0226
     27  N3        11.5670   10.7070  -30.1340 N.2   501  GDP501     -0.3074
     28  C4        12.4840    9.8230  -29.3710 C.2   501  GDP501      0.2300
@<TRIPOS>BOND
     1    14    13    1
     2    16    15    1
     3    13    15    1
     4    13    11    1
     5    15    17    1
     6    11    12    1
     7    11    10    1
     8     8     6    2
     9    17    12    1
    10    17    18    1
    11     9    10    1
    12     9     6    1
    13    27    25    2
    14    27    28    2
    15    26    25    1
    16     6     7    1
    17     6     5    1
    18    18    28    1
    19    18    19    1
    20    25    24    2
    21    28    21    1
    22     5     1    1
    23     2     1    2
    24    19    20    1
    25    24    22    2
    26    21    20    2
    27    21    22    1
    28     1     3    1
    29     1     4    1
    30    22    23    2
