@<TRIPOS>MOLECULE
3u2s_MAN_C_1.pdb
 11 11 0 0 0
SMALL
GASTEIGER

@<TRIPOS>ATOM
      1  C1        19.7840   31.2790   30.0140 C.3   566  MAN566      0.1777
      2  C2        20.5000   32.0890   28.9370 C.3   566  MAN566      0.2141
      3  C3        21.9120   32.4640   29.3770 C.3   566  MAN566      0.2173
      4  C4        21.8630   33.1010   30.7700 C.3   566  MAN566      0.2142
      5  C5        21.1000   32.1670   31.7120 C.3   566  MAN566      0.1810
      6  C6        21.0520   32.6750   33.1530 C.3   566  MAN566      0.2141
      7  O2        19.7530   33.2400   28.6050 O.3   566  MAN566     -0.2176
      8  O3        22.4710   33.3370   28.4190 O.3   566  MAN566     -0.2175
      9  O4        23.1670   33.3150   31.2740 O.3   566  MAN566     -0.2176
     10  O5        19.7870   31.9940   31.2260 O.3   566  MAN566     -0.3481
     11  O6        20.5590   31.6780   34.0240 O.3   566  MAN566     -0.2176
@<TRIPOS>BOND
     1     8     3    1
     2     7     2    1
     3     2     3    1
     4     2     1    1
     5     3     4    1
     6     1    10    1
     7     4     9    1
     8     4     5    1
     9    10     5    1
    10     5     6    1
    11     6    11    1
