@<TRIPOS>MOLECULE
3u2s_BU3_B_1.pdb
 16 15 0 0 0
SMALL
GASTEIGER

@<TRIPOS>ATOM
      1  O6        43.7860   27.1100   46.8570 O.3   213  BU3213     -0.3895
      2  C3        44.5270   27.6950   45.8640 C.3   213  BU3213      0.0780
      3  C4        45.0550   26.6560   44.9150 C.3   213  BU3213     -0.0365
      4  C2        45.6930   28.4330   46.4730 C.3   213  BU3213      0.0780
      5  O5        45.1330   29.4050   47.3160 O.3   213  BU3213     -0.3895
      6  C1        46.5740   29.0190   45.4300 C.3   213  BU3213     -0.0365
      7  HO6       42.9090   27.1550   46.6450 H     213  BU3213      0.2099
      8  H3        44.0020   28.3260   45.3760 H     213  BU3213      0.0616
      9  H41       45.8540   26.2300   45.3050 H     213  BU3213      0.0255
     10  H42       44.3550   25.9670   44.7570 H     213  BU3213      0.0255
     11  H43       45.2960   27.0880   44.0530 H     213  BU3213      0.0255
     12  H2        46.2390   27.7700   46.9710 H     213  BU3213      0.0616
     13  HO5       45.6460   29.5100   48.0240 H     213  BU3213      0.2099
     14  H11       46.0310   29.3700   44.7060 H     213  BU3213      0.0255
     15  H12       47.1820   28.3170   45.0780 H     213  BU3213      0.0255
     16  H13       47.1030   29.7430   45.8200 H     213  BU3213      0.0255
@<TRIPOS>BOND
     1    11     3    1
     2    14     6    1
     3    10     3    1
     4     3     9    1
     5     3     2    1
     6    15     6    1
     7     8     2    1
     8     6    16    1
     9     6     4    1
    10     2     4    1
    11     2     1    1
    12     4    12    1
    13     4     5    1
    14     7     1    1
    15     5    13    1
