@<TRIPOS>MOLECULE
3u2u_UDP_A_1.pdb
 25 26 0 0 0
SMALL
GASTEIGER

@<TRIPOS>ATOM
      1  N1        58.6360   23.5990   13.9170 N.am  268  UDP268     -0.1766
      2  C2        59.3420   23.5750   12.7710 C.1   268  UDP268      0.2845
      3  N3        60.5680   23.0070   12.7420 N.2   268  UDP268     -0.2452
      4  C4        61.1480   22.4390   13.8140 C.1   268  UDP268      0.2182
      5  C5        60.4580   22.4550   15.0140 C.2   268  UDP268      0.1242
      6  C6        59.1770   23.0570   15.0440 C.2   268  UDP268      0.0929
      7  O2        58.8730   24.0580   11.7120 O.2   268  UDP268     -0.1918
      8  O4        62.2950   21.9240   13.6990 O.2   268  UDP268     -0.2085
      9  C1'       57.3260   24.2870   13.9070 C.3   268  UDP268      0.2401
     10  C2'       56.1910   23.3790   13.4670 C.3   268  UDP268      0.2319
     11  O2'       55.0950   24.1550   12.9720 O.3   268  UDP268     -0.2157
     12  C3'       55.7690   22.7810   14.7820 C.3   268  UDP268      0.2158
     13  C4'       55.8630   23.9830   15.6750 C.3   268  UDP268      0.1799
     14  O4'       56.9900   24.7220   15.2270 O.3   268  UDP268     -0.3320
     15  O3'       54.4870   22.1500   14.7570 O.3   268  UDP268     -0.2175
     16  C5'       56.0340   23.6830   17.1830 C.3   268  UDP268      0.1813
     17  O5'       56.9800   22.5980   17.3930 O.3   268  UDP268     -0.3111
     18  PA        56.4380   21.1690   17.8880 P.3   268  UDP268      0.2231
     19  O1A       54.9630   20.9910   17.3980 O.2   268  UDP268     -0.5169
     20  O2A       57.4940   20.1440   17.5530 O.3   268  UDP268     -0.4370
     21  O3A       56.3230   21.3590   19.4530 O.3   268  UDP268     -0.2261
     22  PB        55.3710   20.5160   20.4340 P.3   268  UDP268      0.5373
     23  O1B       53.9360   20.8400   20.0290 O.2   268  UDP268     -0.2221
     24  O2B       55.7600   20.9190   21.8400 O.3   268  UDP268     -0.1143
     25  O3B       55.7360   19.1000   20.1920 O.3   268  UDP268     -0.1143
@<TRIPOS>BOND
     1     7     2    2
     2     3     2    2
     3     3     4    2
     4     2     1   am
     5    11    10    1
     6    10     9    1
     7    10    12    1
     8     8     4    2
     9     4     5    1
    10     9     1    1
    11     9    14    1
    12     1     6    1
    13    15    12    1
    14    12    13    1
    15     5     6    2
    16    14    13    1
    17    13    16    1
    18    16    17    1
    19    17    18    1
    20    19    18    2
    21    20    18    1
    22    18    21    1
    23    21    22    1
    24    23    22    2
    25    25    22    1
    26    22    24    1
