@<TRIPOS>MOLECULE
3u2u_GLC_A_1.pdb
 11 11 0 0 0
SMALL
GASTEIGER

@<TRIPOS>ATOM
      1  C1        53.8990   11.2410   26.9850 C.3   263  GLC263      0.1777
      2  C2        55.1240   11.2970   27.8920 C.3   263  GLC263      0.2141
      3  C3        55.3980   12.7470   28.2460 C.3   263  GLC263      0.2173
      4  C4        55.4810   13.6410   26.9970 C.3   263  GLC263      0.2142
      5  C5        54.4400   13.2640   25.9440 C.3   263  GLC263      0.1810
      6  C6        54.7380   13.8970   24.5870 C.3   263  GLC263      0.2141
      7  O2        54.8900   10.5910   29.0950 O.3   263  GLC263     -0.2176
      8  O3        56.6140   12.7940   28.9820 O.3   263  GLC263     -0.2175
      9  O4        55.2630   15.0050   27.3570 O.3   263  GLC263     -0.2176
     10  O5        54.3080   11.8590   25.7820 O.3   263  GLC263     -0.3481
     11  O6        53.6540   14.7460   24.3110 O.3   263  GLC263     -0.2176
@<TRIPOS>BOND
     1    11     6    1
     2     6     5    1
     3    10     5    1
     4    10     1    1
     5     5     4    1
     6     1     2    1
     7     4     9    1
     8     4     3    1
     9     2     3    1
    10     2     7    1
    11     3     8    1
