@<TRIPOS>MOLECULE
3u2v_UDP_A_1.pdb
 25 26 0 0 0
SMALL
GASTEIGER

@<TRIPOS>ATOM
      1  N1        58.7190   23.2130   14.3190 N.am  270  UDP270     -0.1766
      2  C2        59.4800   23.1480   13.1280 C.1   270  UDP270      0.2845
      3  N3        60.6870   22.5710   13.1360 N.2   270  UDP270     -0.2452
      4  C4        61.2510   22.0500   14.2300 C.1   270  UDP270      0.2182
      5  C5        60.5590   22.1010   15.4350 C.2   270  UDP270      0.1242
      6  C6        59.2810   22.6950   15.4500 C.2   270  UDP270      0.0929
      7  O2        58.9950   23.6080   12.0930 O.2   270  UDP270     -0.1918
      8  O4        62.4110   21.5140   14.1360 O.2   270  UDP270     -0.2085
      9  C1'       57.4050   23.8940   14.3150 C.3   270  UDP270      0.2401
     10  C2'       56.2690   23.0020   13.8480 C.3   270  UDP270      0.2319
     11  O2'       55.1920   23.7830   13.3200 O.3   270  UDP270     -0.2157
     12  C3'       55.8530   22.3640   15.1310 C.3   270  UDP270      0.2158
     13  C4'       55.9460   23.5610   16.0710 C.3   270  UDP270      0.1799
     14  O4'       57.0670   24.3020   15.6380 O.3   270  UDP270     -0.3320
     15  O3'       54.5560   21.7600   15.0910 O.3   270  UDP270     -0.2175
     16  C5'       56.1300   23.3000   17.5960 C.3   270  UDP270      0.1813
     17  O5'       57.0310   22.2070   17.7910 O.3   270  UDP270     -0.3111
     18  PA        56.5040   20.7920   18.2950 P.3   270  UDP270      0.2231
     19  O1A       57.5060   19.7850   17.9890 O.3   270  UDP270     -0.4370
     20  O2A       55.1240   20.5240   17.7370 O.2   270  UDP270     -0.5169
     21  O3A       56.3550   21.0170   19.8600 O.3   270  UDP270     -0.2261
     22  PB        55.4030   20.1310   20.8140 P.3   270  UDP270      0.5373
     23  O1B       55.7650   20.6500   22.1950 O.3   270  UDP270     -0.1143
     24  O2B       55.7600   18.7380   20.6440 O.3   270  UDP270     -0.1143
     25  O3B       53.9640   20.4500   20.4530 O.2   270  UDP270     -0.2221
@<TRIPOS>BOND
     1     7     2    2
     2     2     3    2
     3     2     1   am
     4     3     4    2
     5    11    10    1
     6    10     9    1
     7    10    12    1
     8     8     4    2
     9     4     5    1
    10     9     1    1
    11     9    14    1
    12     1     6    1
    13    15    12    1
    14    12    13    1
    15     5     6    2
    16    14    13    1
    17    13    16    1
    18    16    17    1
    19    20    18    2
    20    17    18    1
    21    19    18    1
    22    18    21    1
    23    21    22    1
    24    25    22    2
    25    24    22    1
    26    22    23    1
