@<TRIPOS>MOLECULE
3u2v_GLC_A_1.pdb
 11 11 0 0 0
SMALL
GASTEIGER

@<TRIPOS>ATOM
      1  C1        52.0730    4.9000   32.0810 C.3   263  GLC263      0.1777
      2  C2        53.5650    5.1980   31.8310 C.3   263  GLC263      0.2141
      3  C3        54.4010    4.2180   32.6430 C.3   263  GLC263      0.2173
      4  C4        53.6010    3.8450   33.8930 C.3   263  GLC263      0.2142
      5  C5        52.3260    3.0620   33.5030 C.3   263  GLC263      0.1810
      6  C6        51.1740    3.2090   34.5090 C.3   263  GLC263      0.2141
      7  O2        53.9100    5.0840   30.4660 O.3   263  GLC263     -0.2176
      8  O3        55.6350    4.8070   32.9720 O.3   263  GLC263     -0.2175
      9  O4        54.3900    3.1360   34.8560 O.3   263  GLC263     -0.2176
     10  O5        51.8660    3.5100   32.2380 O.3   263  GLC263     -0.3481
     11  O6        50.6740    1.9440   34.8870 O.3   263  GLC263     -0.2176
@<TRIPOS>BOND
     1     7     2    1
     2     2     1    1
     3     2     3    1
     4     1    10    1
     5    10     5    1
     6     3     8    1
     7     3     4    1
     8     5     4    1
     9     5     6    1
    10     4     9    1
    11     6    11    1
