@<TRIPOS>MOLECULE
3u2w_GLC_A_1.pdb
 12 12 0 0 0
SMALL
GASTEIGER

@<TRIPOS>ATOM
      1  C1        30.7020    8.2790   49.7270 C.3   267  GLC267      0.3024
      2  C2        30.2560    7.4270   50.9430 C.3   267  GLC267      0.2434
      3  C3        30.7150    8.0810   52.2270 C.3   267  GLC267      0.2199
      4  C4        31.9510    8.9480   51.9360 C.3   267  GLC267      0.2144
      5  C5        31.6070   10.1480   51.0620 C.3   267  GLC267      0.1836
      6  C6        32.7970   11.1120   50.7910 C.3   267  GLC267      0.2142
      7  O1        29.7710    8.1020   48.6510 O.3   267  GLC267     -0.1869
      8  O2        28.8480    7.0890   51.0250 O.3   267  GLC267     -0.2148
      9  O3        30.9550    7.0310   53.1740 O.3   267  GLC267     -0.2174
     10  O4        32.3700    9.4670   53.1800 O.3   267  GLC267     -0.2176
     11  O5        30.9240    9.6980   49.8880 O.3   267  GLC267     -0.3236
     12  O6        33.7770   10.7400   49.7950 O.3   267  GLC267     -0.2176
@<TRIPOS>BOND
     1     7     1    1
     2     1    11    1
     3     1     2    1
     4    12     6    1
     5    11     5    1
     6     6     5    1
     7     2     8    1
     8     2     3    1
     9     5     4    1
    10     4     3    1
    11     4    10    1
    12     3     9    1
