@<TRIPOS>MOLECULE
3u2w_UDP_A_1.pdb
 25 26 0 0 0
SMALL
GASTEIGER

@<TRIPOS>ATOM
      1  N1        30.7740   12.5300   58.9810 N.am  264  UDP264     -0.1766
      2  C2        30.8840   13.2020   60.1800 C.1   264  UDP264      0.2845
      3  N3        30.5720   14.5260   60.2110 N.2   264  UDP264     -0.2452
      4  C4        30.1420   15.1900   59.0900 C.1   264  UDP264      0.2182
      5  C5        30.0170   14.5240   57.8660 C.2   264  UDP264      0.1242
      6  C6        30.3400   13.1910   57.8330 C.2   264  UDP264      0.0929
      7  O2        31.2910   12.6490   61.1960 O.2   264  UDP264     -0.1918
      8  O4        29.8920   16.3870   59.2060 O.2   264  UDP264     -0.2085
      9  C1'       31.1740   11.1320   58.9620 C.3   264  UDP264      0.2401
     10  C2'       30.0840   10.1820   59.4070 C.3   264  UDP264      0.2319
     11  O2'       30.6140    8.9500   59.8940 O.3   264  UDP264     -0.2157
     12  C3'       29.4250    9.9490   58.0510 C.3   264  UDP264      0.2158
     13  C4'       30.6260    9.7920   57.1320 C.3   264  UDP264      0.1799
     14  O4'       31.5360   10.7840   57.6370 O.3   264  UDP264     -0.3320
     15  O3'       28.4990    8.8740   58.0380 O.3   264  UDP264     -0.2175
     16  C5'       30.4400   10.0470   55.6390 C.3   264  UDP264      0.1813
     17  O5'       29.5600   11.1460   55.4400 O.3   264  UDP264     -0.3111
     18  PA        28.0770   10.8880   54.8970 P.3   264  UDP264      0.2231
     19  O1A       27.3560   12.1360   55.1450 O.2   264  UDP264     -0.5169
     20  O2A       27.4710    9.5600   55.4190 O.3   264  UDP264     -0.4370
     21  O3A       28.3490   10.6890   53.3330 O.3   264  UDP264     -0.2261
     22  PB        27.3320    9.9150   52.3390 P.3   264  UDP264      0.5373
     23  O1B       27.9800   10.0970   51.0000 O.2   264  UDP264     -0.2221
     24  O2B       26.0310   10.6040   52.3250 O.3   264  UDP264     -0.1143
     25  O3B       27.2070    8.5130   52.8640 O.3   264  UDP264     -0.1143
@<TRIPOS>BOND
     1    23    22    2
     2    24    22    1
     3    22    25    1
     4    22    21    1
     5    21    18    1
     6    18    19    2
     7    18    20    1
     8    18    17    1
     9    17    16    1
    10    16    13    1
    11    13    14    1
    12    13    12    1
    13    14     9    1
    14     6     5    2
    15     6     1    1
    16     5     4    1
    17    15    12    1
    18    12    10    1
    19     9     1    1
    20     9    10    1
    21     1     2   am
    22     4     8    2
    23     4     3    2
    24    10    11    1
    25     2     3    2
    26     2     7    2
