@<TRIPOS>MOLECULE
3u2w_LCN_A_1.pdb
 11 11 0 0 0
SMALL
GASTEIGER

@<TRIPOS>ATOM
      1  C1        30.0500    9.8030   49.4400 C.2   268  LCN268      0.2124
      2  C2        29.9110    8.6880   50.1790 C.2   268  LCN268      0.2425
      3  O2        29.1160    7.7080   49.7730 O.2   268  LCN268     -0.2852
      4  C3        30.6040    8.5560   51.4960 C.3   268  LCN268      0.2499
      5  O3        30.9070    7.1730   51.7520 O.3   268  LCN268     -0.2117
      6  C4        31.8590    9.4170   51.4790 C.3   268  LCN268      0.2320
      7  O4        32.3930    9.4080   52.7920 O.3   268  LCN268     -0.2159
      8  C5        31.5520   10.8720   51.1440 C.3   268  LCN268      0.2320
      9  O5        30.7810   10.9580   49.9520 O.2   268  LCN268     -0.4677
     10  C6        32.8530   11.6680   50.9990 C.3   268  LCN268      0.2281
     11  O6        33.6950   11.0810   49.9860 O.3   268  LCN268     -0.2163
@<TRIPOS>BOND
     1     1     9    1
     2     1     2    2
     3     3     2    1
     4     9     8    1
     5    11    10    1
     6     2     4    1
     7    10     8    1
     8     8     6    1
     9     6     4    1
    10     6     7    1
    11     4     5    1
