@<TRIPOS>MOLECULE
3u2x_UDP_A_1.pdb
 25 26 0 0 0
SMALL
GASTEIGER

@<TRIPOS>ATOM
      1  N1        58.5680   23.6950   13.8630 N.am  264  UDP264     -0.1766
      2  C2        59.2940   23.6240   12.6780 C.1   264  UDP264      0.2845
      3  N3        60.5470   23.0400   12.6340 N.2   264  UDP264     -0.2452
      4  C4        61.1130   22.5030   13.7770 C.1   264  UDP264      0.2182
      5  C5        60.3820   22.5710   14.9770 C.2   264  UDP264      0.1242
      6  C6        59.1350   23.2260   15.0300 C.2   264  UDP264      0.0929
      7  O2        58.8400   24.0690   11.6410 O.2   264  UDP264     -0.1918
      8  O4        62.2590   21.9710   13.7220 O.2   264  UDP264     -0.2085
      9  C1'       57.2630   24.3910   13.8470 C.3   264  UDP264      0.2401
     10  C2'       56.1750   23.4380   13.4040 C.3   264  UDP264      0.2319
     11  O2'       55.1770   24.1800   12.7800 O.3   264  UDP264     -0.2157
     12  C3'       55.7580   22.8360   14.7130 C.3   264  UDP264      0.2158
     13  C4'       55.8610   24.0560   15.6480 C.3   264  UDP264      0.1799
     14  O4'       56.9200   24.8350   15.1380 O.3   264  UDP264     -0.3320
     15  O3'       54.4910   22.1950   14.6460 O.3   264  UDP264     -0.2175
     16  C5'       56.0760   23.7650   17.1240 C.3   264  UDP264      0.1813
     17  O5'       56.9580   22.6680   17.2850 O.3   264  UDP264     -0.3111
     18  PA        56.3890   21.3170   17.9390 P.3   264  UDP264      0.2231
     19  O1A       54.9290   21.0360   17.4900 O.2   264  UDP264     -0.5169
     20  O2A       57.3870   20.2710   17.6550 O.3   264  UDP264     -0.4370
     21  O3A       56.2120   21.5980   19.5180 O.3   264  UDP264     -0.2261
     22  PB        55.1630   20.8300   20.4770 P.3   264  UDP264      0.5373
     23  O1B       53.7820   21.0510   19.8670 O.2   264  UDP264     -0.2221
     24  O2B       55.4110   21.2830   21.8740 O.3   264  UDP264     -0.1143
     25  O3B       55.5850   19.4530   20.3050 O.3   264  UDP264     -0.1143
@<TRIPOS>BOND
     1     7     2    2
     2     3     2    2
     3     3     4    2
     4     2     1   am
     5    11    10    1
     6    10     9    1
     7    10    12    1
     8     8     4    2
     9     4     5    1
    10     9     1    1
    11     9    14    1
    12     1     6    1
    13    15    12    1
    14    12    13    1
    15     5     6    2
    16    14    13    1
    17    13    16    1
    18    16    17    1
    19    17    18    1
    20    19    18    2
    21    20    18    1
    22    18    21    1
    23    21    22    1
    24    23    22    2
    25    25    22    1
    26    22    24    1
