@<TRIPOS>MOLECULE
3u2x_ASO_A_1.pdb
 11 11 0 0 0
SMALL
GASTEIGER

@<TRIPOS>ATOM
      1  C1        53.9400   23.4330   22.4390 C.3   265  ASO265      0.1777
      2  C2        53.4900   24.3040   21.2630 C.3   265  ASO265      0.2141
      3  C3        54.6760   24.4610   20.3390 C.3   265  ASO265      0.2173
      4  C4        55.7970   25.1670   21.0850 C.3   265  ASO265      0.2142
      5  C5        56.1930   24.3280   22.3000 C.3   265  ASO265      0.1810
      6  C6        57.2990   24.9910   23.1420 C.3   265  ASO265      0.2141
      7  O2        52.5230   23.6990   20.4440 O.3   265  ASO265     -0.2176
      8  O3        54.2540   25.1030   19.1610 O.3   265  ASO265     -0.2175
      9  O4        56.9000   25.2430   20.2250 O.3   265  ASO265     -0.2176
     10  O5        55.0550   24.0250   23.1130 O.3   265  ASO265     -0.3481
     11  O6        57.2270   26.3970   23.2080 O.3   265  ASO265     -0.2176
@<TRIPOS>BOND
     1     8     3    1
     2     9     4    1
     3     3     4    1
     4     3     2    1
     5     7     2    1
     6     4     5    1
     7     2     1    1
     8     5    10    1
     9     5     6    1
    10     1    10    1
    11     6    11    1
