@<TRIPOS>MOLECULE
3u2z_07T_B_1.pdb
 26 29 0 0 0
SMALL
GASTEIGER

@<TRIPOS>ATOM
      1  OAD       11.4510    5.7650   13.4100 O.2   551  07T551     -0.2639
      2  OAD        7.2690    1.7380   11.9160 O.2   551  07T551     -0.2879
      3  CAR       11.4010    4.7160   14.0220 C.ar  551  07T551      0.2925
      4  CAV       10.4110    3.7690   13.7670 C.ar  551  07T551      0.1204
      5  NAW        9.3600    3.6450   12.9460 N.ar  551  07T551     -0.3187
      6  CAA        8.9220    4.6720   11.9300 C.3   551  07T551      0.1307
      7  CAT        8.7170    2.4850   13.1240 C.ar  551  07T551      0.1028
      8  CAK        7.6500    1.7750   12.6660 C.2   551  07T551      0.2118
      9  CAQ        7.4830    0.5860   13.2690 C.3   551  07T551      0.1934
     10  SAY        6.2430   -0.5770   13.0050 S.O   551  07T551      0.0600
     11  CAB        5.7540   -0.9480   14.6790 C.3   551  07T551      0.1074
     12  OAE        5.0610    0.1590   12.4400 O.2   551  07T551     -0.2546
     13  SAN        8.6520    0.3300   14.4040 S.3   551  07T551     -0.0914
     14  CAU        9.4100    1.8240   14.1460 C.ar  551  07T551      0.0482
     15  CAS       10.4680    2.6270   14.5360 C.ar  551  07T551      0.0486
     16  CAJ       11.4780    2.4900   15.4780 C.ar  551  07T551      0.1223
     17  NAM       12.3860    3.4360   15.6620 N.ar  551  07T551     -0.1648
     18  NAX       12.3650    4.4810   15.0130 N.ar  551  07T551     -0.2109
     19  CAL       13.4330    5.4870   15.2160 C.3   551  07T551      0.1572
     20  CAP       14.4340    5.1050   14.0940 C.ar  551  07T551      0.0036
     21  CAI       14.5410    5.8840   12.9350 C.ar  551  07T551      0.0157
     22  CAH       15.1760    3.9380   14.2310 C.ar  551  07T551     -0.0022
     23  CAF       16.0510    3.5480   13.2520 C.ar  551  07T551      0.0011
     24  CAG       16.1710    4.3250   12.0900 C.ar  551  07T551      0.0180
     25  CAO       15.4170    5.4850   11.9330 C.ar  551  07T551      0.0888
     26  NAC       15.5430    6.2350   10.8430 N.pl3 551  07T551     -0.1281
@<TRIPOS>BOND
     1    26    25    1
     2     2     8    2
     3     6     5    1
     4    25    24   ar
     5    25    21   ar
     6    24    23   ar
     7    12    10    2
     8     8     7    1
     9     8     9    1
    10    21    20   ar
    11     5     7   ar
    12     5     4   ar
    13    10     9    1
    14    10    11    1
    15     7    14   ar
    16    23    22   ar
    17     9    13    1
    18     1     3    2
    19     4     3   ar
    20     4    15   ar
    21     3    18   ar
    22    20    22   ar
    23    20    19    1
    24    14    13    1
    25    14    15   ar
    26    15    16   ar
    27    18    19    1
    28    18    17   ar
    29    16    17   ar
