@<TRIPOS>MOLECULE
3u2z_FBP_A_1.pdb
 20 20 0 0 0
SMALL
GASTEIGER

@<TRIPOS>ATOM
      1  P1       -23.7370  -18.2790   12.0240 P.3   541  FBP541      0.5328
      2  O1P      -23.9390  -19.6540   11.4610 O.3   541  FBP541     -0.1145
      3  O2P      -23.5600  -17.2920   10.9030 O.2   541  FBP541     -0.2224
      4  O3P      -24.8740  -17.8540   12.9380 O.3   541  FBP541     -0.1145
      5  O1       -22.4120  -18.3220   12.9090 O.3   541  FBP541     -0.2648
      6  C1       -21.1600  -18.7510   12.4590 C.3   541  FBP541      0.2152
      7  C2       -20.1470  -18.0410   13.3400 C.3   541  FBP541      0.2780
      8  O2       -18.7750  -18.4650   13.1090 O.3   541  FBP541     -0.1897
      9  C3       -20.4430  -18.2880   14.7970 C.3   541  FBP541      0.2408
     10  O3       -19.9320  -19.5280   15.2170 O.3   541  FBP541     -0.2149
     11  C4       -19.7120  -17.0980   15.3880 C.3   541  FBP541      0.2167
     12  O4       -20.0760  -16.8320   16.7070 O.3   541  FBP541     -0.2175
     13  C5       -20.1130  -16.0050   14.4250 C.3   541  FBP541      0.1808
     14  O5       -20.2030  -16.6300   13.1560 O.3   541  FBP541     -0.3255
     15  C6       -19.1830  -14.7900   14.3990 C.3   541  FBP541      0.1859
     16  O6       -19.9570  -13.6120   14.1510 O.3   541  FBP541     -0.2675
     17  P2       -19.5320  -12.2240   14.8860 P.3   541  FBP541      0.5327
     18  O4P      -19.4460  -12.5070   16.3500 O.3   541  FBP541     -0.1145
     19  O5P      -20.6520  -11.2810   14.5520 O.3   541  FBP541     -0.1145
     20  O6P      -18.1780  -11.8220   14.3740 O.2   541  FBP541     -0.2224
@<TRIPOS>BOND
     1     3     1    2
     2     2     1    1
     3     1     5    1
     4     1     4    1
     5     6     5    1
     6     6     7    1
     7     8     7    1
     8    14     7    1
     9    14    13    1
    10     7     9    1
    11    16    15    1
    12    16    17    1
    13    20    17    2
    14    15    13    1
    15    13    11    1
    16    19    17    1
    17     9    10    1
    18     9    11    1
    19    17    18    1
    20    11    12    1
