@<TRIPOS>MOLECULE
3u31_NAD_A_1.pdb
 44 48 0 0 0
SMALL
GASTEIGER

@<TRIPOS>ATOM
      1  PA        -6.0220   26.3530  -30.6900 P.3   274  NAD274      0.2189
      2  O1A       -4.9770   25.4450  -31.1390 O.2   274  NAD274     -0.5170
      3  O2A       -5.9870   27.7970  -31.0250 O.3   274  NAD274     -0.4371
      4  O5B       -5.9090   26.1590  -29.0920 O.3   274  NAD274     -0.3112
      5  C5B       -6.1400   24.9910  -28.3030 C.3   274  NAD274      0.1813
      6  C4B       -6.1640   25.5940  -26.8760 C.3   274  NAD274      0.1821
      7  O4B       -6.4180   24.5850  -25.9360 O.3   274  NAD274     -0.3135
      8  C3B       -4.8850   26.2870  -26.3780 C.3   274  NAD274      0.2184
      9  O3B       -5.2510   27.5010  -25.7450 O.3   274  NAD274     -0.2174
     10  C2B       -4.3110   25.2380  -25.4110 C.3   274  NAD274      0.2570
     11  O2B       -3.5420   25.7360  -24.3670 O.3   274  NAD274     -0.2130
     12  C1B       -5.5720   24.6540  -24.8080 C.3   274  NAD274      0.3186
     13  N9A       -5.4480   23.2640  -24.3350 N.pl3 274  NAD274     -0.1439
     14  C8A       -4.6520   22.2650  -24.8710 C.3   274  NAD274      0.3377
     15  N7A       -4.8740   21.1360  -24.1680 N.2   274  NAD274     -0.2095
     16  C5A       -5.7860   21.3680  -23.2160 C.2   274  NAD274      0.2526
     17  C6A       -6.3320   20.5380  -22.2540 C.2   274  NAD274      0.4393
     18  N6A       -6.0060   19.2390  -22.1780 N.pl3 274  NAD274      0.2180
     19  N1A       -7.2750   21.0540  -21.4130 N.2   274  NAD274      0.0021
     20  C2A       -7.6460   22.3730  -21.5110 C.3   274  NAD274      0.5254
     21  N3A       -7.0790   23.2060  -22.4610 N.2   274  NAD274     -0.0055
     22  C4A       -6.1650   22.6990  -23.3160 C.2   274  NAD274      0.3518
     23  O3        -7.4440   25.6480  -31.1910 O.3   274  NAD274     -0.2703
     24  PN        -8.8630   26.4390  -31.1480 P.3   274  NAD274      0.2189
     25  O1N       -8.7810   27.6020  -30.2770 O.3   274  NAD274     -0.4371
     26  O2N       -9.9110   25.3780  -31.0270 O.2   274  NAD274     -0.5170
     27  O5D       -8.9380   27.1210  -32.6270 O.3   274  NAD274     -0.3112
     28  C5D       -9.8380   26.6990  -33.6460 C.3   274  NAD274      0.1813
     29  C4D       -9.2410   25.8880  -34.7950 C.3   274  NAD274      0.1799
     30  O4D       -8.3200   26.6990  -35.4900 O.3   274  NAD274     -0.3327
     31  C3D       -8.4220   24.6710  -34.4040 C.3   274  NAD274      0.2158
     32  O3D       -8.7280   23.6410  -35.3410 O.3   274  NAD274     -0.2175
     33  C2D       -6.9490   25.1490  -34.4540 C.3   274  NAD274      0.2309
     34  O2D       -5.9730   24.1690  -34.7270 O.3   274  NAD274     -0.2158
     35  C1D       -7.0020   26.1530  -35.5890 C.3   274  NAD274      0.2263
     36  N1N       -5.9740   27.2190  -35.5640 N.pl3 274  NAD274     -0.2787
     37  C2N       -5.0070   27.2280  -36.5450 C.3   274  NAD274      0.1244
     38  C3N       -4.0140   28.2330  -36.5780 C.2   274  NAD274      0.0544
     39  C7N       -3.1400   28.3430  -37.8170 C.2   274  NAD274      0.2818
     40  O7N       -3.5350   27.6370  -38.9930 O.2   274  NAD274     -0.2670
     41  N7N       -2.0190   29.0990  -37.7790 N.am  274  NAD274     -0.0839
     42  C4N       -4.0120   29.2580  -35.6000 C.2   274  NAD274      0.0033
     43  C5N       -5.0010   29.2450  -34.6070 C.2   274  NAD274      0.0157
     44  C6N       -5.9640   28.2130  -34.5940 C.2   274  NAD274      0.0633
@<TRIPOS>BOND
     1    40    39    2
     2    39    41   am
     3    39    38    1
     4    38    37    1
     5    38    42    2
     6    37    36    1
     7    42    43    1
     8    35    36    1
     9    35    30    1
    10    35    33    1
    11    36    44    1
    12    30    29    1
    13    32    31    1
    14    29    31    1
    15    29    28    1
    16    34    33    1
    17    43    44    2
    18    33    31    1
    19    28    27    1
    20    27    24    1
    21    23    24    1
    22    23     1    1
    23    24    26    2
    24    24    25    1
    25     2     1    2
    26     3     1    1
    27     1     4    1
    28     4     5    1
    29     5     6    1
    30     6     8    1
    31     6     7    1
    32     8     9    1
    33     8    10    1
    34     7    12    1
    35    10    12    1
    36    10    11    1
    37    14    13    1
    38    14    15    1
    39    12    13    1
    40    13    22    1
    41    15    16    2
    42    22    16    1
    43    22    21    2
    44    16    17    1
    45    21    20    1
    46    17    18    1
    47    17    19    2
    48    20    19    1
