@<TRIPOS>MOLECULE
3u32_DCW_K_1.pdb
 16 17 0 0 0
SMALL
GASTEIGER

@<TRIPOS>ATOM
      1  N1        39.0340   18.1160   31.0530 N.am  159  DCW159     -0.1890
      2  O1        38.8380   20.1080   32.0480 O.2   159  DCW159     -0.2492
      3  C1        39.3730   19.4080   31.1950 C.2   159  DCW159      0.3391
      4  C2        39.6380   17.0750   31.9000 C.3   159  DCW159      0.0969
      5  N2        40.3090   19.8890   30.3730 N.am  159  DCW159     -0.1890
      6  C3        41.0350   17.5280   32.3380 C.3   159  DCW159      0.0217
      7  C7        38.7320   16.8750   33.1210 C.3   159  DCW159      0.0217
      8  C4        41.6570   16.4830   33.2610 C.3   159  DCW159      0.0018
      9  C5        40.7560   16.1750   34.4600 C.3   159  DCW159      0.0001
     10  C6        39.3230   15.8240   34.0580 C.3   159  DCW159      0.0018
     11  C8        40.7790   21.2620   30.4230 C.3   159  DCW159      0.0969
     12  C9        41.9460   21.3750   31.4060 C.3   159  DCW159      0.0217
     13  C13       41.2300   21.7400   29.0400 C.3   159  DCW159      0.0217
     14  C10       42.4330   22.8230   31.5220 C.3   159  DCW159      0.0018
     15  C11       42.7960   23.4160   30.1580 C.3   159  DCW159      0.0001
     16  C12       41.7060   23.1950   29.1010 C.3   159  DCW159      0.0018
@<TRIPOS>BOND
     1    13    16    1
     2    13    11    1
     3    16    15    1
     4    15    14    1
     5     5    11    1
     6     5     3   am
     7    11    12    1
     8     1     3   am
     9     1     4    1
    10     3     2    2
    11    12    14    1
    12     4     6    1
    13     4     7    1
    14     6     8    1
    15     7    10    1
    16     8     9    1
    17    10     9    1
