@<TRIPOS>MOLECULE
3u3e_HEM_A_1.pdb
 43 50 0 0 0
SMALL
GASTEIGER

@<TRIPOS>ATOM
      1  CHA      -37.3830    2.2190   -4.2000 C.2   201  HEM201      0.0000
      2  CHB      -36.7340    5.2160   -0.4550 C.2   201  HEM201      0.0000
      3  CHC      -32.2170    6.0690   -1.9340 C.2   201  HEM201      0.0000
      4  CHD      -32.8450    3.0270   -5.6850 C.2   201  HEM201      0.0000
      5  C1A      -37.5770    2.9420   -3.0710 C.2   201  HEM201      0.0000
      6  C2A      -38.7780    2.9860   -2.3090 C.2   201  HEM201      0.0000
      7  C3A      -38.6310    3.8400   -1.2660 C.2   201  HEM201      0.0000
      8  C4A      -37.2950    4.3330   -1.3770 C.2   201  HEM201      0.0000
      9  CMA      -39.6070    4.2010   -0.1810 C.3   201  HEM201      0.0000
     10  CAA      -40.0540    2.1050   -2.5970 C.3   201  HEM201      0.0000
     11  CBA      -40.2020    0.9110   -1.6250 C.3   201  HEM201      0.0000
     12  CGA      -38.9460    0.0070   -1.6340 C.2   201  HEM201      0.0000
     13  O1A      -38.2680   -0.0410   -0.5820 O.co2 201  HEM201      0.0000
     14  O2A      -38.6320   -0.5800   -2.6790 O.co2 201  HEM201      0.0000
     15  C1B      -35.4290    5.6760   -0.5210 C.ar  201  HEM201      0.0000
     16  C2B      -34.8340    6.6200    0.4280 C.ar  201  HEM201      0.0000
     17  C3B      -33.5910    6.8430    0.0040 C.ar  201  HEM201      0.0000
     18  C4B      -33.3790    6.0740   -1.1970 C.ar  201  HEM201      0.0000
     19  CMB      -35.5710    7.1700    1.6210 C.3   201  HEM201      0.0000
     20  CAB      -32.5790    7.7960    0.5640 C.2   201  HEM201      0.0000
     21  CBB      -32.8810    9.0180    1.0910 C.2   201  HEM201      0.0000
     22  C1C      -31.9620    5.3420   -3.1140 C.2   201  HEM201      0.0000
     23  C2C      -30.8170    5.4670   -3.9640 C.2   201  HEM201      0.0000
     24  C3C      -30.9900    4.6190   -5.0220 C.2   201  HEM201      0.0000
     25  C4C      -32.2510    3.9750   -4.8390 C.2   201  HEM201      0.0000
     26  CMC      -29.6400    6.3560   -3.6980 C.3   201  HEM201      0.0000
     27  CAC      -30.1530    4.3870   -6.2700 C.2   201  HEM201      0.0000
     28  CBC      -29.0110    4.9940   -6.5530 C.2   201  HEM201      0.0000
     29  C1D      -34.1090    2.5450   -5.6180 C.ar  201  HEM201      0.0000
     30  C2D      -34.6500    1.6670   -6.5670 C.ar  201  HEM201      0.0000
     31  C3D      -35.9830    1.4990   -6.1980 C.ar  201  HEM201      0.0000
     32  C4D      -36.2300    2.1960   -4.9380 C.ar  201  HEM201      0.0000
     33  CMD      -33.9690    1.1220   -7.8030 C.3   201  HEM201      0.0000
     34  CAD      -37.0730    0.7180   -6.9580 C.3   201  HEM201      0.0000
     35  CBD      -37.7870    1.7720   -7.9210 C.3   201  HEM201      0.0000
     36  CGD      -38.8330    1.0710   -8.7330 C.2   201  HEM201      0.0000
     37  O1D      -38.5620    0.4340   -9.7650 O.co2 201  HEM201      0.0000
     38  O2D      -39.9830    1.0530   -8.3590 O.co2 201  HEM201      0.0000
     39  NA       -36.6840    3.7920   -2.4770 N.2   201  HEM201      0.0000
     40  NB       -34.5290    5.3580   -1.5020 N.ar  201  HEM201      0.0000
     41  NC       -32.8600    4.4240   -3.6680 N.2   201  HEM201      0.0000
     42  ND       -35.0260    2.8200   -4.6230 N.ar  201  HEM201      0.0000
     43 FE        -34.7390    4.0170   -2.9900 Fe    201  HEM201      0.0000
@<TRIPOS>BOND
     1    37    36   ar
     2    36    38   ar
     3    36    35    1
     4    35    34    1
     5    33    30    1
     6    34    31    1
     7    30    31   ar
     8    30    29   ar
     9    28    27    2
    10    27    24    1
    11    31    32   ar
    12     4    29    2
    13     4    25    1
    14    29    42   ar
    15    24    25    1
    16    24    23    2
    17    32    42   ar
    18    32     1    2
    19    25    41    2
    20    42    43    1
    21     1     5    1
    22    23    26    1
    23    23    22    1
    24    41    22    1
    25    41    43    1
    26    22     3    2
    27     5    39    2
    28     5     6    1
    29    43    39    1
    30    43    40    1
    31    14    12   ar
    32    10     6    1
    33    10    11    1
    34    39     8    1
    35     6     7    2
    36     3    18    1
    37    12    11    1
    38    12    13   ar
    39    40    18   ar
    40    40    15   ar
    41     8     7    1
    42     8     2    2
    43     7     9    1
    44    18    17   ar
    45    15     2    1
    46    15    16   ar
    47    17    16   ar
    48    17    20    1
    49    16    19    1
    50    20    21    2
