@<TRIPOS>MOLECULE
3u3j_A3P_A_1.pdb
 27 29 0 0 0
SMALL
GASTEIGER

@<TRIPOS>ATOM
      1  P1       -16.1930   -0.4470  -16.3720 P.3   2001  A3P2001     0.5327
      2  O1P      -17.1700   -0.6710  -15.2520 O.3   2001  A3P2001    -0.1145
      3  O2P      -15.2850    0.7540  -16.2170 O.3   2001  A3P2001    -0.1145
      4  O3P      -15.4720   -1.6730  -16.8150 O.2   2001  A3P2001    -0.2224
      5  P2       -19.2180   -1.1690  -23.2240 P.3   2001  A3P2001     0.5327
      6  O4P      -18.4800   -2.4870  -23.4310 O.3   2001  A3P2001    -0.1145
      7  O5P      -20.7070   -1.3540  -23.0500 O.3   2001  A3P2001    -0.1145
      8  O6P      -18.8940   -0.0740  -24.2040 O.2   2001  A3P2001    -0.2224
      9  O5'      -18.6330   -0.5270  -21.8780 O.3   2001  A3P2001    -0.2675
     10  C5'      -18.9960   -1.0540  -20.6170 C.3   2001  A3P2001     0.1859
     11  C4'      -18.5320   -0.1240  -19.5060 C.3   2001  A3P2001     0.1796
     12  O4'      -19.6160    0.6910  -19.0570 O.3   2001  A3P2001    -0.3136
     13  C3'      -18.0500   -0.8700  -18.2760 C.3   2001  A3P2001     0.1928
     14  O3'      -17.1690    0.0000  -17.5620 O.3   2001  A3P2001    -0.2673
     15  C2'      -19.3630   -1.0720  -17.5780 C.3   2001  A3P2001     0.2543
     16  O2'      -19.1820   -1.5340  -16.2490 O.3   2001  A3P2001    -0.2131
     17  C1'      -19.9470    0.3310  -17.7110 C.3   2001  A3P2001     0.3185
     18  N9       -21.4170    0.4340  -17.5260 N.pl3 2001  A3P2001    -0.1439
     19  C8       -22.3490   -0.4470  -17.9240 C.3   2001  A3P2001     0.3377
     20  N7       -23.5800    0.0060  -17.6100 N.2   2001  A3P2001    -0.2095
     21  C5       -23.4070    1.1920  -17.0010 C.2   2001  A3P2001     0.2526
     22  C6       -24.2940    2.1190  -16.4460 C.2   2001  A3P2001     0.4393
     23  N6       -25.6300    1.9030  -16.4690 N.pl3 2001  A3P2001     0.2180
     24  N1       -23.7970    3.2510  -15.9080 N.2   2001  A3P2001     0.0021
     25  C2       -22.4640    3.4630  -15.8760 C.3   2001  A3P2001     0.5254
     26  N3       -21.5890    2.5910  -16.4000 N.2   2001  A3P2001    -0.0055
     27  C4       -22.0390    1.4550  -16.9680 C.2   2001  A3P2001     0.3518
@<TRIPOS>BOND
     1     8     5    2
     2     6     5    1
     3     5     7    1
     4     5     9    1
     5     9    10    1
     6    10    11    1
     7    11    12    1
     8    11    13    1
     9    12    17    1
    10    13    15    1
    11    13    14    1
    12    19    20    1
    13    19    18    1
    14    17    15    1
    15    17    18    1
    16    20    21    2
    17    15    16    1
    18    14     1    1
    19    18    27    1
    20    21    27    1
    21    21    22    1
    22    27    26    2
    23     4     1    2
    24    23    22    1
    25    22    24    2
    26    26    25    1
    27     1     3    1
    28     1     2    1
    29    24    25    1
