@<TRIPOS>MOLECULE
3u3k_A3P_A_1.pdb
 27 29 0 0 0
SMALL
GASTEIGER

@<TRIPOS>ATOM
      1  P1        19.9010   -0.5590    2.9870 P.3   2001  A3P2001     0.5327
      2  O1P       19.0330   -0.7940    4.1880 O.3   2001  A3P2001    -0.1145
      3  O2P       20.5730    0.7910    3.0890 O.3   2001  A3P2001    -0.1145
      4  O3P       20.6560   -1.7520    2.4840 O.2   2001  A3P2001    -0.2224
      5  P2        16.8210   -1.1630   -4.0000 P.3   2001  A3P2001     0.5327
      6  O4P       17.6840   -2.3680   -4.1200 O.3   2001  A3P2001    -0.1145
      7  O5P       15.3520   -1.5110   -3.7130 O.3   2001  A3P2001    -0.1145
      8  O6P       17.0280   -0.0110   -4.9250 O.2   2001  A3P2001    -0.2224
      9  O5'       17.2300   -0.4070   -2.6150 O.3   2001  A3P2001    -0.2675
     10  C5'       17.2900   -1.1530   -1.3940 C.3   2001  A3P2001     0.1859
     11  C4'       17.6000   -0.2290   -0.2300 C.3   2001  A3P2001     0.1796
     12  O4'       16.4250    0.5580    0.0340 O.3   2001  A3P2001    -0.3136
     13  C3'       17.9940   -0.9840    1.0360 C.3   2001  A3P2001     0.1928
     14  O3'       18.7480   -0.1390    1.8870 O.3   2001  A3P2001    -0.2673
     15  C2'       16.6630   -1.1940    1.6500 C.3   2001  A3P2001     0.2543
     16  O2'       16.7820   -1.4450    3.0470 O.3   2001  A3P2001    -0.2131
     17  C1'       16.0510    0.1650    1.3520 C.3   2001  A3P2001     0.3185
     18  N9        14.5900    0.1410    1.5320 N.pl3 2001  A3P2001    -0.1439
     19  C8        13.7110   -0.7820    1.0870 C.3   2001  A3P2001     0.3377
     20  N7        12.4930   -0.3970    1.5090 N.2   2001  A3P2001    -0.2095
     21  C5        12.6470    0.7620    2.2030 C.2   2001  A3P2001     0.2526
     22  C6        11.7750    1.5850    2.8720 C.2   2001  A3P2001     0.4393
     23  N6        10.4910    1.2850    2.8680 N.pl3 2001  A3P2001     0.2180
     24  N1        12.2330    2.6860    3.4800 N.2   2001  A3P2001     0.0021
     25  C2        13.5710    2.9660    3.4790 C.3   2001  A3P2001     0.5254
     26  N3        14.4560    2.1820    2.8410 N.2   2001  A3P2001    -0.0055
     27  C4        13.9890    1.0870    2.2080 C.2   2001  A3P2001     0.3518
@<TRIPOS>BOND
     1     8     5    2
     2     6     5    1
     3     5     7    1
     4     5     9    1
     5     9    10    1
     6    10    11    1
     7    11    12    1
     8    11    13    1
     9    12    17    1
    10    13    15    1
    11    13    14    1
    12    19    20    1
    13    19    18    1
    14    17    18    1
    15    17    15    1
    16    20    21    2
    17    18    27    1
    18    15    16    1
    19    14     1    1
    20    21    27    1
    21    21    22    1
    22    27    26    2
    23     4     1    2
    24    26    25    1
    25    23    22    1
    26    22    24    2
    27     1     3    1
    28     1     2    1
    29    25    24    1
