@<TRIPOS>MOLECULE
3u3k_03V_A_1.pdb
 11 12 0 0 0
SMALL
GASTEIGER

@<TRIPOS>ATOM
      1  C1        16.9720   -6.2430   -7.8640 C.ar  2002  03V2002     0.0420
      2  O1        17.5350   -4.1210   -8.5300 O.3   2002  03V2002    -0.2866
      3  C2        17.9000   -5.4150   -8.4340 C.ar  2002  03V2002     0.1957
      4  C3        19.1320   -5.8930   -8.8520 C.ar  2002  03V2002     0.0420
      5  C4        19.3660   -7.2630   -8.7090 C.ar  2002  03V2002     0.0032
      6  C5        18.3440   -8.1490   -8.1160 C.ar  2002  03V2002     0.0002
      7  C7        17.1840   -7.6000   -7.6970 C.ar  2002  03V2002     0.0033
      8  C8        18.5460   -9.5000   -7.9700 C.ar  2002  03V2002     0.0000
      9  C9        19.7620  -10.0480   -8.3760 C.ar  2002  03V2002     0.0000
     10  C10       20.7300   -9.2250   -8.9320 C.ar  2002  03V2002     0.0000
     11  C11       20.5370   -7.8440   -9.0980 C.ar  2002  03V2002     0.0001
@<TRIPOS>BOND
     1    11    10   ar
     2    11     5   ar
     3    10     9   ar
     4     4     5   ar
     5     4     3   ar
     6     5     6   ar
     7     2     3    1
     8     3     1   ar
     9     9     8   ar
    10     6     8   ar
    11     6     7   ar
    12     1     7   ar
