@<TRIPOS>MOLECULE
3u3m_A3P_A_1.pdb
 27 29 0 0 0
SMALL
GASTEIGER

@<TRIPOS>ATOM
      1  P1        16.2810   -6.9570   -3.1510 P.3   296  A3P296      0.5327
      2  O1P       15.5420   -7.5530   -4.3450 O.2   296  A3P296     -0.2224
      3  O2P       17.1350   -5.8350   -3.6790 O.3   296  A3P296     -0.1145
      4  O3P       15.6060   -6.6810   -1.8260 O.3   296  A3P296     -0.1145
      5  P2        19.4110  -13.9660   -3.2030 P.3   296  A3P296      0.5327
      6  O4P       18.6330  -14.2130   -4.5000 O.2   296  A3P296     -0.2224
      7  O5P       20.8470  -13.6830   -3.5000 O.3   296  A3P296     -0.1145
      8  O6P       19.1300  -14.7740   -1.9730 O.3   296  A3P296     -0.1145
      9  O5'       19.0230  -12.5100   -2.6130 O.3   296  A3P296     -0.2675
     10  C5'       18.5910  -11.4280   -3.4510 C.3   296  A3P296      0.1859
     11  C4'       18.5370  -10.1290   -2.6320 C.3   296  A3P296      0.1796
     12  O4'       19.8010   -9.7880   -2.0010 O.3   296  A3P296     -0.3136
     13  C3'       18.1530   -8.9510   -3.5190 C.3   296  A3P296      0.1928
     14  O3'       17.3070   -8.1450   -2.6580 O.3   296  A3P296     -0.2673
     15  C2'       19.5310   -8.3470   -3.7980 C.3   296  A3P296      0.2543
     16  O2'       19.4650   -6.9850   -4.2330 O.3   296  A3P296     -0.2131
     17  C1'       20.1760   -8.4720   -2.4220 C.3   296  A3P296      0.3185
     18  N9        21.6540   -8.3040   -2.3840 N.pl3 296  A3P296     -0.1439
     19  C8        22.5800   -8.8440   -3.2200 C.3   296  A3P296      0.3377
     20  N7        23.8100   -8.4550   -2.8270 N.2   296  A3P296     -0.2095
     21  C5        23.6250   -7.6330   -1.7260 C.2   296  A3P296      0.2526
     22  C6        24.4850   -6.8790   -0.9070 C.2   296  A3P296      0.4393
     23  N6        25.8340   -6.8760   -1.1070 N.pl3 296  A3P296      0.2180
     24  N1        23.9410   -6.1120    0.0960 N.2   296  A3P296      0.0021
     25  C2        22.6020   -6.0480    0.3250 C.3   296  A3P296      0.5254
     26  N3        21.7790   -6.7480   -0.4560 N.2   296  A3P296     -0.0055
     27  C4        22.2740   -7.5470   -1.4680 C.2   296  A3P296      0.3518
@<TRIPOS>BOND
     1     6     5    2
     2     2     1    2
     3    16    15    1
     4    15    13    1
     5    15    17    1
     6     3     1    1
     7    13    14    1
     8    13    11    1
     9     7     5    1
    10    10    11    1
    11    10     9    1
    12    19    20    1
    13    19    18    1
    14     5     9    1
    15     5     8    1
    16     1    14    1
    17     1     4    1
    18    20    21    2
    19    11    12    1
    20    17    18    1
    21    17    12    1
    22    18    27    1
    23    21    27    1
    24    21    22    1
    25    27    26    2
    26    23    22    1
    27    22    24    2
    28    26    25    1
    29    24    25    1
