@<TRIPOS>MOLECULE
3u3m_3QV_A_1.pdb
 14 15 0 0 0
SMALL
GASTEIGER

@<TRIPOS>ATOM
      1  C1        18.1150  -18.8900   -7.2170 C.ar  297  3QV297      0.1988
      2  N1        15.5610  -18.9030  -14.1910 N.1   297  3QV297     -0.1906
      3  O1        18.7600  -18.8120   -6.0220 O.3   297  3QV297     -0.2865
      4  C2        16.8220  -19.3680   -7.2850 C.ar  297  3QV297      0.0422
      5  O2        18.6740  -17.8950  -13.0160 O.2   297  3QV297     -0.2437
      6  C3        16.1480  -19.4560   -8.4960 C.ar  297  3QV297      0.0063
      7  O3        18.7740  -18.1620  -10.7690 O.2   297  3QV297     -0.4205
      8  C4        16.7470  -19.0710   -9.6790 C.ar  297  3QV297      0.0358
      9  C5        16.0570  -19.1680  -10.8780 C.ar  297  3QV297      0.0199
     10  C6        16.7060  -18.7660  -12.0340 C.ar  297  3QV297      0.1443
     11  C7        16.0980  -18.8400  -13.1670 C.1   297  3QV297      0.1070
     12  C8        18.1030  -18.2520  -11.9620 C.ar  297  3QV297      0.3555
     13  C9        18.1440  -18.5540   -9.6220 C.ar  297  3QV297      0.1519
     14  C10       18.7790  -18.4840   -8.3820 C.ar  297  3QV297      0.0796
@<TRIPOS>BOND
     1     2    11    3
     2    11    10    1
     3     5    12    2
     4    10    12   ar
     5    10     9   ar
     6    12     7   ar
     7     9     8   ar
     8     7    13   ar
     9     8    13   ar
    10     8     6   ar
    11    13    14   ar
    12     6     4   ar
    13    14     1   ar
    14     4     1   ar
    15     1     3    1
