@<TRIPOS>MOLECULE
3u3o_3QV_A_1.pdb
 14 15 0 0 0
SMALL
GASTEIGER

@<TRIPOS>ATOM
      1  C1        17.9910   18.9120    7.4800 C.ar  296  3QV296      0.1988
      2  N1        17.2320   19.6350   14.8330 N.1   296  3QV296     -0.1906
      3  O1        18.3250   18.7190    6.1750 O.3   296  3QV296     -0.2865
      4  C2        16.7320   19.3680    7.8200 C.ar  296  3QV296      0.0422
      5  O2        20.0060   18.5700   13.0240 O.2   296  3QV296     -0.2437
      6  C3        16.3730   19.5740    9.1460 C.ar  296  3QV296      0.0063
      7  O3        19.5370   18.5930   10.8090 O.2   296  3QV296     -0.4205
      8  C4        17.2630   19.3330   10.1750 C.ar  296  3QV296      0.0358
      9  C5        16.8850   19.5450   11.4910 C.ar  296  3QV296      0.0199
     10  C6        17.8180   19.2870   12.4830 C.ar  296  3QV296      0.1443
     11  C7        17.5050   19.4710   13.7170 C.1   296  3QV296      0.1070
     12  C8        19.1760   18.7980   12.1170 C.ar  296  3QV296      0.3555
     13  C9        18.6260   18.8430    9.8220 C.ar  296  3QV296      0.1519
     14  C10       18.9390   18.6520    8.4760 C.ar  296  3QV296      0.0796
@<TRIPOS>BOND
     1     3     1    1
     2     1     4   ar
     3     1    14   ar
     4     4     6   ar
     5    14    13   ar
     6     6     8   ar
     7    13     8   ar
     8    13     7   ar
     9     8     9   ar
    10     7    12   ar
    11     9    10   ar
    12    12    10   ar
    13    12     5    2
    14    10    11    1
    15    11     2    3
