@<TRIPOS>MOLECULE
3u3o_A3P_A_1.pdb
 27 29 0 0 0
SMALL
GASTEIGER

@<TRIPOS>ATOM
      1  P1        16.2530    6.9890    3.1890 P.3   298  A3P298      0.5327
      2  O1P       15.4770    7.6400    4.3460 O.3   298  A3P298     -0.1145
      3  O2P       17.1010    5.7910    3.6540 O.3   298  A3P298     -0.1145
      4  O3P       15.5360    6.6060    1.9390 O.2   298  A3P298     -0.2224
      5  P2        19.4320   13.9200    3.2090 P.3   298  A3P298      0.5327
      6  O4P       18.5480   14.2410    4.4010 O.3   298  A3P298     -0.1145
      7  O5P       20.9070   13.6820    3.5550 O.3   298  A3P298     -0.1145
      8  O6P       19.2280   14.7520    1.9600 O.2   298  A3P298     -0.2224
      9  O5'       19.0080   12.4650    2.6680 O.3   298  A3P298     -0.2675
     10  C5'       18.8950   11.3690    3.5740 C.3   298  A3P298      0.1859
     11  C4'       18.5390   10.1790    2.7130 C.3   298  A3P298      0.1796
     12  O4'       19.7270    9.8030    1.9040 O.3   298  A3P298     -0.3136
     13  C3'       18.1480    8.9470    3.5540 C.3   298  A3P298      0.1928
     14  O3'       17.2780    8.1670    2.6780 O.3   298  A3P298     -0.2673
     15  C2'       19.5400    8.3420    3.7290 C.3   298  A3P298      0.2543
     16  O2'       19.4240    6.9900    4.2160 O.3   298  A3P298     -0.2131
     17  C1'       20.0800    8.4540    2.3090 C.3   298  A3P298      0.3185
     18  N9        21.5330    8.2680    2.2670 N.pl3 298  A3P298     -0.1439
     19  C8        22.4380    8.8480    3.1210 C.3   298  A3P298      0.3377
     20  N7        23.7010    8.4800    2.7610 N.2   298  A3P298     -0.2095
     21  C5        23.5500    7.6040    1.6970 C.2   298  A3P298      0.2526
     22  C6        24.4610    6.8670    0.9200 C.2   298  A3P298      0.4393
     23  N6        25.8000    6.9250    1.1420 N.pl3 298  A3P298      0.2180
     24  N1        23.9830    6.0810   -0.0820 N.2   298  A3P298      0.0021
     25  C2        22.6770    5.9830   -0.3450 C.3   298  A3P298      0.5254
     26  N3        21.7630    6.6840    0.3750 N.2   298  A3P298     -0.0055
     27  C4        22.1950    7.4810    1.4040 C.2   298  A3P298      0.3518
@<TRIPOS>BOND
     1    25    24    1
     2    25    26    1
     3    24    22    2
     4    26    27    2
     5    22    23    1
     6    22    21    1
     7    27    21    1
     8    27    18    1
     9    21    20    2
    10    12    17    1
    11    12    11    1
    12     4     1    2
    13     8     5    2
    14    18    17    1
    15    18    19    1
    16    17    15    1
    17     9     5    1
    18     9    10    1
    19    14     1    1
    20    14    13    1
    21    11    13    1
    22    11    10    1
    23    20    19    1
    24     1     3    1
    25     1     2    1
    26     5     7    1
    27     5     6    1
    28    13    15    1
    29    15    16    1
