@<TRIPOS>MOLECULE
3u3r_A3P_A_1.pdb
 27 29 0 0 0
SMALL
GASTEIGER

@<TRIPOS>ATOM
      1  P1        20.1150  -22.4360   23.9420 P.3   301  A3P301      0.5327
      2  O1P       19.3010  -22.9030   25.0970 O.3   301  A3P301     -0.1145
      3  O2P       20.8270  -21.0780   24.2600 O.3   301  A3P301     -0.1145
      4  O3P       20.9180  -23.6560   23.3490 O.2   301  A3P301     -0.2224
      5  P2        16.8660  -22.7190   17.0670 P.3   301  A3P301      0.5327
      6  O4P       17.6970  -23.9430   16.7410 O.3   301  A3P301     -0.1145
      7  O5P       15.3480  -23.0980   17.2900 O.3   301  A3P301     -0.1145
      8  O6P       17.0600  -21.5740   16.0160 O.2   301  A3P301     -0.2224
      9  O5'       17.2970  -22.0730   18.4170 O.3   301  A3P301     -0.2675
     10  C5'       17.5560  -22.9430   19.4360 C.3   301  A3P301      0.1859
     11  C4'       17.6600  -22.2130   20.7690 C.3   301  A3P301      0.1796
     12  O4'       16.6040  -21.3120   21.2160 O.3   301  A3P301     -0.3136
     13  C3'       18.2710  -22.7910   21.9980 C.3   301  A3P301      0.1928
     14  O3'       19.0900  -21.9580   22.7810 O.3   301  A3P301     -0.2673
     15  C2'       16.9730  -23.0860   22.6630 C.3   301  A3P301      0.2543
     16  O2'       17.0420  -23.6150   23.9860 O.3   301  A3P301     -0.2131
     17  C1'       16.2090  -21.8190   22.4910 C.3   301  A3P301      0.3185
     18  N9        14.7470  -21.7860   22.6230 N.pl3 301  A3P301     -0.1439
     19  C8        13.7970  -22.7480   22.2400 C.3   301  A3P301      0.3377
     20  N7        12.5510  -22.2960   22.4980 N.2   301  A3P301     -0.2095
     21  C5        12.7300  -21.1360   23.2090 C.2   301  A3P301      0.2526
     22  C6        11.7810  -20.3170   23.9450 C.2   301  A3P301      0.4393
     23  N6        10.3870  -20.4800   23.7750 N.pl3 301  A3P301      0.2180
     24  N1        12.2440  -19.3620   24.7740 N.2   301  A3P301      0.0021
     25  C2        13.6270  -19.0520   24.8310 C.3   301  A3P301      0.5254
     26  N3        14.5570  -19.8410   24.0890 N.2   301  A3P301     -0.0055
     27  C4        14.0960  -20.9210   23.4010 C.2   301  A3P301      0.3518
@<TRIPOS>BOND
     1     8     5    2
     2     6     5    1
     3     5     7    1
     4     5     9    1
     5     9    10    1
     6    10    11    1
     7    11    12    1
     8    11    13    1
     9    12    17    1
    10    13    15    1
    11    13    14    1
    12    19    20    1
    13    19    18    1
    14    17    18    1
    15    17    15    1
    16    20    21    2
    17    18    27    1
    18    15    16    1
    19    14     1    1
    20    21    27    1
    21    21    22    1
    22     4     1    2
    23    27    26    2
    24    23    22    1
    25     1     3    1
    26     1     2    1
    27    22    24    2
    28    26    25    1
    29    24    25    1
