@<TRIPOS>MOLECULE
3u3r_NPO_A_1.pdb
 10 10 0 0 0
SMALL
GASTEIGER

@<TRIPOS>ATOM
      1  C1        19.3480  -29.3430   11.9600 C.ar  300  NPO300      0.1431
      2  C2        17.9850  -29.2530   12.3280 C.ar  300  NPO300      0.0274
      3  C3        17.3660  -27.9910   12.5950 C.ar  300  NPO300      0.0437
      4  C4        18.1020  -26.8290   12.3040 C.ar  300  NPO300      0.1958
      5  C5        19.4230  -26.9200   11.7740 C.ar  300  NPO300      0.0437
      6  C6        20.0660  -28.1820   11.6310 C.ar  300  NPO300      0.0274
      7  OH        17.4210  -25.6250   12.2850 O.3   300  NPO300     -0.2866
      8  N1        19.9810  -30.6440   11.8740 N.pl3 300  NPO300      0.0577
      9  O2        21.2240  -30.7080   11.5990 O.2   300  NPO300     -0.1261
     10  O3        19.3890  -31.7040   12.0550 O.2   300  NPO300     -0.1261
@<TRIPOS>BOND
     1     9     8    2
     2     6     5   ar
     3     6     1   ar
     4     5     4   ar
     5     8     1    1
     6     8    10    2
     7     1     2   ar
     8     7     4    1
     9     4     3   ar
    10     2     3   ar
