@<TRIPOS>MOLECULE
3u3u_EAH_C_1.pdb
 23 22 0 0 0
SMALL
GASTEIGER

@<TRIPOS>ATOM
      1  O1        23.6920  -16.9320   16.1770 O.co2 236  EAH236     -0.2457
      2  C1        23.0880  -15.9740   16.6820 C.2   236  EAH236      0.3649
      3  O2        21.8460  -15.9580   16.8070 O.co2 236  EAH236     -0.2457
      4  C2        23.9030  -14.7990   17.1620 C.3   236  EAH236      0.1141
      5  C3        25.1420  -14.6560   16.2850 C.3   236  EAH236      0.0144
      6  C4        25.4400  -13.1950   15.9650 C.3   236  EAH236      0.0335
      7  C5        26.1010  -12.4020   17.1010 C.3   236  EAH236      0.1524
      8  O3        26.7600  -13.2660   18.0400 O.3   236  EAH236     -0.2231
      9  C6        25.1250  -11.4870   17.8400 C.3   236  EAH236      0.0375
     10  C7        24.0660  -10.9500   16.9120 C.3   236  EAH236      0.0283
     11  C8        24.3310  -10.3380   15.7380 C.2   236  EAH236     -0.0303
     12  C9        23.1750   -9.8790   14.9760 C.2   236  EAH236     -0.0260
     13  C10       23.1430   -9.3560   13.7450 C.3   236  EAH236      0.0513
     14  C11       21.7610   -9.0410   13.4020 C.2   236  EAH236     -0.0257
     15  C12       21.1890   -8.4960   12.3340 C.2   236  EAH236     -0.0257
     16  C13       21.7570   -7.9760   11.0440 C.3   236  EAH236      0.0513
     17  C14       20.5040   -7.8790   10.1890 C.2   236  EAH236     -0.0260
     18  C15       20.1770   -6.8680    9.3780 C.2   236  EAH236     -0.0304
     19  C16       21.0650   -5.6600    9.1920 C.3   236  EAH236      0.0257
     20  C17       20.6380   -4.5580   10.1420 C.3   236  EAH236      0.0047
     21  C18       21.5200   -3.3260    9.9590 C.3   236  EAH236      0.0003
     22  C19       21.4470   -2.4540   11.2090 C.3   236  EAH236      0.0000
     23  C20       21.8640   -1.0330   10.9310 C.3   236  EAH236      0.0000
@<TRIPOS>BOND
     1    19    18    1
     2    19    20    1
     3    18    17    2
     4    21    20    1
     5    21    22    1
     6    17    16    1
     7    23    22    1
     8    16    15    1
     9    15    14    2
    10    14    13    1
    11    13    12    1
    12    12    11    2
    13    11    10    1
    14     6     5    1
    15     6     7    1
    16     1     2   ar
    17     5     4    1
    18     2     3   ar
    19     2     4    1
    20    10     9    1
    21     7     9    1
    22     7     8    1
