@<TRIPOS>MOLECULE
3u40_ADN_A_1.pdb
 19 21 0 0 0
SMALL
GASTEIGER

@<TRIPOS>ATOM
      1  O5'        4.5010   36.1090   52.8270 O.3   251  ADN251     -0.2176
      2  C5'        4.8780   35.0790   51.9030 C.3   251  ADN251      0.2143
      3  C4'        3.6460   34.7150   51.1020 C.3   251  ADN251      0.1851
      4  O4'        3.2970   35.7500   50.1790 O.3   251  ADN251     -0.3134
      5  C3'        3.8870   33.4460   50.3080 C.3   251  ADN251      0.2186
      6  O3'        2.8170   32.5830   50.6870 O.3   251  ADN251     -0.2174
      7  C2'        3.9270   33.8750   48.8370 C.3   251  ADN251      0.2570
      8  O2'        2.9620   33.1950   48.0490 O.3   251  ADN251     -0.2130
      9  C1'        3.6040   35.3760   48.7960 C.3   251  ADN251      0.3186
     10  N9         4.7120   36.2790   48.3320 N.pl3 251  ADN251     -0.1439
     11  C8         4.5440   37.5820   47.9940 C.3   251  ADN251      0.3377
     12  N7         5.7320   38.1690   47.6660 N.2   251  ADN251     -0.2095
     13  C5         6.7090   37.2470   47.8070 C.2   251  ADN251      0.2526
     14  C6         8.1880   37.2030   47.6430 C.2   251  ADN251      0.4393
     15  N6         8.8920   38.2910   47.2250 N.pl3 251  ADN251      0.2180
     16  N1         8.8290   36.0340   47.8950 N.2   251  ADN251      0.0021
     17  C2         8.1690   34.9210   48.3010 C.3   251  ADN251      0.5254
     18  N3         6.8240   34.9090   48.4740 N.2   251  ADN251     -0.0055
     19  C4         6.0430   36.0050   48.2560 C.2   251  ADN251      0.3518
@<TRIPOS>BOND
     1    15    14    1
     2    14    13    1
     3    14    16    2
     4    12    13    2
     5    12    11    1
     6    13    19    1
     7    16    17    1
     8    11    10    1
     9     8     7    1
    10    19    10    1
    11    19    18    2
    12    17    18    1
    13    10     9    1
    14     9     7    1
    15     9     4    1
    16     7     5    1
    17     4     3    1
    18     5     6    1
    19     5     3    1
    20     3     2    1
    21     2     1    1
