@<TRIPOS>MOLECULE
3u4c_NDP_A_1.pdb
 48 52 0 0 0
SMALL
GASTEIGER

@<TRIPOS>ATOM
      1  PA       -21.8580   17.5830   18.1460 P.3   262  NDP262      0.2189
      2  O1A      -20.8720   18.3510   17.3080 O.2   262  NDP262     -0.5170
      3  O2A      -21.1430   16.5920   19.0370 O.3   262  NDP262     -0.4371
      4  O5B      -22.6960   18.5600   19.0740 O.3   262  NDP262     -0.3112
      5  C5B      -23.8980   18.1310   19.6800 C.3   262  NDP262      0.1813
      6  C4B      -24.6070   19.2760   20.3570 C.3   262  NDP262      0.1820
      7  O4B      -25.7000   18.8100   21.1050 O.3   262  NDP262     -0.3136
      8  C3B      -23.7300   19.9980   21.2870 C.3   262  NDP262      0.2157
      9  O3B      -24.0420   21.3360   21.1740 O.3   262  NDP262     -0.2175
     10  C2B      -24.1000   19.5190   22.6310 C.3   262  NDP262      0.2314
     11  O2B      -23.9390   20.5600   23.5090 O.3   262  NDP262     -0.2630
     12  C1B      -25.5170   19.1510   22.4340 C.3   262  NDP262      0.3158
     13  N9A      -25.9550   18.0160   23.2220 N.pl3 262  NDP262     -0.1439
     14  C8A      -25.3010   16.8410   23.4250 C.3   262  NDP262      0.3377
     15  N7A      -26.0910   16.0550   24.2160 N.2   262  NDP262     -0.2095
     16  C5A      -27.2250   16.7510   24.4880 C.2   262  NDP262      0.2526
     17  C6A      -28.3350   16.4400   25.2340 C.2   262  NDP262      0.4393
     18  N6A      -28.3990   15.1560   25.8800 N.pl3 262  NDP262      0.2180
     19  N1A      -29.3390   17.3300   25.3510 N.2   262  NDP262      0.0021
     20  C2A      -29.2630   18.5470   24.7330 C.3   262  NDP262      0.5254
     21  N3A      -28.1540   18.8640   23.9860 N.2   262  NDP262     -0.0055
     22  C4A      -27.1480   17.9650   23.8720 C.2   262  NDP262      0.3518
     23  O3       -22.9340   16.7830   17.2840 O.3   262  NDP262     -0.2703
     24  PN       -22.9340   16.7800   15.6920 P.3   262  NDP262      0.2189
     25  O1N      -21.6680   16.2240   15.0870 O.2   262  NDP262     -0.5170
     26  O2N      -23.1590   18.1960   15.2000 O.3   262  NDP262     -0.4371
     27  O5D      -24.1810   15.8740   15.2790 O.3   262  NDP262     -0.3112
     28  C5D      -25.5190   16.2580   15.5240 C.3   262  NDP262      0.1813
     29  C4D      -26.4040   15.1150   15.0920 C.3   262  NDP262      0.1799
     30  O4D      -26.0370   14.6560   13.8180 O.3   262  NDP262     -0.3327
     31  C3D      -26.2450   14.0020   16.0410 C.3   262  NDP262      0.2158
     32  O3D      -27.4690   13.4640   16.3300 O.3   262  NDP262     -0.2175
     33  C2D      -25.4230   13.0210   15.3100 C.3   262  NDP262      0.2309
     34  O2D      -25.7590   11.7510   15.7100 O.3   262  NDP262     -0.2158
     35  C1D      -25.7840   13.2850   13.9030 C.3   262  NDP262      0.2263
     36  N1N      -24.7490   12.8590   12.9730 N.pl3 262  NDP262     -0.2787
     37  C2N      -23.6040   13.6120   12.7550 C.3   262  NDP262      0.1244
     38  C3N      -22.6220   13.1640   11.8580 C.2   262  NDP262      0.0544
     39  C7N      -21.3560   13.9650   11.5960 C.2   262  NDP262      0.2818
     40  O7N      -21.3140   15.1350   12.2780 O.2   262  NDP262     -0.2670
     41  N7N      -20.5530   13.3120   10.7230 N.am  262  NDP262     -0.0839
     42  C4N      -22.8040   11.9690   11.1890 C.2   262  NDP262      0.0033
     43  C5N      -23.9410   11.2180   11.3970 C.2   262  NDP262      0.0157
     44  C6N      -24.9140   11.6720   12.2980 C.2   262  NDP262      0.0633
     45  P2B      -23.8340   20.4010   25.0620 P.3   262  NDP262      0.5328
     46  O1X      -25.1400   19.8470   25.5460 O.3   262  NDP262     -0.1145
     47  O2X      -22.7740   19.3750   25.3840 O.2   262  NDP262     -0.2224
     48  O3X      -23.5150   21.7590   25.6590 O.3   262  NDP262     -0.1145
@<TRIPOS>BOND
     1    41    39   am
     2    42    43    1
     3    42    38    2
     4    43    44    2
     5    39    38    1
     6    39    40    2
     7    38    37    1
     8    44    36    1
     9    37    36    1
    10    36    35    1
    11    30    35    1
    12    30    29    1
    13    35    33    1
    14    25    24    2
    15    29    28    1
    16    29    31    1
    17    26    24    1
    18    27    28    1
    19    27    24    1
    20    33    34    1
    21    33    31    1
    22    24    23    1
    23    31    32    1
    24    23     1    1
    25     2     1    2
    26     1     3    1
    27     1     4    1
    28     4     5    1
    29     5     6    1
    30     6     7    1
    31     6     8    1
    32     7    12    1
    33     9     8    1
    34     8    10    1
    35    12    10    1
    36    12    13    1
    37    10    11    1
    38    13    14    1
    39    13    22    1
    40    14    15    1
    41    11    45    1
    42    22    21    2
    43    22    16    1
    44    21    20    1
    45    15    16    2
    46    16    17    1
    47    20    19    1
    48    45    47    2
    49    45    46    1
    50    45    48    1
    51    17    19    2
    52    17    18    1
