@<TRIPOS>MOLECULE
3u4e_BMA_G_1.pdb
 20 20 0 0 0
SMALL
GASTEIGER

@<TRIPOS>ATOM
      1  C1        29.6380  -12.5470  -41.0790 C.3   658  BMA658      0.1162
      2  C2        29.9500  -13.3250  -39.8030 C.3   658  BMA658      0.1154
      3  C3        29.4220  -14.7620  -39.9280 C.3   658  BMA658      0.1501
      4  C4        27.9420  -14.7040  -40.3140 C.3   658  BMA658      0.1151
      5  C5        27.7970  -13.9030  -41.6060 C.3   658  BMA658      0.1139
      6  C6        26.3220  -13.7790  -41.9460 C.3   658  BMA658      0.1115
      7  O2        29.2500  -12.7150  -38.7470 O.3   658  BMA658     -0.3864
      8  O3        29.5050  -15.4100  -38.6750 O.3   658  BMA658     -0.2256
      9  O4        27.5160  -16.0150  -40.5880 O.3   658  BMA658     -0.3864
     10  O5        28.2470  -12.5830  -41.3010 O.3   658  BMA658     -0.3630
     11  O6        26.2700  -12.9680  -43.1220 O.3   658  BMA658     -0.2320
     12  H1        30.0960  -12.9580  -41.8410 H     658  BMA658      0.0650
     13  H2        30.9180  -13.3490  -39.6240 H     658  BMA658      0.0648
     14  H3        29.9110  -15.2550  -40.5660 H     658  BMA658      0.0682
     15  H4        27.3590  -14.3810  -39.5880 H     658  BMA658      0.0648
     16  H5        28.3480  -14.2890  -42.3130 H     658  BMA658      0.0647
     17  H61       25.9380  -14.6580  -42.1280 H     658  BMA658      0.0618
     18  H62       25.8420  -13.3400  -41.2130 H     658  BMA658      0.0618
     19  HO2       29.0440  -11.9010  -38.9700 H     658  BMA658      0.2100
     20  HO4       28.0150  -16.5980  -40.1140 H     658  BMA658      0.2100
@<TRIPOS>BOND
     1    11     6    1
     2    16     5    1
     3    17     6    1
     4     6     5    1
     5     6    18    1
     6    12     1    1
     7     5    10    1
     8     5     4    1
     9    10     1    1
    10     1     2    1
    11     9     4    1
    12     9    20    1
    13    14     3    1
    14     4     3    1
    15     4    15    1
    16     3     2    1
    17     3     8    1
    18     2    13    1
    19     2     7    1
    20    19     7    1
