@<TRIPOS>MOLECULE
3u4e_MAN_A_1.pdb
 20 20 0 0 0
SMALL
GASTEIGER

@<TRIPOS>ATOM
      1  C1        -5.0290   16.6630   18.6850 C.3   1659  MAN1659     0.1162
      2  C2        -4.7130   18.1080   18.3260 C.3   1659  MAN1659     0.1154
      3  C3        -5.0180   18.3270   16.8430 C.3   1659  MAN1659     0.1501
      4  C4        -4.2720   17.2760   16.0210 C.3   1659  MAN1659     0.1151
      5  C5        -4.6900   15.8880   16.5050 C.3   1659  MAN1659     0.1139
      6  C6        -3.8880   14.8330   15.7640 C.3   1659  MAN1659     0.1115
      7  O2        -3.3340   18.3280   18.4970 O.3   1659  MAN1659    -0.3864
      8  O3        -4.5030   19.5840   16.4780 O.3   1659  MAN1659    -0.2256
      9  O4        -4.6780   17.3940   14.6790 O.3   1659  MAN1659    -0.3864
     10  O5        -4.2670   15.8090   17.8640 O.3   1659  MAN1659    -0.3630
     11  O6        -4.1110   13.6210   16.4870 O.3   1659  MAN1659    -0.2320
     12  H1        -4.7750   16.4840   19.7300 H     1659  MAN1659     0.0650
     13  H2        -5.2710   18.7590   18.9990 H     1659  MAN1659     0.0648
     14  H3        -6.1000   18.3260   16.7120 H     1659  MAN1659     0.0682
     15  H4        -3.2030   17.4770   16.0960 H     1659  MAN1659     0.0648
     16  H5        -5.7450   15.7460   16.2690 H     1659  MAN1659     0.0647
     17  H61       -4.1910   14.8150   14.7170 H     1659  MAN1659     0.0618
     18  H62       -2.8290   15.0890   15.8010 H     1659  MAN1659     0.0618
     19  HO2       -2.9070   17.5020   18.8050 H     1659  MAN1659     0.2100
     20  HO4       -5.3360   18.1160   14.5990 H     1659  MAN1659     0.2100
@<TRIPOS>BOND
     1    20     9    1
     2     9     4    1
     3    17     6    1
     4     6    18    1
     5     6    11    1
     6     6     5    1
     7     4    15    1
     8     4     5    1
     9     4     3    1
    10    16     5    1
    11     8     3    1
    12     5    10    1
    13    14     3    1
    14     3     2    1
    15    10     1    1
    16     2     7    1
    17     2     1    1
    18     2    13    1
    19     7    19    1
    20     1    12    1
