@<TRIPOS>MOLECULE
3u4h_C8R_A_1.pdb
 36 40 0 0 0
SMALL
GASTEIGER

@<TRIPOS>ATOM
      1  N1        -1.2180    0.8440   -0.8780 N.am  401  C8R401     -0.2036
      2  C2        -2.4800    0.8380   -1.3420 C.3   401  C8R401      0.3663
      3  N3        -2.9570   -0.0600   -2.2220 N.2   401  C8R401     -0.0379
      4  C4        -2.1630   -1.0480   -2.7150 C.2   401  C8R401      0.3641
      5  C5        -0.7630   -1.1460   -2.2750 C.2   401  C8R401      0.2716
      6  C6        -0.3030   -0.1290   -1.3210 C.2   401  C8R401      0.2912
      7  O6         0.9580   -0.1910   -0.8750 O.2   401  C8R401     -0.2666
      8  N7        -0.1870   -2.1970   -2.8920 N.2   401  C8R401     -0.3378
      9  C8        -1.1740   -2.6920   -3.6460 C.cat 401  C8R401      0.3775
     10  N8        -0.9730   -3.7690   -4.4360 N.pl3 401  C8R401     -0.0533
     11  N9        -2.3490   -2.0590   -3.5590 N.pl3 401  C8R401     -0.1023
     12  PA        -4.3270    2.9980   -6.2170 P.3   401  C8R401      0.2189
     13  PB        -4.1400    4.1400   -3.5330 P.3   401  C8R401      0.2189
     14  C1'       -3.5810   -2.3360   -4.3020 C.3   401  C8R401      0.3245
     15  O1A       -5.7680    3.3900   -6.4200 O.3   401  C8R401     -0.4371
     16  O1B       -5.5650    3.6300   -3.3390 O.2   401  C8R401     -0.5170
     17  C1D       -0.7980    1.9120    0.0490 C.3   401  C8R401      0.2315
     18  C2'       -4.8210   -1.9440   -3.5250 C.3   401  C8R401      0.2574
     19  O2'       -5.7460   -3.0130   -3.7070 O.3   401  C8R401     -0.2130
     20  O2A       -3.4120    3.1060   -7.4010 O.2   401  C8R401     -0.5170
     21  O2B       -3.7730    5.5780   -3.2300 O.3   401  C8R401     -0.4371
     22  C2D        0.5540    2.4120   -0.4530 C.3   401  C8R401      0.2311
     23  O2D        1.4310    2.7130    0.6390 O.3   401  C8R401     -0.2158
     24  C3'       -5.3610   -0.7080   -4.2190 C.3   401  C8R401      0.2185
     25  O3'       -6.7860   -0.7160   -4.2600 O.3   401  C8R401     -0.2174
     26  O3A       -3.6340    3.9150   -5.0590 O.3   401  C8R401     -0.2703
     27  C3D        0.3050    3.6680   -1.2800 C.3   401  C8R401      0.2158
     28  O3D        0.9000    4.8340   -0.6890 O.3   401  C8R401     -0.2175
     29  C4'       -4.7890   -0.8470   -5.6140 C.3   401  C8R401      0.1822
     30  O4'       -3.4970   -1.4260   -5.4060 O.3   401  C8R401     -0.3132
     31  C4D       -1.2060    3.8300   -1.2980 C.3   401  C8R401      0.1799
     32  O4D       -1.6870    3.0050   -0.2210 O.3   401  C8R401     -0.3325
     33  C5'       -4.7400    0.4620   -6.3920 C.3   401  C8R401      0.1813
     34  O5'       -4.2320    1.5290   -5.6000 O.3   401  C8R401     -0.3112
     35  C5D       -1.7310    3.4330   -2.6830 C.3   401  C8R401      0.1813
     36  O5D       -3.1430    3.1670   -2.7150 O.3   401  C8R401     -0.3112
@<TRIPOS>BOND
     1    20    12    2
     2    15    12    1
     3    33    29    1
     4    33    34    1
     5    12    34    1
     6    12    26    1
     7    29    30    1
     8    29    24    1
     9    30    14    1
    10    26    13    1
    11    10     9    1
    12    14    11    1
    13    14    18    1
    14    25    24    1
    15    24    18    1
    16    19    18    1
    17     9    11    1
    18     9     8    2
    19    11     4    1
    20    13    16    2
    21    13    21    1
    22    13    36    1
    23     8     5    2
    24    36    35    1
    25     4     5    1
    26     4     3    2
    27    35    31    1
    28     5     6    1
    29     3     2    1
    30     2     1    1
    31     6     1   am
    32     6     7    2
    33    31    27    1
    34    31    32    1
    35    27    28    1
    36    27    22    1
    37     1    17    1
    38    22    17    1
    39    22    23    1
    40    32    17    1
