@<TRIPOS>MOLECULE
3u4i_CVR_A_1.pdb
 35 39 0 0 0
SMALL
GASTEIGER

@<TRIPOS>ATOM
      1  N1         1.9950    0.7100    1.2480 N.3   401  CVR401     -0.2071
      2  C2         3.3290    0.8710    1.0810 C.3   401  CVR401      0.3437
      3  N3         4.2870    0.1430    1.6860 N.2   401  CVR401     -0.0444
      4  C4         3.9730   -0.8520    2.5550 C.2   401  CVR401      0.3394
      5  C5         2.5440   -1.1190    2.8240 C.2   401  CVR401      0.1721
      6  C6         1.5310   -0.2930    2.1300 C.3   401  CVR401      0.2018
      7  N6         0.2180   -0.5090    2.3500 N.3   401  CVR401     -0.1079
      8  N7         2.5060   -2.1310    3.7030 N.2   401  CVR401     -0.2179
      9  C8         3.7870   -2.4870    3.9780 C.3   401  CVR401      0.3373
     10  N9         4.6690   -1.7260    3.3000 N.pl3 401  CVR401     -0.1444
     11  PA         6.4910    2.9060    4.3940 P.3   401  CVR401      0.2189
     12  PB         3.9160    3.9960    3.7750 P.3   401  CVR401      0.2188
     13  C1'        6.1520   -1.8850    3.4040 C.3   401  CVR401      0.3186
     14  O1A        6.1650    3.3670    5.7940 O.3   401  CVR401     -0.4371
     15  O1B        3.4730    3.7610    5.2050 O.3   401  CVR401     -0.4371
     16  C1D        1.1640    1.5630    0.5350 C.3   401  CVR401      0.0961
     17  C2'        6.9590   -1.1490    2.3840 C.3   401  CVR401      0.2570
     18  O2'        7.1760   -1.8920    1.3100 O.3   401  CVR401     -0.2130
     19  O2A        7.6670    3.5140    3.6800 O.2   401  CVR401     -0.5170
     20  O2B        4.1990    5.4130    3.2770 O.2   401  CVR401     -0.5170
     21  C2D       -0.1800    2.0440    1.0370 C.3   401  CVR401      0.1968
     22  O2D       -1.1360    2.0370   -0.0290 O.3   401  CVR401     -0.2190
     23  C3'        8.0930   -0.7790    2.9400 C.3   401  CVR401      0.2184
     24  O3'        9.0710   -1.6200    2.6140 O.3   401  CVR401     -0.2174
     25  O3A        5.1700    3.0290    3.4600 O.3   401  CVR401     -0.2703
     26  C3D        0.0410    3.5120    1.3880 C.3   401  CVR401      0.1859
     27  O3D       -0.9830    4.3540    0.8300 O.3   401  CVR401     -0.2203
     28  C4'        7.9310   -0.7410    4.4230 C.3   401  CVR401      0.1821
     29  O4'        6.6600   -1.3760    4.6510 O.3   401  CVR401     -0.3135
     30  C4D        1.3610    3.8930    0.7400 C.3   401  CVR401      0.0645
     31  C4X        1.8040    2.6260    0.0550 C.3   401  CVR401      0.0240
     32  C5'        7.9140    0.7090    4.9010 C.3   401  CVR401      0.1813
     33  O5'        6.7030    1.3090    4.4420 O.3   401  CVR401     -0.3112
     34  C5D        2.3900    4.3990    1.7450 C.3   401  CVR401      0.1517
     35  O5D        2.7630    3.4680    2.7700 O.3   401  CVR401     -0.3138
@<TRIPOS>BOND
     1    22    21    1
     2    31    16    1
     3    31    30    1
     4    16    21    1
     5    16     1    1
     6    30    26    1
     7    30    34    1
     8    27    26    1
     9    21    26    1
    10     2     1    1
    11     2     3    1
    12     1     6    1
    13    18    17    1
    14     3     4    2
    15    34    35    1
    16     6     7    1
    17     6     5    1
    18    17    23    1
    19    17    13    1
    20     4     5    1
    21     4    10    1
    22    24    23    1
    23    35    12    1
    24     5     8    2
    25    23    28    1
    26    20    12    2
    27    10    13    1
    28    10     9    1
    29    13    29    1
    30    25    12    1
    31    25    11    1
    32    19    11    2
    33     8     9    1
    34    12    15    1
    35    11    33    1
    36    11    14    1
    37    28    29    1
    38    28    32    1
    39    33    32    1
