@<TRIPOS>MOLECULE
3u4l_ATP_A_1.pdb
 31 33 0 0 0
SMALL
GASTEIGER

@<TRIPOS>ATOM
      1  PG       -10.4120  -15.7680   25.6250 P.3   401  ATP401      0.5373
      2  O1G      -11.4140  -15.1090   26.5400 O.3   401  ATP401     -0.1143
      3  O2G      -10.2040  -15.1400   24.2680 O.2   401  ATP401     -0.2221
      4  O3G      -10.7000  -17.2280   25.5570 O.3   401  ATP401     -0.1143
      5  PB        -7.9830  -16.7000   26.7090 P.3   401  ATP401      0.2277
      6  O1B       -7.8090  -16.7730   28.2190 O.3   401  ATP401     -0.4368
      7  O2B       -8.6210  -17.8420   26.0040 O.2   401  ATP401     -0.5168
      8  O3B       -8.9360  -15.4760   26.2740 O.3   401  ATP401     -0.2258
      9  PA        -5.8670  -17.6570   25.0260 P.3   401  ATP401      0.2189
     10  O1A       -4.3900  -17.7640   25.3350 O.3   401  ATP401     -0.4371
     11  O2A       -6.2640  -17.3230   23.6270 O.2   401  ATP401     -0.5170
     12  O3A       -6.5310  -16.5550   26.0320 O.3   401  ATP401     -0.2700
     13  O5'       -6.4850  -19.1000   25.2980 O.3   401  ATP401     -0.3112
     14  C5'       -5.6380  -20.2320   25.5070 C.3   401  ATP401      0.1813
     15  C4'       -6.3330  -21.5120   25.0520 C.3   401  ATP401      0.1821
     16  O4'       -5.5890  -22.0380   23.9530 O.3   401  ATP401     -0.3135
     17  C3'       -6.3210  -22.5960   26.1160 C.3   401  ATP401      0.2184
     18  O3'       -7.5800  -23.2870   26.1090 O.3   401  ATP401     -0.2174
     19  C2'       -5.2370  -23.5530   25.6720 C.3   401  ATP401      0.2570
     20  O2'       -5.5730  -24.8920   26.0280 O.3   401  ATP401     -0.2130
     21  C1'       -5.2130  -23.3890   24.1630 C.3   401  ATP401      0.3186
     22  N9        -3.8620  -23.7420   23.6690 N.pl3 401  ATP401     -0.1439
     23  C8        -2.6970  -23.2560   24.1540 C.3   401  ATP401      0.3377
     24  N7        -1.6360  -23.8130   23.5270 N.2   401  ATP401     -0.2095
     25  C5        -2.1130  -24.6850   22.6150 C.2   401  ATP401      0.2526
     26  C6        -1.5320  -25.6240   21.6030 C.2   401  ATP401      0.4393
     27  N6        -0.1920  -25.7060   21.4670 N.pl3 401  ATP401      0.2180
     28  N1        -2.3810  -26.3760   20.8270 N.2   401  ATP401      0.0021
     29  C2        -3.7290  -26.2950   20.9700 C.3   401  ATP401      0.5254
     30  N3        -4.3190  -25.4580   21.8720 N.2   401  ATP401     -0.0055
     31  C4        -3.5910  -24.6420   22.7070 C.2   401  ATP401      0.3518
@<TRIPOS>BOND
     1    28    29    1
     2    28    26    2
     3    29    30    1
     4    27    26    1
     5    26    25    1
     6    30    31    2
     7    25    31    1
     8    25    24    2
     9    31    22    1
    10    24    23    1
    11    11     9    2
    12    22    23    1
    13    22    21    1
    14    16    21    1
    15    16    15    1
    16    21    19    1
    17     3     1    2
    18     9    13    1
    19     9    10    1
    20     9    12    1
    21    15    14    1
    22    15    17    1
    23    13    14    1
    24     4     1    1
    25     1     8    1
    26     1     2    1
    27    19    20    1
    28    19    17    1
    29     7     5    2
    30    12     5    1
    31    18    17    1
    32     8     5    1
    33     5     6    1
