@<TRIPOS>MOLECULE
3u4o_08E_A_1.pdb
 28 31 0 0 0
SMALL
GASTEIGER

@<TRIPOS>ATOM
      1  C10       25.8760   41.9110   46.3980 C.ar  579  08E579      0.0181
      2  C9        25.7760   41.8360   47.7910 C.ar  579  08E579      0.0129
      3  C21       27.4090   42.7130   41.5880 C.ar  579  08E579      0.0184
      4  C2        24.4570   43.8860   47.8680 C.ar  579  08E579      0.0129
      5  C25       27.6690   44.2720   43.4290 C.ar  579  08E579      0.0353
      6  C22       28.5100   43.3100   41.0180 C.ar  579  08E579      0.1002
      7  C4        24.5380   43.9790   46.4570 C.ar  579  08E579      0.0189
      8  C8        24.0330   44.8860   45.4860 C.ar  579  08E579      0.0347
      9  C20       26.9790   43.2020   42.8200 C.ar  579  08E579      0.0048
     10  C5        25.2480   42.9950   45.7660 C.ar  579  08E579      0.0604
     11  C3        25.0850   42.8110   48.5130 C.ar  579  08E579      0.0578
     12  C7        24.4430   44.4640   44.2190 C.ar  579  08E579      0.1416
     13  C24       28.7710   44.8190   42.7730 C.ar  579  08E579      0.1695
     14  C18       22.6090   48.0220   47.0800 C.2   579  08E579      0.0222
     15  C17       23.4820   46.8970   46.7950 C.2   579  08E579      0.0133
     16  C19       21.5080   48.2100   46.3300 C.2   579  08E579      0.1111
     17  C1        23.2150   46.0250   45.7950 C.2   579  08E579      0.0848
     18  C15       21.9460   46.2330   44.9860 C.1   579  08E579      0.1545
     19  C11       24.2290   44.9900   42.8740 C.2   579  08E579      0.4033
     20  C12       25.7840   42.5140   43.4020 C.3   579  08E579      0.1331
     21  N23       29.1940   44.3460   41.5710 N.ar  579  08E579     -0.2259
     22  N6        25.1660   43.3180   44.4430 N.ar  579  08E579     -0.3178
     23  N16       21.1880   47.3310   45.3190 N.2   579  08E579     -0.1747
     24  N27       29.4780   45.8700   43.3530 N.pl3 579  08E579     -0.1072
     25  O28       21.6130   45.4410   44.0750 O.2   579  08E579     -0.2219
     26  O13       23.9820   44.3320   41.8760 O.co2 579  08E579     -0.2389
     27  O14       24.1920   46.3310   42.8370 O.co2 579  08E579     -0.2389
     28 CL2        24.9680   42.6760   50.2400 Cl    579  08E579     -0.0822
@<TRIPOS>BOND
     1     6    21   ar
     2     6     3   ar
     3    21    13   ar
     4     3     9   ar
     5    26    19   ar
     6    13    24    1
     7    13     5   ar
     8     9    20    1
     9     9     5   ar
    10    27    19   ar
    11    19    12    1
    12    20    22    1
    13    25    18    2
    14    12    22   ar
    15    12     8   ar
    16    22    10   ar
    17    18    23    2
    18    18    17    1
    19    23    16    1
    20     8    17    1
    21     8     7   ar
    22    10     1   ar
    23    10     7   ar
    24    17    15    2
    25    16    14    2
    26     1     2   ar
    27     7     4   ar
    28    15    14    1
    29     2    11   ar
    30     4    11   ar
    31    11    28    1
