@<TRIPOS>MOLECULE
3u4r_08F_A_1.pdb
 42 46 0 0 0
SMALL
GASTEIGER

@<TRIPOS>ATOM
      1  S1        27.9230   43.8370   35.9090 S.O2  579  08F579      0.0750
      2  O1        26.5620   43.3350   35.9570 O.2   579  08F579     -0.1528
      3  O2        28.9390   43.0360   35.2470 O.2   579  08F579     -0.1528
      4  S2        24.1930   44.8640   40.3680 S.O2  579  08F579      0.0957
      5  O3        23.4540   46.1090   40.2580 O.2   579  08F579     -0.1482
      6  O4        23.9360   43.7110   39.5540 O.2   579  08F579     -0.1482
      7  C1        23.3250   46.0130   45.9830 C.2   579  08F579      0.0848
      8  C2        24.5360   43.7910   47.9060 C.ar  579  08F579      0.0129
      9  C3        25.1610   42.7100   48.5310 C.ar  579  08F579      0.0578
     10  C4        24.6520   43.9280   46.5030 C.ar  579  08F579      0.0189
     11  C5        25.3890   42.9670   45.7640 C.ar  579  08F579      0.0603
     12  N1        25.3520   43.3510   44.4480 N.ar  579  08F579     -0.3193
     13  C6        24.6330   44.5390   44.3180 C.ar  579  08F579      0.1182
     14  C7        24.1640   44.8880   45.6030 C.ar  579  08F579      0.0327
     15  C8        25.8830   41.7480   47.7870 C.ar  579  08F579      0.0129
     16  C9        26.0060   41.8630   46.3900 C.ar  579  08F579      0.0181
     17  C10       24.4630   45.2430   43.0570 C.2   579  08F579      0.3015
     18  C11       25.9820   42.6070   43.3340 C.3   579  08F579      0.1330
     19  O5        24.4890   46.4690   42.9470 O.2   579  08F579     -0.2651
     20  C12       22.0170   46.2130   45.2140 C.1   579  08F579      0.1545
     21  N2        21.2140   47.3050   45.6130 N.2   579  08F579     -0.1747
     22  C13       21.5480   48.1510   46.6390 C.2   579  08F579      0.1111
     23  C14       22.6830   47.9820   47.3330 C.2   579  08F579      0.0222
     24  C15       23.5890   46.8830   46.9880 C.2   579  08F579      0.0133
     25  O6        21.6970   45.4440   44.3050 O.2   579  08F579     -0.2219
     26  N3        24.3090   44.3730   41.9660 N.am  579  08F579     -0.0536
     27  C16       25.8330   45.3090   39.9070 C.ar  579  08F579      0.1285
     28  C17       27.2870   43.1290   42.8320 C.ar  579  08F579      0.0048
     29  C18       27.9080   42.5000   41.7500 C.ar  579  08F579      0.0184
     30  C19       29.1130   43.0080   41.3030 C.ar  579  08F579      0.1002
     31  N4        29.7460   44.0850   41.8650 N.ar  579  08F579     -0.2259
     32  C20       29.1460   44.7040   42.9220 C.ar  579  08F579      0.1695
     33  C21       27.9140   44.2500   43.4270 C.ar  579  08F579      0.0353
     34  N5        29.7840   45.8000   43.4990 N.pl3 579  08F579     -0.1072
     35 CL1        25.0240   42.5720   50.2460 Cl    579  08F579     -0.0822
     36  C22       26.4440   46.4200   40.5050 C.ar  579  08F579      0.0203
     37  C23       27.7390   46.7640   40.1160 C.ar  579  08F579      0.0028
     38  C24       28.3940   46.0070   39.1320 C.ar  579  08F579      0.0181
     39  C25       27.7790   44.8810   38.5310 C.ar  579  08F579      0.0920
     40  C26       26.4900   44.5310   38.9140 C.ar  579  08F579      0.0383
     41  N6        28.5270   44.1700   37.5160 N.pl3 579  08F579     -0.1006
     42  C27       27.9880   45.3920   35.0250 C.3   579  08F579      0.2016
@<TRIPOS>BOND
     1    42     1    1
     2     3     1    2
     3     1     2    2
     4     1    41    1
     5    41    39    1
     6    39    40   ar
     7    39    38   ar
     8    40    27   ar
     9    38    37   ar
    10     6     4    2
    11    27     4    1
    12    27    36   ar
    13    37    36   ar
    14     5     4    2
    15     4    26    1
    16    30    29   ar
    17    30    31   ar
    18    29    28   ar
    19    31    32   ar
    20    26    17   am
    21    28    18    1
    22    28    33   ar
    23    32    33   ar
    24    32    34    1
    25    19    17    2
    26    17    13    1
    27    18    12    1
    28    25    20    2
    29    13    12   ar
    30    13    14   ar
    31    12    11   ar
    32    20    21    2
    33    20     7    1
    34    14     7    1
    35    14    10   ar
    36    21    22    1
    37    11    16   ar
    38    11    10   ar
    39     7    24    2
    40    16    15   ar
    41    10     8   ar
    42    22    23    2
    43    24    23    1
    44    15     9   ar
    45     8     9   ar
    46     9    35    1
