@<TRIPOS>MOLECULE
3u4s_08P_A_1.pdb
 16 15 0 0 0
SMALL
GASTEIGER

@<TRIPOS>ATOM
      1  OAY       20.0410  -54.3920   -3.5840 O.co2 503  08P503     -0.2354
      2  CAS       20.1520  -54.0470   -4.7910 C.2   503  08P503      0.4402
      3  OAX       19.1590  -54.0120   -5.5800 O.co2 503  08P503     -0.2354
      4  CAR       21.5130  -53.7610   -5.2980 C.2   503  08P503      0.3262
      5  OAW       21.6770  -53.2650   -6.4020 O.2   503  08P503     -0.2629
      6  N         22.6080  -54.0980   -4.4450 N.am  503  08P503     -0.2920
      7  CA        23.9470  -53.9040   -4.8760 C.3   503  08P503      0.1348
      8  C         24.8230  -53.4430   -3.7670 C.2   503  08P503      0.3767
      9  O         26.0090  -53.1580   -4.0490 O.co2 503  08P503     -0.2442
     10  OXT       24.4000  -53.3460   -2.5830 O.co2 503  08P503     -0.2442
     11  CB        24.4430  -55.2450   -5.3480 C.3   503  08P503      0.0329
     12  S         24.2300  -55.3800   -7.1010 S.3   503  08P503     -0.0907
     13  H         22.4470  -54.4840   -3.6400 H     503  08P503      0.1501
     14  HA        23.9750  -53.2650   -5.6070 H     503  08P503      0.0624
     15  HB2       25.3860  -55.3360   -5.1290 H     503  08P503      0.0408
     16  HB3       23.9400  -55.9490   -4.9060 H     503  08P503      0.0408
@<TRIPOS>BOND
     1    12    11    1
     2     5     4    2
     3    14     7    1
     4     3     2   ar
     5    11    15    1
     6    11    16    1
     7    11     7    1
     8     4     2    1
     9     4     6   am
    10     7     6    1
    11     7     8    1
    12     2     1   ar
    13     6    13    1
    14     9     8   ar
    15     8    10   ar
