@<TRIPOS>MOLECULE
3u4u_LNH_A_1.pdb
 33 37 0 0 0
SMALL
GASTEIGER

@<TRIPOS>ATOM
      1  C1        24.4270   27.2100    8.7880 C.3   334  LNH334      0.0968
      2  C2        24.2900   26.5880   10.1560 C.2   334  LNH334      0.2461
      3  O3        24.1080   25.3830   10.2330 O.2   334  LNH334     -0.2730
      4  N4        24.4130   27.4150   11.2770 N.am  334  LNH334     -0.1792
      5  C5        24.3410   28.8320   11.3030 C.ar  334  LNH334      0.0735
      6  C6        25.1970   29.5240   12.1540 C.ar  334  LNH334      0.0181
      7  C7        25.1920   30.9010   12.2550 C.ar  334  LNH334      0.0185
      8  C8        24.2710   31.5230   11.4240 C.ar  334  LNH334      0.0601
      9  C9        23.4030   30.8720   10.5590 C.ar  334  LNH334      0.0207
     10  C10       23.4330   29.4900   10.4960 C.ar  334  LNH334      0.0182
     11  C11       22.6180   31.8540    9.8790 C.ar  334  LNH334      0.0448
     12  C12       23.0170   33.0900   10.3310 C.ar  334  LNH334      0.0781
     13  N13       24.0110   32.8590   11.2510 N.ar  334  LNH334     -0.3254
     14  C14       24.6960   33.9120   11.9990 C.3   334  LNH334      0.1179
     15  C15       24.1660   33.7880   13.4260 C.3   334  LNH334      0.1384
     16  C16       25.0390   34.6680   14.3140 C.2   334  LNH334      0.3668
     17  O17       26.2520   34.8770   14.0050 O.co2 334  LNH334     -0.2456
     18  O18       24.4150   35.0480   15.3460 O.co2 334  LNH334     -0.2456
     19  C19       21.5680   31.6050    8.8670 C.2   334  LNH334      0.1263
     20  C20       20.7250   32.6890    8.2800 C.3   334  LNH334      0.1783
     21  C21       19.7940   32.4470    7.3510 C.2   334  LNH334      0.3314
     22  N22       19.6210   31.1540    6.9200 N.pl3 334  LNH334     -0.0332
     23  C23       20.3580   30.1280    7.4220 C.2   334  LNH334      0.2950
     24  N24       21.3280   30.2550    8.3920 N.2   334  LNH334     -0.3700
     25  C25       19.9730   28.9640    6.7960 C.3   334  LNH334      0.2294
     26  C26       18.9510   29.3530    5.9090 C.2   334  LNH334      0.1427
     27  N27       18.7580   30.6820    5.9920 N.2   334  LNH334     -0.0827
     28  C28       20.5280   27.6680    7.0230 C.1   334  LNH334      0.0896
     29  N29       21.0470   26.6420    7.1670 N.1   334  LNH334     -0.1949
     30  N30       18.9840   33.3990    6.7670 N.2   334  LNH334     -0.0713
     31  C31       19.1790   34.8150    7.1370 C.3   334  LNH334      0.2150
     32  C32       18.6430   35.8920    6.2280 C.3   334  LNH334      0.0577
     33  C33       20.1210   35.6780    6.3340 C.3   334  LNH334      0.0577
@<TRIPOS>BOND
     1    26    27    2
     2    26    25    1
     3    27    22    1
     4    32    33    1
     5    32    31    1
     6    33    31    1
     7    30    31    1
     8    30    21    2
     9    25    28    1
    10    25    23    1
    11    22    21    1
    12    22    23    1
    13    28    29    3
    14    21    20    1
    15    23    24    2
    16    20    19    1
    17    24    19    2
    18     1     2    1
    19    19    11    1
    20    11    12   ar
    21    11     9   ar
    22     2     3    2
    23     2     4   am
    24    12    13   ar
    25    10     9   ar
    26    10     5   ar
    27     9     8   ar
    28    13     8   ar
    29    13    14    1
    30     4     5    1
    31     5     6   ar
    32     8     7   ar
    33    14    15    1
    34     6     7   ar
    35    15    16    1
    36    17    16   ar
    37    16    18   ar
