@<TRIPOS>MOLECULE
3u4x_XMM_A_1.pdb
 23 25 0 0 0
SMALL
GASTEIGER

@<TRIPOS>ATOM
      1  O2       -25.8440  -10.2160   22.1990 O.3   239  XMM239     -0.2135
      2  C2       -25.4050   -9.9580   23.5420 C.3   239  XMM239      0.2542
      3  C3       -24.1680  -10.8120   23.8250 C.3   239  XMM239      0.2211
      4  O3       -24.4530  -12.1590   23.4750 O.3   239  XMM239     -0.2173
      5  C4       -22.9600  -10.3280   23.0320 C.3   239  XMM239      0.2145
      6  O4       -21.8760  -11.1210   23.5010 O.3   239  XMM239     -0.2176
      7  C5       -22.7000   -8.8300   23.2650 C.3   239  XMM239      0.1846
      8  O5       -23.9010   -8.1320   22.9770 O.3   239  XMM239     -0.3157
      9  C6       -21.5840   -8.2840   22.3970 C.3   239  XMM239      0.2142
     10  O6       -21.9890   -8.3390   21.0330 O.3   239  XMM239     -0.2176
     11  C1       -25.0690   -8.4890   23.7250 C.3   239  XMM239      0.3219
     12  O1       -24.8150   -8.1710   25.0930 O.2   239  XMM239     -0.4488
     13  C7       -24.6760   -6.8390   25.4600 C.2   239  XMM239      0.1623
     14  C8       -25.7290   -6.0110   25.8440 C.2   239  XMM239      0.0609
     15  C9       -25.0980   -4.7860   26.1330 C.2   239  XMM239      0.0847
     16  N1       -23.7540   -4.9510   25.9170 N.2   239  XMM239     -0.2406
     17  C11      -23.4570   -6.2060   25.5080 C.2   239  XMM239      0.1357
     18  C10      -27.0890   -6.1570   25.9780 C.2   239  XMM239      0.0542
     19 CL        -27.9380   -7.7180   25.6560 Cl    239  XMM239     -0.0856
     20  C13      -27.8450   -5.0650   26.4090 C.3   239  XMM239      0.1119
     21 BR        -29.7130   -5.3270   26.5480 Br    239  XMM239     -0.0711
     22  C14      -27.2390   -3.8350   26.6910 C.2   239  XMM239     -0.0083
     23  C12      -25.8480   -3.6930   26.5450 C.2   239  XMM239      0.0158
@<TRIPOS>BOND
     1    10     9    1
     2     1     2    1
     3     9     7    1
     4     8     7    1
     5     8    11    1
     6     5     7    1
     7     5     6    1
     8     5     3    1
     9     4     3    1
    10     2    11    1
    11     2     3    1
    12    11    12    1
    13    12    13    1
    14    13    17    2
    15    13    14    1
    16    17    16    1
    17    19    18    1
    18    14    18    2
    19    14    15    1
    20    16    15    2
    21    18    20    1
    22    15    23    1
    23    20    21    1
    24    20    22    1
    25    23    22    2
