@<TRIPOS>MOLECULE
3u57_DH8_A_1.pdb
 37 43 0 0 0
SMALL
GASTEIGER

@<TRIPOS>ATOM
      1  C1        34.1340   44.4150   35.2390 C.3   1000  DH81000     0.2708
      2  O1        33.9860   44.4880   36.6690 O.3   1000  DH81000    -0.3114
      3  C2        34.5180   45.8510   34.7840 C.3   1000  DH81000     0.2406
      4  O2        33.4590   46.8060   35.0120 O.3   1000  DH81000    -0.2149
      5  C3        35.0150   45.9340   33.3260 C.3   1000  DH81000     0.2198
      6  O3        35.7250   47.1980   33.1230 O.3   1000  DH81000    -0.2174
      7  C4        35.9340   44.7280   33.0120 C.3   1000  DH81000     0.2144
      8  O4        36.1980   44.6550   31.6050 O.3   1000  DH81000    -0.2176
      9  C5        35.3310   43.4050   33.5210 C.3   1000  DH81000     0.1835
     10  O5        35.1740   43.4640   34.9510 O.3   1000  DH81000    -0.3256
     11  C6        36.2390   42.2190   33.1760 C.3   1000  DH81000     0.2142
     12  O6        37.4390   42.2700   33.9730 O.3   1000  DH81000    -0.2176
     13  CAA       30.6700   43.8950   39.5840 C.3   1000  DH81000     0.0301
     14  CAB       35.9980   40.0150   44.0750 C.3   1000  DH81000     0.1212
     15  OAC       34.9640   42.1610   43.7410 O.2   1000  DH81000    -0.2501
     16  CAH       31.5740   43.6670   38.3660 C.2   1000  DH81000    -0.0306
     17  CAI       40.0420   42.0420   42.6690 C.2   1000  DH81000     0.0009
     18  CAJ       39.4500   40.7750   42.6050 C.2   1000  DH81000    -0.0042
     19  CAK       39.4880   43.1200   41.9790 C.2   1000  DH81000     0.0146
     20  CAL       38.2910   40.5700   41.8410 C.2   1000  DH81000    -0.0203
     21  CAN       34.8310   44.3340   39.7550 C.3   1000  DH81000     0.0223
     22  CAO       36.0540   40.7530   39.2670 C.3   1000  DH81000     0.0223
     23  NAP       37.6230   43.8080   40.4700 N.2   1000  DH81000    -0.2749
     24  OAQ       35.0730   40.8590   41.9210 O.3   1000  DH81000    -0.4521
     25  CAT       35.3060   41.0930   43.2380 C.2   1000  DH81000     0.3174
     26  CAU       32.9420   43.4340   38.5140 C.2   1000  DH81000    -0.0061
     27  CAV       36.9700   43.0230   39.4130 C.3   1000  DH81000     0.1214
     28  CAW       38.3340   42.9380   41.2140 C.2   1000  DH81000     0.0575
     29  CAX       37.7390   41.6500   41.1380 C.3   1000  DH81000     0.0670
     30  CBC       33.6220   43.4110   39.8660 C.3   1000  DH81000     0.0278
     31  CBD       35.7980   43.7170   38.7300 C.3   1000  DH81000     0.0826
     32  CBF       34.7860   41.4910   38.7880 C.3   1000  DH81000     0.0638
     33  CBG       33.8550   43.2070   37.3200 C.3   1000  DH81000     0.1981
     34  CBH       35.2480   42.0200   41.1050 C.3   1000  DH81000     0.1727
     35  CBI       34.1210   41.9980   40.0870 C.3   1000  DH81000     0.0588
     36  NBJ       35.1040   42.6800   37.9330 N.3   1000  DH81000    -0.2481
     37  CBK       36.5110   41.8180   40.2320 C.3   1000  DH81000     0.0691
@<TRIPOS>BOND
     1     8     7    1
     2     7     5    1
     3     7     9    1
     4     6     5    1
     5    11     9    1
     6    11    12    1
     7     5     3    1
     8     9    10    1
     9     3     4    1
    10     3     1    1
    11    10     1    1
    12     1     2    1
    13     2    33    1
    14    33    36    1
    15    33    26    1
    16    36    31    1
    17    36    32    1
    18    16    26    2
    19    16    13    1
    20    26    30    1
    21    31    27    1
    22    31    21    1
    23    32    22    1
    24    32    35    1
    25    22    37    1
    26    27    37    1
    27    27    23    1
    28    21    30    1
    29    30    35    1
    30    35    34    1
    31    37    34    1
    32    37    29    1
    33    23    28    2
    34    34    24    1
    35    29    28    1
    36    29    20    1
    37    28    19    1
    38    20    18    2
    39    24    25    1
    40    19    17    2
    41    18    17    1
    42    25    15    2
    43    25    14    1
