@<TRIPOS>MOLECULE
3u5j_08H_A_1.pdb
 22 25 0 0 0
SMALL
GASTEIGER

@<TRIPOS>ATOM
      1  CAS       29.1210   15.7270   -1.1820 C.ar    1  08H1        0.0343
      2  CAJ       27.8430   15.1590   -1.0530 C.ar    1  08H1        0.0143
      3  CAP       27.2860   15.0830    0.2170 C.ar    1  08H1        0.0578
      4 CLAB       25.7010   14.3890    0.4320 Cl      1  08H1       -0.0822
      5  CAH       27.9150   15.5780    1.3660 C.ar    1  08H1        0.0129
      6  CAI       29.1920   16.1500    1.2240 C.ar    1  08H1        0.0185
      7  CAU       29.7630   16.2300   -0.0400 C.ar    1  08H1        0.0677
      8  NAV       31.0230   16.8100   -0.0460 N.ar    1  08H1       -0.2791
      9  CAR       31.5330   17.8720    0.6330 C.ar    1  08H1        0.1473
     10  CAA       30.8060   18.8220    1.6030 C.3     1  08H1        0.0742
     11  NAM       32.8150   18.0370    0.2990 N.ar    1  08H1       -0.1333
     12  NAN       33.1510   17.1120   -0.5260 N.ar    1  08H1       -0.1312
     13  CAT       32.0580   16.3490   -0.7580 C.ar    1  08H1        0.1717
     14  CAK       31.9560   15.2150   -1.7300 C.3     1  08H1        0.1911
     15  NAL       30.9790   15.6910   -2.7460 N.2     1  08H1       -0.2621
     16  CAO       29.6510   15.7770   -2.5090 C.2     1  08H1        0.0779
     17  CAQ       28.8590   16.2640   -3.6140 C.ar    1  08H1        0.0173
     18  CAF       27.6920   16.9910   -3.3980 C.ar    1  08H1        0.0015
     19  CAD       26.9580   17.5330   -4.4550 C.ar    1  08H1        0.0000
     20  CAC       27.3430   17.3280   -5.7770 C.ar    1  08H1        0.0000
     21  CAE       28.4910   16.5930   -5.9960 C.ar    1  08H1        0.0000
     22  CAG       29.2270   16.0660   -4.9390 C.ar    1  08H1        0.0015
@<TRIPOS>BOND
     1    21    20   ar
     2    21    22   ar
     3    20    19   ar
     4    22    17   ar
     5    19    18   ar
     6    17    18   ar
     7    17    16    1
     8    15    16    2
     9    15    14    1
    10    16     1    1
    11    14    13    1
    12     1     2   ar
    13     1     7   ar
    14     2     3   ar
    15    13    12   ar
    16    13     8   ar
    17    12    11   ar
    18     8     7    1
    19     8     9   ar
    20     7     6   ar
    21     3     4    1
    22     3     5   ar
    23    11     9   ar
    24     9    10    1
    25     6     5   ar
