@<TRIPOS>MOLECULE
3u5k_08J_A_1.pdb
 23 26 0 0 0
SMALL
GASTEIGER

@<TRIPOS>ATOM
      1  CAU       76.1400   -4.3260   13.8200 C.ar    1  08J1        0.0343
      2  CAK       76.4870   -4.5180   15.1630 C.ar    1  08J1        0.0143
      3  CAP       77.5620   -3.7900   15.7080 C.ar    1  08J1        0.0578
      4 CLAC       78.0610   -3.9350   17.3620 Cl      1  08J1       -0.0822
      5  CAH       78.2860   -2.8750   14.9120 C.ar    1  08J1        0.0129
      6  CAI       77.9710   -2.6940   13.5710 C.ar    1  08J1        0.0185
      7  CAV       76.8910   -3.3930   13.0290 C.ar    1  08J1        0.0663
      8  NAW       76.7100   -3.1320   11.7220 N.ar    1  08J1       -0.2953
      9  CAR       76.8400   -1.9650   11.0400 C.ar    1  08J1        0.1244
     10  CAA       77.2010   -0.5120   11.5350 C.3     1  08J1        0.0722
     11  NAN       76.6000   -2.2250    9.7580 N.ar    1  08J1       -0.2293
     12  CAJ       76.3670   -3.5300    9.6160 C.ar    1  08J1        0.1152
     13  CAS       76.4350   -4.0820   10.8190 C.ar    1  08J1        0.0860
     14  CAL       76.1940   -5.5560   11.1400 C.3     1  08J1        0.1707
     15  NAM       75.0790   -5.6070   12.0810 N.2     1  08J1       -0.2638
     16  CAO       75.0460   -5.1140   13.3350 C.2     1  08J1        0.0800
     17  CAT       73.7840   -5.2900   13.9720 C.ar    1  08J1        0.0447
     18  CAG       73.1870   -4.2080   14.6230 C.ar    1  08J1        0.0037
     19  CAE       71.9350   -4.3220   15.2420 C.ar    1  08J1        0.0002
     20  CAD       71.2310   -5.5300   15.2090 C.ar    1  08J1        0.0023
     21  CAF       71.7940   -6.6240   14.5520 C.ar    1  08J1        0.0297
     22  CAQ       73.0520   -6.5070   13.9320 C.ar    1  08J1        0.1415
     23  FAB       73.5100   -7.6130   13.3150 F       1  08J1       -0.2041
@<TRIPOS>BOND
     1    12    11   ar
     2    12    13   ar
     3    11     9   ar
     4    13    14    1
     5    13     8   ar
     6     9    10    1
     7     9     8   ar
     8    14    15    1
     9     8     7    1
    10    15    16    2
    11     7     6   ar
    12     7     1   ar
    13    23    22    1
    14    16     1    1
    15    16    17    1
    16     6     5   ar
    17     1     2   ar
    18    22    17   ar
    19    22    21   ar
    20    17    18   ar
    21    21    20   ar
    22    18    19   ar
    23     5     3   ar
    24     2     3   ar
    25    20    19   ar
    26     3     4    1
