@<TRIPOS>MOLECULE
3u5l_08K_A_1.pdb
 23 26 0 0 0
SMALL
GASTEIGER

@<TRIPOS>ATOM
      1 CLA        25.6140   14.4260    0.4450 Cl      1  08K1       -0.0822
      2  CAP       27.2140   15.1170    0.2300 C.ar    1  08K1        0.0578
      3  CAJ       27.7530   15.1830   -1.0310 C.ar    1  08K1        0.0144
      4  CAS       29.0240   15.7610   -1.1890 C.ar    1  08K1        0.0362
      5  CAO       29.5910   15.8440   -2.5730 C.2     1  08K1        0.1002
      6  CAQ       28.6920   16.3060   -3.6880 C.ar    1  08K1        0.0192
      7  CAG       27.5290   17.0560   -3.4490 C.ar    1  08K1        0.0015
      8  CAE       26.7600   17.5440   -4.5090 C.ar    1  08K1        0.0000
      9  CAC       27.1560   17.3000   -5.8190 C.ar    1  08K1        0.0000
     10  CAD       28.3390   16.5890   -6.0520 C.ar    1  08K1        0.0000
     11  CAF       29.0880   16.0890   -5.0080 C.ar    1  08K1        0.0015
     12  NAL       30.8580   15.6870   -2.7930 N.2     1  08K1       -0.1755
     13  NAK       31.8580   15.3230   -1.7940 N.pl3   1  08K1       -0.1774
     14  C23       32.9820   14.4960   -2.1690 C.3     1  08K1        0.1430
     15  CAT       31.9910   16.2740   -0.8350 C.ar    1  08K1        0.2445
     16  NAV       31.0080   16.8110   -0.1470 N.ar    1  08K1       -0.2642
     17  CAR       31.4960   17.8510    0.5570 C.ar    1  08K1        0.1485
     18  CAA       30.8030   18.7450    1.5250 C.3     1  08K1        0.0742
     19  NAM       32.7760   17.9960    0.2410 N.ar    1  08K1       -0.1316
     20  NAN       33.1250   16.9750   -0.6610 N.ar    1  08K1       -0.1110
     21  CAU       29.7390   16.2560   -0.0790 C.ar    1  08K1        0.0692
     22  CAI       29.1360   16.0960    1.1840 C.ar    1  08K1        0.0186
     23  CAH       27.8780   15.5630    1.3510 C.ar    1  08K1        0.0129
@<TRIPOS>BOND
     1    10     9   ar
     2    10    11   ar
     3     9     8   ar
     4    11     6   ar
     5     8     7   ar
     6     6     7   ar
     7     6     5    1
     8    12     5    2
     9    12    13    1
    10     5     4    1
    11    14    13    1
    12    13    15    1
    13     4     3   ar
    14     4    21   ar
    15     3     2   ar
    16    15    20   ar
    17    15    16   ar
    18    20    19   ar
    19    16    21    1
    20    16    17   ar
    21    21    22   ar
    22     2     1    1
    23     2    23   ar
    24    19    17   ar
    25    17    18    1
    26    22    23   ar
