@<TRIPOS>MOLECULE
3u5y_SCG_A_1.pdb
 27 28 0 0 0
SMALL
GASTEIGER

@<TRIPOS>ATOM
      1  O16       36.0300   40.4440   41.9520 O.2   1001  SCG1001    -0.2883
      2  C10       35.0210   40.9450   41.4220 C.2   1001  SCG1001     0.2077
      3  C9        35.0980   41.5120   39.9900 C.3   1001  SCG1001     0.0771
      4  C1        34.3160   42.8370   39.8680 C.3   1001  SCG1001     0.0457
      5  C6        35.0130   43.8180   38.9070 C.3   1001  SCG1001     0.0751
      6  C7        36.4780   43.3850   38.7010 C.3   1001  SCG1001     0.0066
      7  C8        36.9030   42.1140   39.0920 C.3   1001  SCG1001     0.0002
      8  C5        34.2670   43.9380   37.5570 C.3   1001  SCG1001     0.2897
      9  O4        32.8970   44.2770   37.7310 O.2   1001  SCG1001    -0.4495
     10  C3        32.2500   43.3060   38.4140 C.2   1001  SCG1001     0.1771
     11  C2        32.8590   42.5790   39.4280 C.2   1001  SCG1001     0.0906
     12  C12       32.0050   41.5130   40.1220 C.2   1001  SCG1001     0.3404
     13  O14       30.7160   41.3260   39.7080 O.3   1001  SCG1001    -0.4415
     14  C15       29.8240   42.1410   40.5260 C.3   1001  SCG1001     0.2559
     15  O13       32.4660   40.8210   41.0320 O.2   1001  SCG1001    -0.2451
     16  O11       34.7210   45.0540   36.7750 O.3   1001  SCG1001    -0.2934
     17  C17       34.4530   44.8430   35.3760 C.3   1001  SCG1001     0.2720
     18  O22       35.3870   43.7990   35.0540 O.3   1001  SCG1001    -0.3256
     19  C21       35.5060   43.6150   33.6600 C.3   1001  SCG1001     0.1835
     20  C23       36.3740   42.3550   33.4490 C.3   1001  SCG1001     0.2142
     21  O24       37.7250   42.5510   33.9040 O.3   1001  SCG1001    -0.2176
     22  C20       36.1350   44.8780   33.0580 C.3   1001  SCG1001     0.2144
     23  O25       36.3690   44.6640   31.6630 O.3   1001  SCG1001    -0.2176
     24  C19       35.2730   46.1450   33.2720 C.3   1001  SCG1001     0.2198
     25  O26       36.0920   47.3210   33.0930 O.3   1001  SCG1001    -0.2174
     26  C18       34.6430   46.2170   34.6780 C.3   1001  SCG1001     0.2406
     27  O27       33.3970   46.9440   34.6160 O.3   1001  SCG1001    -0.2149
@<TRIPOS>BOND
     1    23    22    1
     2    22    24    1
     3    22    19    1
     4    25    24    1
     5    24    26    1
     6    20    19    1
     7    20    21    1
     8    19    18    1
     9    27    26    1
    10    26    17    1
    11    18    17    1
    12    17    16    1
    13    16     8    1
    14     8     9    1
    15     8     5    1
    16     9    10    1
    17    10    11    2
    18     6     5    1
    19     6     7    1
    20     5     4    1
    21    11     4    1
    22    11    12    1
    23    13    12    1
    24    13    14    1
    25     4     3    1
    26     3     2    1
    27    12    15    2
    28     2     1    2
