@<TRIPOS>MOLECULE
3u5z_08T_B_1.pdb
 31 31 0 0 0
SMALL
GASTEIGER

@<TRIPOS>ATOM
      1  PA        20.4820  -45.1430   41.3090 P.3   700  08T700      0.0000
      2  PB        18.7390  -45.1920   43.4370 P.3   700  08T700      0.0000
      3 BE         16.1820  -44.8350   44.0700 Be    700  08T700      0.0000
      4  C5'       20.8430  -43.9100   39.2120 C.3   700  08T700      0.0000
      5  O5'       21.1420  -44.0290   40.5800 O.3   700  08T700      0.0000
      6  C4'       21.4910  -42.8020   38.5090 C.3   700  08T700      0.0000
      7  O4'       21.7510  -41.7200   39.3220 O.3   700  08T700      0.0000
      8  C3'       22.7570  -43.2940   38.0620 C.3   700  08T700      0.0000
      9  O3'       22.8200  -43.0230   36.6790 O.3   700  08T700      0.0000
     10  C2'       23.7370  -42.5940   38.7670 C.3   700  08T700      0.0000
     11  O2'       24.6040  -41.9590   37.8200 O.3   700  08T700      0.0000
     12  C1'       23.1160  -41.5790   39.6310 C.3   700  08T700      0.0000
     13  N1        27.4620  -41.8990   41.5370 N.2   700  08T700      0.5000
     14  O1A       21.4710  -46.0250   42.0960 O.3   700  08T700     -0.5000
     15  O1B       18.1820  -46.4420   42.8880 O.2   700  08T700      0.0000
     16  F1        16.1740  -46.1890   43.8780 F     700  08T700      0.0000
     17  C2        27.0680  -41.6810   40.2820 C.3   700  08T700      0.0000
     18  O2A       19.8100  -45.9980   40.2640 O.2   700  08T700     -0.5000
     19  O2B       19.7720  -45.4510   44.5980 O.3   700  08T700      0.0000
     20  F2        15.4150  -44.1800   43.0980 F     700  08T700      0.0000
     21  N3        25.7540  -41.6340   39.9700 N.2   700  08T700      0.5000
     22  O3A       19.4820  -44.4280   42.3310 O.3   700  08T700      0.0000
     23  O3B       17.5210  -44.3210   43.9880 O.3   700  08T700      0.0000
     24  F3        15.6260  -44.5190   45.3140 F     700  08T700      0.0000
     25  C4        24.6880  -41.7920   40.8490 C.2   700  08T700      0.0000
     26  C5        25.1990  -42.0210   42.1600 C.2   700  08T700      0.0000
     27  C6        26.5480  -42.0680   42.4790 C.2   700  08T700      0.0000
     28  N6        26.9420  -42.3040   43.8260 N.pl3 700  08T700      0.5000
     29  N7        24.2110  -42.1800   43.0170 N.2   700  08T700      0.0000
     30  C8        23.0690  -42.0610   42.3740 C.3   700  08T700      0.0000
     31  N9        23.2770  -41.8780   41.0690 N.pl3 700  08T700      0.5000
@<TRIPOS>BOND
     1     9     8    1
     2    11    10    1
     3     8     6    1
     4     8    10    1
     5     6     4    1
     6     6     7    1
     7    10    12    1
     8     4     5    1
     9     7    12    1
    10    12    31    1
    11    21    17    1
    12    21    25    2
    13    18     1    2
    14    17    13    1
    15     5     1    1
    16    25    31    1
    17    25    26    1
    18    31    30    1
    19     1    14    1
    20     1    22    1
    21    13    27    2
    22    26    27    1
    23    26    29    2
    24    22     2    1
    25    30    29    1
    26    27    28    1
    27    15     2    2
    28     2    23    1
    29     2    19    1
    30    16     3    1
    31     3    24    1
