@<TRIPOS>MOLECULE
3u5z_ADP_E_1.pdb
 27 29 0 0 0
SMALL
GASTEIGER

@<TRIPOS>ATOM
      1  PB       -41.2440  -39.9290   71.1310 P.3   700  ADP700      0.8585
      2  O1B      -41.6330  -40.1120   69.7020 O.2   700  ADP700     -0.1694
      3  O2B      -41.2860  -38.4850   71.5880 O.3   700  ADP700      0.3985
      4  O3B      -40.0210  -40.7430   71.4800 O.3   700  ADP700     -0.0578
      5  PA       -43.0130  -42.0640   71.4100 P.3   700  ADP700      0.2288
      6  O1A      -44.0030  -41.8580   70.3010 O.2   700  ADP700     -0.5168
      7  O2A      -41.7850  -42.9210   71.1690 O.3   700  ADP700     -0.4369
      8  O3A      -42.4890  -40.6140   71.8640 O.3   700  ADP700     -0.1754
      9  O5'      -43.8450  -42.6020   72.6890 O.3   700  ADP700     -0.3110
     10  C5'      -44.2800  -43.9550   72.7600 C.3   700  ADP700      0.1813
     11  C4'      -45.2550  -44.1150   73.9210 C.3   700  ADP700      0.1821
     12  O4'      -45.5700  -42.8320   74.4520 O.3   700  ADP700     -0.3135
     13  C3'      -46.5780  -44.7290   73.4820 C.3   700  ADP700      0.2184
     14  O3'      -46.6820  -46.0760   73.9340 O.3   700  ADP700     -0.2174
     15  C2'      -47.6710  -43.8570   74.0820 C.3   700  ADP700      0.2570
     16  O2'      -48.5750  -44.5400   74.9610 O.3   700  ADP700     -0.2130
     17  C1'      -46.9530  -42.7310   74.7990 C.3   700  ADP700      0.3186
     18  N9       -47.4460  -41.5420   74.1150 N.pl3 700  ADP700     -0.1439
     19  C8       -46.6800  -40.5830   73.5800 C.3   700  ADP700      0.3377
     20  N7       -47.4440  -39.6350   72.9860 N.2   700  ADP700     -0.2095
     21  C5       -48.7270  -40.0030   73.1450 C.2   700  ADP700      0.2526
     22  C6       -50.0450  -39.4520   72.7560 C.2   700  ADP700      0.4393
     23  N6       -50.1320  -38.2840   72.0660 N.pl3 700  ADP700      0.2180
     24  N1       -51.1420  -40.1590   73.1180 N.2   700  ADP700      0.0021
     25  C2       -51.0510  -41.3180   73.8000 C.3   700  ADP700      0.5254
     26  N3       -49.8880  -41.8760   74.1860 N.2   700  ADP700     -0.0055
     27  C4       -48.7190  -41.2690   73.8910 C.2   700  ADP700      0.3518
@<TRIPOS>UNITY_ATOM_ATTR
3 1
charge 1
6 1
charge 1
@<TRIPOS>BOND
     1     2     1    2
     2     6     5    2
     3     1     4    1
     4     1     3    1
     5     1     8    1
     6     7     5    1
     7     5     8    1
     8     5     9    1
     9    23    22    1
    10     9    10    1
    11    22    24    2
    12    22    21    1
    13    10    11    1
    14    20    21    2
    15    20    19    1
    16    24    25    1
    17    21    27    1
    18    13    11    1
    19    13    14    1
    20    13    15    1
    21    19    18    1
    22    25    26    1
    23    27    18    1
    24    27    26    2
    25    11    12    1
    26    15    17    1
    27    15    16    1
    28    18    17    1
    29    12    17    1
