@<TRIPOS>MOLECULE
3u60_ADP_E_1.pdb
 27 29 0 0 0
SMALL
GASTEIGER

@<TRIPOS>ATOM
      1  PB        31.2530  -53.5470   39.4820 P.3   700  ADP700      0.8694
      2  O1B       32.3200  -52.4820   39.3520 O.3   700  ADP700     -0.0572
      3  O2B       31.4880  -54.7220   38.5700 O.2   700  ADP700      0.2741
      4  O3B       29.8520  -52.9690   39.4990 O.3   700  ADP700     -0.0572
      5  PA        31.7660  -53.4170   42.2250 P.3   700  ADP700      0.2289
      6  O1A       33.2720  -53.3570   42.4710 O.3   700  ADP700     -0.4369
      7  O2A       30.9010  -52.1810   42.2160 O.2   700  ADP700     -0.5168
      8  O3A       31.4570  -54.2530   40.8970 O.3   700  ADP700     -0.1748
      9  O5'       31.0650  -54.3900   43.2730 O.3   700  ADP700     -0.3110
     10  C5'       31.3770  -54.2660   44.6460 C.3   700  ADP700      0.1813
     11  C4'       30.9370  -55.5590   45.3050 C.3   700  ADP700      0.1821
     12  O4'       31.2670  -56.6880   44.4950 O.3   700  ADP700     -0.3135
     13  C3'       31.6670  -55.6940   46.6050 C.3   700  ADP700      0.2184
     14  O3'       30.6340  -55.9160   47.5540 O.3   700  ADP700     -0.2174
     15  C2'       32.5630  -56.9070   46.4490 C.3   700  ADP700      0.2570
     16  O2'       32.3290  -57.8450   47.5010 O.3   700  ADP700     -0.2130
     17  C1'       32.1910  -57.5770   45.1400 C.3   700  ADP700      0.3186
     18  N9        33.4080  -57.7550   44.3020 N.pl3 700  ADP700     -0.1439
     19  C8        33.5520  -57.3010   43.0380 C.3   700  ADP700      0.3377
     20  N7        34.7670  -57.5950   42.5190 N.2   700  ADP700     -0.2095
     21  C5        35.4410  -58.2640   43.4800 C.2   700  ADP700      0.2526
     22  C6        36.7940  -58.8750   43.6050 C.2   700  ADP700      0.4393
     23  N6        37.6860  -58.8420   42.5870 N.pl3 700  ADP700      0.2180
     24  N1        37.1130  -59.4700   44.7700 N.2   700  ADP700      0.0021
     25  C2        36.2200  -59.5090   45.7740 C.3   700  ADP700      0.5254
     26  N3        34.9880  -58.9870   45.7350 N.2   700  ADP700     -0.0055
     27  C4        34.5380  -58.3680   44.6390 C.2   700  ADP700      0.3518
@<TRIPOS>UNITY_ATOM_ATTR
3 1
charge 1
6 1
charge 1
@<TRIPOS>BOND
     1     3     1    2
     2     2     1    1
     3     1     4    1
     4     1     8    1
     5     8     5    1
     6     7     5    2
     7     5     6    1
     8     5     9    1
     9    20    19    1
    10    20    21    2
    11    23    22    1
    12    19    18    1
    13     9    10    1
    14    21    22    1
    15    21    27    1
    16    22    24    2
    17    18    27    1
    18    18    17    1
    19    12    17    1
    20    12    11    1
    21    27    26    2
    22    10    11    1
    23    24    25    1
    24    17    15    1
    25    11    13    1
    26    26    25    1
    27    15    13    1
    28    15    16    1
    29    13    14    1
