@<TRIPOS>MOLECULE
3u60_08T_B_1.pdb
 31 31 0 0 0
SMALL
GASTEIGER

@<TRIPOS>ATOM
      1  PA        -1.3300   -2.2840   10.4570 P.3   700  08T700      0.0000
      2  PB        -1.4430   -4.7750   11.6220 P.3   700  08T700      0.0000
      3 BE          0.7090   -6.1240   12.7940 Be    700  08T700      0.0000
      4  C5'       -0.0580   -1.4330    8.3740 C.3   700  08T700      0.0000
      5  O5'       -1.2540   -1.7500    8.9920 O.3   700  08T700      0.0000
      6  C4'       -0.1540   -0.8970    6.9980 C.3   700  08T700      0.0000
      7  O4'       -0.6230   -1.8820    6.1420 O.3   700  08T700      0.0000
      8  C3'       -1.1490    0.1880    6.9580 C.3   700  08T700      0.0000
      9  O3'       -0.6050    1.4670    7.1320 O.3   700  08T700      0.0000
     10  C2'       -1.8550    0.0220    5.7380 C.3   700  08T700      0.0000
     11  O2'       -1.3900    0.7910    4.6860 O.3   700  08T700      0.0000
     12  C1'       -1.7330   -1.4060    5.4330 C.3   700  08T700      0.0000
     13  N1        -6.8160   -1.9720    4.7480 N.2   700  08T700      0.5000
     14  O1A       -2.6090   -1.6740   11.0710 O.2   700  08T700     -0.5000
     15  O1B       -1.2390   -3.8960   12.8650 O.3   700  08T700      0.0000
     16  F1         0.2080   -5.2620   13.9280 F     700  08T700      0.0000
     17  C2        -5.9820   -1.2340    4.0230 C.3   700  08T700      0.0000
     18  O2A       -0.1200   -1.9820   11.3590 O.3   700  08T700     -0.5000
     19  O2B       -2.7620   -5.5650   11.6690 O.3   700  08T700      0.0000
     20  F2         2.1130   -5.8380   12.5590 F     700  08T700      0.0000
     21  N3        -4.6840   -1.1880    4.3350 N.2   700  08T700      0.5000
     22  O3A       -1.5490   -3.8770   10.3580 O.3   700  08T700      0.0000
     23  O3B       -0.1390   -5.7310   11.5250 O.2   700  08T700      0.0000
     24  F3         0.5920   -7.5900   13.1720 F     700  08T700      0.0000
     25  C4        -4.1790   -1.8870    5.3750 C.2   700  08T700      0.0000
     26  C5        -5.0300   -2.6580    6.1290 C.2   700  08T700      0.0000
     27  C6        -6.3680   -2.6860    5.7900 C.2   700  08T700      0.0000
     28  N6        -7.2700   -3.4740    6.5540 N.pl3 700  08T700      0.5000
     29  N7        -4.2940   -3.2350    7.0740 N.2   700  08T700      0.0000
     30  C8        -3.0290   -2.8470    6.9370 C.3   700  08T700      0.0000
     31  N9        -2.9420   -2.0390    5.8910 N.pl3 700  08T700      0.5000
@<TRIPOS>BOND
     1    17    21    1
     2    17    13    1
     3    21    25    2
     4    11    10    1
     5    13    27    2
     6    25    31    1
     7    25    26    1
     8    12    10    1
     9    12    31    1
    10    12     7    1
    11    10     8    1
    12    27    26    1
    13    27    28    1
    14    31    30    1
    15    26    29    2
    16     7     6    1
    17    30    29    1
    18     8     6    1
    19     8     9    1
    20     6     4    1
    21     4     5    1
    22     5     1    1
    23    22     1    1
    24    22     2    1
    25     1    14    2
    26     1    18    1
    27    23     2    2
    28     2    19    1
    29     2    15    1
    30    20     3    1
    31     3    16    1
