@<TRIPOS>MOLECULE
3u61_ADP_B_1.pdb
 27 29 0 0 0
SMALL
GASTEIGER

@<TRIPOS>ATOM
      1  PB         2.4770   13.2320    7.6380 P.3   700  ADP700      0.5373
      2  O1B        3.9680   13.5570    7.6650 O.3   700  ADP700     -0.1143
      3  O2B        1.7910   13.7270    8.9120 O.3   700  ADP700     -0.1143
      4  O3B        2.1230   11.7790    7.3070 O.2   700  ADP700     -0.2221
      5  PA         1.4550   13.3160    4.8790 P.3   700  ADP700      0.2231
      6  O1A        2.6610   12.7150    4.1770 O.2   700  ADP700     -0.5169
      7  O2A        0.1810   12.5490    5.1950 O.3   700  ADP700     -0.4370
      8  O3A        1.8600   14.0100    6.3180 O.3   700  ADP700     -0.2261
      9  O5'        1.1410   14.5780    3.9140 O.3   700  ADP700     -0.3111
     10  C5'       -0.0600   14.7800    3.1680 C.3   700  ADP700      0.1813
     11  C4'        0.0090   16.0780    2.3550 C.3   700  ADP700      0.1821
     12  O4'        0.8230   17.0800    2.9940 O.3   700  ADP700     -0.3135
     13  C3'        0.6050   15.8340    0.9630 C.3   700  ADP700      0.2184
     14  O3'       -0.3940   15.6110   -0.0410 O.3   700  ADP700     -0.2174
     15  C2'        1.4800   17.0440    0.6780 C.3   700  ADP700      0.2570
     16  O2'        0.9110   18.0280   -0.2030 O.3   700  ADP700     -0.2130
     17  C1'        1.7290   17.6570    2.0470 C.3   700  ADP700      0.3186
     18  N9         3.0920   17.2120    2.3830 N.pl3 700  ADP700     -0.1439
     19  C8         3.4560   16.7700    3.5910 C.3   700  ADP700      0.3377
     20  N7         4.7720   16.4310    3.6080 N.2   700  ADP700     -0.2095
     21  C5         5.2600   16.6610    2.3840 C.2   700  ADP700      0.2526
     22  C6         6.5830   16.5060    1.7650 C.2   700  ADP700      0.4393
     23  N6         7.6030   16.0290    2.5360 N.pl3 700  ADP700      0.2180
     24  N1         6.7000   16.8540    0.4520 N.2   700  ADP700      0.0021
     25  C2         5.6520   17.3290   -0.2490 C.3   700  ADP700      0.5254
     26  N3         4.4210   17.4850    0.2710 N.2   700  ADP700     -0.0055
     27  C4         4.1590   17.1760    1.5670 C.2   700  ADP700      0.3518
@<TRIPOS>BOND
     1    25    26    1
     2    25    24    1
     3    16    15    1
     4    14    13    1
     5    26    27    2
     6    24    22    2
     7    15    13    1
     8    15    17    1
     9    13    11    1
    10    27    18    1
    11    27    21    1
    12    22    21    1
    13    22    23    1
    14    17    18    1
    15    17    12    1
    16    11    12    1
    17    11    10    1
    18    18    19    1
    19    21    20    2
    20    10     9    1
    21    19    20    1
    22     9     5    1
    23     6     5    2
    24     5     7    1
    25     5     8    1
    26     8     1    1
    27     4     1    2
    28     1     2    1
    29     1     3    1
