@<TRIPOS>MOLECULE
3u61_08T_C_1.pdb
 31 31 0 0 0
SMALL
GASTEIGER

@<TRIPOS>ATOM
      1  PA       -31.5980   25.3910   22.9670 P.3   700  08T700      0.0000
      2  PB       -29.0480   24.3560   23.6590 P.3   700  08T700      0.0000
      3 BE        -27.7640   22.3970   25.0920 Be    700  08T700      0.0000
      4  C5'      -33.6790   25.8110   24.3480 C.3   700  08T700      0.0000
      5  O5'      -32.5910   26.3140   23.5830 O.3   700  08T700      0.0000
      6  C4'      -34.7720   26.7250   24.7690 C.3   700  08T700      0.0000
      7  O4'      -34.3430   27.8380   25.4790 O.3   700  08T700      0.0000
      8  C3'      -35.4560   27.2560   23.6120 C.3   700  08T700      0.0000
      9  O3'      -36.8170   26.8530   23.7290 O.3   700  08T700      0.0000
     10  C2'      -35.3020   28.6410   23.6840 C.3   700  08T700      0.0000
     11  O2'      -36.5270   29.2230   24.1150 O.3   700  08T700      0.0000
     12  C1'      -34.3260   29.0110   24.7030 C.3   700  08T700      0.0000
     13  N1       -33.1410   32.6010   21.8020 N.2   700  08T700      0.5000
     14  O1A      -31.0200   25.9390   21.6430 O.2   700  08T700     -0.5000
     15  O1B      -29.2010   23.4320   22.5350 O.2   700  08T700      0.0000
     16  F1       -27.7010   21.6180   23.9880 F     700  08T700      0.0000
     17  C2       -34.3150   32.2220   22.2960 C.3   700  08T700      0.0000
     18  O2A      -32.3780   24.1300   22.7310 O.3   700  08T700     -0.5000
     19  O2B      -27.9460   25.4340   23.3030 O.3   700  08T700      0.0000
     20  F2       -28.1040   21.6160   26.2100 F     700  08T700      0.0000
     21  N3       -34.4260   31.1460   23.1090 N.2   700  08T700      0.5000
     22  O3A      -30.3760   25.1070   23.9710 O.3   700  08T700      0.0000
     23  O3B      -28.6910   23.5070   24.9850 O.3   700  08T700      0.0000
     24  F3       -26.4570   22.8410   25.2890 F     700  08T700      0.0000
     25  C4       -33.3900   30.3280   23.5300 C.2   700  08T700      0.0000
     26  C5       -32.1790   30.8100   22.9520 C.2   700  08T700      0.0000
     27  C6       -32.0720   31.9160   22.1180 C.2   700  08T700      0.0000
     28  N6       -30.7860   32.3100   21.6070 N.pl3 700  08T700      0.5000
     29  N7       -31.1420   30.0660   23.3280 N.2   700  08T700      0.0000
     30  C8       -31.6160   29.1100   24.1380 C.3   700  08T700      0.0000
     31  N9       -32.9440   29.1770   24.2530 N.pl3 700  08T700      0.5000
@<TRIPOS>BOND
     1    28    27    1
     2    14     1    2
     3    13    27    2
     4    13    17    1
     5    27    26    1
     6    17    21    1
     7    15     2    2
     8    18     1    1
     9    26    29    2
    10    26    25    1
    11     1     5    1
    12     1    22    1
    13    21    25    2
    14    19     2    1
    15    29    30    1
    16    25    31    1
    17     5     4    1
    18     8    10    1
    19     8     9    1
    20     8     6    1
    21     2    22    1
    22     2    23    1
    23    10    11    1
    24    10    12    1
    25    16     3    1
    26    30    31    1
    27    31    12    1
    28     4     6    1
    29    12     7    1
    30     6     7    1
    31     3    24    1
