@<TRIPOS>MOLECULE
3u67_ADP_A_1.pdb
 27 29 0 0 0
SMALL
GASTEIGER

@<TRIPOS>ATOM
      1  PB       -25.8090   10.8790  -20.9020 P.3   214  ADP214      0.5373
      2  O1B      -25.4010    9.4800  -20.4760 O.3   214  ADP214     -0.1143
      3  O2B      -25.3580   11.1830  -22.3280 O.2   214  ADP214     -0.2221
      4  O3B      -27.3470   11.1070  -20.7110 O.3   214  ADP214     -0.1143
      5  PA       -24.0580   11.8240  -18.8350 P.3   214  ADP214      0.2231
      6  O1A      -24.3050   10.5810  -18.0150 O.3   214  ADP214     -0.4370
      7  O2A      -23.9130   13.1170  -18.1040 O.2   214  ADP214     -0.5169
      8  O3A      -25.1250   11.9700  -19.9640 O.3   214  ADP214     -0.2261
      9  O5'      -22.6700   11.5540  -19.6030 O.3   214  ADP214     -0.3111
     10  C5'      -22.2850   12.6450  -20.4570 C.3   214  ADP214      0.1813
     11  C4'      -21.4330   12.0820  -21.6110 C.3   214  ADP214      0.1821
     12  O4'      -20.1330   11.7420  -21.1030 O.3   214  ADP214     -0.3135
     13  C3'      -22.0080   10.8300  -22.2640 C.3   214  ADP214      0.2184
     14  O3'      -22.9680   11.1760  -23.2690 O.3   214  ADP214     -0.2174
     15  C2'      -20.7290   10.2430  -22.9570 C.3   214  ADP214      0.2570
     16  O2'      -20.4030   10.9560  -24.1940 O.3   214  ADP214     -0.2130
     17  C1'      -19.6900   10.5970  -21.9110 C.3   214  ADP214      0.3186
     18  N9       -19.3230    9.4860  -21.0520 N.pl3 214  ADP214     -0.1439
     19  C8       -19.5020    9.4050  -19.6410 C.3   214  ADP214      0.3377
     20  N7       -18.9900    8.2340  -19.1820 N.2   214  ADP214     -0.2095
     21  C5       -18.5070    7.5690  -20.2910 C.2   214  ADP214      0.2526
     22  C6       -17.8600    6.2640  -20.4310 C.2   214  ADP214      0.4393
     23  N6       -17.6680    5.4410  -19.3730 N.pl3 214  ADP214      0.2180
     24  N1       -17.4500    5.8830  -21.6710 N.2   214  ADP214      0.0021
     25  C2       -17.6740    6.7180  -22.7460 C.3   214  ADP214      0.5254
     26  N3       -18.2910    7.9480  -22.7350 N.2   214  ADP214     -0.0055
     27  C4       -18.6750    8.3260  -21.4600 C.2   214  ADP214      0.3518
@<TRIPOS>BOND
     1    16    15    1
     2    14    13    1
     3    15    13    1
     4    15    17    1
     5    25    26    1
     6    25    24    1
     7    26    27    2
     8     3     1    2
     9    13    11    1
    10    17    12    1
    11    17    18    1
    12    24    22    2
    13    11    12    1
    14    11    10    1
    15    27    18    1
    16    27    21    1
    17    18    19    1
    18     1     4    1
    19     1     2    1
    20     1     8    1
    21    10     9    1
    22    22    21    1
    23    22    23    1
    24    21    20    2
    25     8     5    1
    26    19    20    1
    27     9     5    1
    28     5     7    2
    29     5     6    1
