@<TRIPOS>MOLECULE
3u6a_18P_A_1.pdb
 26 28 0 0 0
SMALL
GASTEIGER

@<TRIPOS>ATOM
      1  C          4.3730  -44.6220   29.3360 C.ar  386  18P386      0.1103
      2  N          3.8340  -44.0510   28.2360 N.ar  386  18P386     -0.2383
      3  O          2.8460  -42.6060   26.0700 O.2   386  18P386     -0.2663
      4 CL          6.3980  -45.2620   31.0640 Cl    386  18P386     -0.0806
      5  C01        6.9180  -45.1250   19.5480 C.3   386  18P386      0.1156
      6  N01        7.2500  -43.9240   20.3210 N.am  386  18P386     -0.2632
      7  O01        6.0390  -42.5680   18.9560 O.2   386  18P386     -0.2700
      8  C02        8.1400  -44.1400   21.4760 C.3   386  18P386      0.2205
      9  N02        9.8880  -42.9140   22.6990 N.pl3 386  18P386      0.2125
     10  C03        8.7730  -42.8760   21.9660 C.2   386  18P386      0.4076
     11  N03        8.3130  -41.6780   21.5910 N.2   386  18P386     -0.0562
     12  C04        7.0530  -41.4850   20.8710 C.3   386  18P386      0.2605
     13  N04        4.9930  -42.3360   25.2960 N.am  386  18P386     -0.1742
     14  C05        7.1990  -40.1710   20.0580 C.3   386  18P386      0.0677
     15  C06        6.7480  -42.7130   19.9710 C.2   386  18P386      0.2749
     16  C07        5.8620  -41.3510   21.8350 C.ar  386  18P386      0.0314
     17  C08        4.6880  -40.6780   21.4230 C.ar  386  18P386      0.0003
     18  C09        3.5980  -40.5480   22.2940 C.ar  386  18P386      0.0012
     19  C10        3.6610  -41.0790   23.5910 C.ar  386  18P386      0.0166
     20  C11        4.8280  -41.7500   24.0210 C.ar  386  18P386      0.0736
     21  C12        5.9160  -41.8770   23.1450 C.ar  386  18P386      0.0168
     22  C13        4.0700  -42.7120   26.1910 C.2   386  18P386      0.2867
     23  C14        4.6580  -43.3350   27.4210 C.ar  386  18P386      0.1365
     24  C15        6.0300  -43.1950   27.6630 C.ar  386  18P386      0.0247
     25  C16        6.5760  -43.7830   28.8030 C.ar  386  18P386      0.0147
     26  C17        5.7360  -44.5110   29.6580 C.ar  386  18P386      0.0768
@<TRIPOS>BOND
     1     7    15    2
     2     5     6    1
     3    15     6   am
     4    15    12    1
     5    14    12    1
     6     6     8    1
     7    12    11    1
     8    12    16    1
     9    17    16   ar
    10    17    18   ar
    11     8    10    1
    12    11    10    2
    13    16    21   ar
    14    10     9    1
    15    18    19   ar
    16    21    20   ar
    17    19    20   ar
    18    20    13    1
    19    13    22   am
    20     3    22    2
    21    22    23    1
    22    23    24   ar
    23    23     2   ar
    24    24    25   ar
    25     2     1   ar
    26    25    26   ar
    27     1    26   ar
    28    26     4    1
