@<TRIPOS>MOLECULE
3u6b_GDP_A_1.pdb
 28 30 0 0 0
SMALL
GASTEIGER

@<TRIPOS>ATOM
      1  PB       -39.2690  -24.9340   35.4400 P.3   402  GDP402      0.5373
      2  O1B      -40.4830  -25.6200   34.9970 O.3   402  GDP402     -0.1143
      3  O2B      -39.5750  -23.7830   36.3080 O.3   402  GDP402     -0.1143
      4  O3B      -38.3640  -24.5270   34.2950 O.2   402  GDP402     -0.2221
      5  O3A      -38.5000  -25.9900   36.3400 O.3   402  GDP402     -0.2261
      6  PA       -38.2550  -26.1350   37.8990 P.3   402  GDP402      0.2231
      7  O1A      -37.4410  -25.0080   38.3950 O.2   402  GDP402     -0.5169
      8  O2A      -39.5870  -26.2570   38.6570 O.3   402  GDP402     -0.4370
      9  O5'      -37.3870  -27.4470   37.9880 O.3   402  GDP402     -0.3111
     10  C5'      -37.9310  -28.7110   37.5550 C.3   402  GDP402      0.1813
     11  C4'      -37.2290  -29.8580   38.2480 C.3   402  GDP402      0.1799
     12  O4'      -35.8120  -29.8010   37.9620 O.3   402  GDP402     -0.3326
     13  C3'      -37.3590  -29.9280   39.7720 C.3   402  GDP402      0.2158
     14  O3'      -37.5310  -31.2790   40.1840 O.3   402  GDP402     -0.2175
     15  C2'      -36.0360  -29.3270   40.2520 C.3   402  GDP402      0.2310
     16  O2'      -35.6340  -29.7020   41.5620 O.3   402  GDP402     -0.2158
     17  C1'      -35.0790  -29.8220   39.1690 C.3   402  GDP402      0.2293
     18  N9       -33.8980  -28.9820   38.9830 N.pl3 402  GDP402     -0.2354
     19  C8       -33.8340  -27.6320   38.7570 C.3   402  GDP402      0.2246
     20  N7       -32.6140  -27.1870   38.6110 N.2   402  GDP402     -0.2322
     21  C5       -31.8230  -28.3150   38.7640 C.2   402  GDP402      0.2182
     22  C6       -30.3970  -28.4810   38.7640 C.1   402  GDP402      0.2372
     23  O6       -29.5490  -27.6110   38.5590 O.2   402  GDP402     -0.2069
     24  N1       -30.0230  -29.7960   38.9920 N.2   402  GDP402     -0.2485
     25  C2       -30.8830  -30.8430   39.1610 C.1   402  GDP402      0.2531
     26  N2       -30.3440  -32.0550   39.2880 N.pl3 402  GDP402     -0.0226
     27  N3       -32.2050  -30.7090   39.1670 N.2   402  GDP402     -0.3074
     28  C4       -32.6040  -29.4270   38.9790 C.2   402  GDP402      0.2300
@<TRIPOS>BOND
     1     4     1    2
     2     2     1    1
     3     1     3    1
     4     1     5    1
     5     5     6    1
     6    10     9    1
     7    10    11    1
     8     6     9    1
     9     6     7    2
    10     6     8    1
    11    12    11    1
    12    12    17    1
    13    11    13    1
    14    23    22    2
    15    20    19    1
    16    20    21    2
    17    19    18    1
    18    22    21    1
    19    22    24    2
    20    21    28    1
    21    28    18    1
    22    28    27    2
    23    18    17    1
    24    24    25    2
    25    25    27    2
    26    25    26    1
    27    17    15    1
    28    13    14    1
    29    13    15    1
    30    15    16    1
