@<TRIPOS>MOLECULE
3u6h_03X_A_1.pdb
 39 43 0 0 0
SMALL
GASTEIGER

@<TRIPOS>ATOM
      1  N1        23.4690    5.3680  -23.8500 N.ar    1  03X1       -0.2478
      2  N3        24.8570    0.7100  -12.1500 N.ar    1  03X1       -0.2657
      3  C4        20.0570    6.0750  -22.7430 C.3     1  03X1        0.0973
      4  C5        21.4070    5.7030  -22.7050 C.ar    1  03X1        0.0340
      5  C6        22.1700    5.7340  -23.8730 C.ar    1  03X1        0.0661
      6  C7        24.0650    4.9630  -22.7220 C.ar    1  03X1        0.1016
      7  C8        23.3510    4.9180  -21.5210 C.ar    1  03X1        0.0578
      8  C10       21.6760    4.6320  -19.2390 C.ar    1  03X1        0.1726
      9  C13       22.0870    5.4280  -18.1770 C.ar    1  03X1        0.1757
     10  C15       22.5960    3.4850  -16.8400 C.ar    1  03X1        0.0761
     11  C17       21.7170    3.2360  -19.1050 C.ar    1  03X1        0.0412
     12  C20       24.2570    0.3960  -13.3030 C.ar    1  03X1        0.0637
     13  C21       24.3470    2.5760  -13.0460 C.ar    1  03X1        0.2844
     14  C22       24.0060   -1.0200  -13.8340 C.3     1  03X1        0.0520
     15  C24       25.5010    2.5350  -10.9570 C.ar    1  03X1        0.0841
     16  C26       27.6730    3.2190  -10.0790 C.ar    1  03X1        0.0015
     17  C28       25.6540    3.5870   -8.8040 C.ar    1  03X1        0.0015
     18  C11       20.4320    7.0050  -27.4480 C.3     1  03X1        0.2521
     19  O3        19.6150    6.9250  -26.2600 O.2     1  03X1       -0.4726
     20  C2        20.2370    6.5170  -25.1090 C.2     1  03X1        0.1519
     21  C3        21.5820    6.1400  -25.0740 C.3     1  03X1        0.1122
     22  C1        19.4730    6.4810  -23.9470 C.2     1  03X1        0.1505
     23  O2        18.1610    6.8700  -24.0390 O.2     1  03X1       -0.4726
     24  C12       17.3670    6.8220  -22.8260 C.3     1  03X1        0.2521
     25  C9        21.9960    5.2830  -21.5050 C.ar    1  03X1        0.1445
     26  O1        21.2250    5.2650  -20.3720 O.3     1  03X1       -0.4514
     27  C14       22.5560    4.8690  -16.9910 C.ar    1  03X1        0.0494
     28  F1        22.0400    6.7580  -18.3060 F       1  03X1       -0.2009
     29  C16       22.1870    2.6710  -17.9060 C.ar    1  03X1        0.0199
     30  N2        23.0950    3.0270  -15.6790 N.am    1  03X1       -0.1752
     31  C18       23.2090    1.7580  -15.2730 C.2     1  03X1        0.2748
     32  O4        22.8570    0.7750  -15.9190 O.2     1  03X1       -0.2678
     33  C19       23.8940    1.5860  -13.9110 C.ar    1  03X1        0.1261
     34  O5        24.2280    3.7940  -13.2070 O.2     1  03X1       -0.2650
     35  C23       25.3870   -0.3120  -11.1710 C.3     1  03X1        0.1518
     36  N4        24.8900    1.9470  -11.9880 N.ar    1  03X1       -0.2144
     37  C25       26.8930    2.6440  -11.0770 C.ar    1  03X1        0.0192
     38  C27       27.0410    3.6950   -8.9360 C.ar    1  03X1        0.0001
     39  C29       24.8710    3.0090   -9.8080 C.ar    1  03X1        0.0192
@<TRIPOS>BOND
     1    18    19    1
     2    19    20    1
     3    20    21    1
     4    20    22    2
     5    21     5    1
     6    23    22    1
     7    23    24    1
     8    22     3    1
     9     5     1   ar
    10     5     4   ar
    11     1     6   ar
    12     3     4    1
    13     6     7   ar
    14     4    25   ar
    15     7    25   ar
    16    25    26    1
    17    26     8    1
    18     8    11   ar
    19     8     9   ar
    20    11    29   ar
    21    28     9    1
    22     9    27   ar
    23    29    10   ar
    24    27    10   ar
    25    10    30    1
    26    32    31    2
    27    30    31   am
    28    31    33    1
    29    33    12   ar
    30    33    13   ar
    31    14    12    1
    32    12     2   ar
    33    34    13    2
    34    13    36   ar
    35     2    36   ar
    36     2    35    1
    37    36    15    1
    38    37    15   ar
    39    37    16   ar
    40    15    39   ar
    41    16    38   ar
    42    39    17   ar
    43    38    17   ar
