@<TRIPOS>MOLECULE
3u6i_044_A_1.pdb
 40 44 0 0 0
SMALL
GASTEIGER

@<TRIPOS>ATOM
      1  CAA       20.3980   -6.2900   24.8500 C.ar    1  0441        0.1402
      2  CAB       23.5170   -4.8210   21.2380 C.ar    1  0441        0.0581
      3  CAC       24.2370   -4.8530   22.4350 C.ar    1  0441        0.1020
      4  NAD       23.6500   -5.2180   23.5710 N.ar    1  0441       -0.2435
      5  CAE       22.3430   -5.5570   23.6080 C.ar    1  0441        0.0873
      6  CAF       21.5740   -5.5500   22.4360 C.ar    1  0441        0.0524
      7  CAG       22.1620   -5.1740   21.2330 C.ar    1  0441        0.1483
      8  CAH       21.7520   -5.9300   24.8120 C.ar    1  0441        0.0561
      9  CAI       19.6360   -6.2660   23.6840 C.ar    1  0441        0.0371
     10  CAJ       20.2220   -5.9000   22.4750 C.ar    1  0441        0.0077
     11  OAK       21.3800   -5.1630   20.1030 O.3     1  0441       -0.4511
     12  CAL       21.8370   -4.5110   18.9920 C.ar    1  0441        0.1726
     13  CAM       21.8220   -3.1160   18.8650 C.ar    1  0441        0.0412
     14  CAN       22.3050   -5.2870   17.9440 C.ar    1  0441        0.1757
     15  CAO       22.7790   -4.6960   16.7760 C.ar    1  0441        0.0494
     16  CAP       22.7730   -3.3070   16.6280 C.ar    1  0441        0.0761
     17  CAQ       22.2990   -2.5250   17.6860 C.ar    1  0441        0.0199
     18  NAR       23.2770   -2.8070   15.4800 N.am    1  0441       -0.1752
     19  CAS       24.5030   -2.3620   12.8740 C.ar    1  0441        0.2844
     20  CAT       24.0470   -1.3510   13.7050 C.ar    1  0441        0.1261
     21  CAU       23.3260   -1.5340   15.0590 C.2     1  0441        0.2748
     22  OAV       22.9040   -0.5690   15.6970 O.2     1  0441       -0.2678
     23  NAW       25.0570   -0.5370   11.9200 N.ar    1  0441       -0.2652
     24  CAX       24.4490   -0.1830   13.0670 C.ar    1  0441        0.0637
     25  NAY       25.0850   -1.7820   11.8190 N.ar    1  0441       -0.2143
     26  OAZ       24.3570   -3.5710   13.0650 O.2     1  0441       -0.2650
     27  CBA       25.6800   -2.4600   10.8340 C.ar    1  0441        0.0841
     28  CBB       27.0680   -2.6220   10.9390 C.ar    1  0441        0.0192
     29  CBC       24.9990   -3.0030    9.7440 C.ar    1  0441        0.0192
     30  CBD       25.7200   -3.6950    8.7680 C.ar    1  0441        0.0015
     31  CBE       27.7860   -3.3130    9.9640 C.ar    1  0441        0.0015
     32  CBF       27.1020   -3.8510    8.8740 C.ar    1  0441        0.0001
     33  FBG       22.3070   -6.6240   18.0920 F       1  0441       -0.2009
     34  CBH       24.2090    1.2560   13.5580 C.3     1  0441        0.0520
     35  CBI       25.6720    0.4140   10.9450 C.3     1  0441        0.1583
     36  CBJ       24.7660    1.0690    9.9010 C.3     1  0441        0.1763
     37  CBK       25.5780    2.0810    9.0770 C.3     1  0441        0.0377
     38  OBL       24.2000    0.0810    9.0490 O.3     1  0441       -0.2210
     39  OBM       19.7840   -6.6550   26.0110 O.3     1  0441       -0.4714
     40  CBN       20.6820   -7.0740   27.0560 C.3     1  0441        0.2525
@<TRIPOS>BOND
     1    30    32   ar
     2    30    29   ar
     3    32    31   ar
     4    38    36    1
     5    37    36    1
     6    29    27   ar
     7    36    35    1
     8    31    28   ar
     9    27    28   ar
    10    27    25    1
    11    35    23    1
    12    25    23   ar
    13    25    19   ar
    14    23    24   ar
    15    19    26    2
    16    19    20   ar
    17    24    34    1
    18    24    20   ar
    19    20    21    1
    20    21    18   am
    21    21    22    2
    22    18    16    1
    23    16    15   ar
    24    16    17   ar
    25    15    14   ar
    26    17    13   ar
    27    14    33    1
    28    14    12   ar
    29    13    12   ar
    30    12    11    1
    31    11     7    1
    32     7     2   ar
    33     7     6   ar
    34     2     3   ar
    35     3     4   ar
    36     6    10   ar
    37     6     5   ar
    38    10     9   ar
    39     4     5   ar
    40     5     8   ar
    41     9     1   ar
    42     8     1   ar
    43     1    39    1
    44    39    40    1
