@<TRIPOS>MOLECULE
3u6j_03X_A_1.pdb
 39 43 0 0 0
SMALL
GASTEIGER

@<TRIPOS>ATOM
      1  N1         8.7040   -5.3390   21.7270 N.ar    1  03X1       -0.2478
      2  N3         4.7040   -0.1390   11.1590 N.ar    1  03X1       -0.2657
      3  C4         7.9670   -8.4990   20.0460 C.3     1  03X1        0.0973
      4  C5         8.2380   -7.1400   20.2290 C.ar    1  03X1        0.0340
      5  C6         8.4370   -6.6410   21.5230 C.ar    1  03X1        0.0661
      6  C7         8.7830   -4.4850   20.7170 C.ar    1  03X1        0.1016
      7  C8         8.5960   -4.9180   19.4070 C.ar    1  03X1        0.0578
      8  C10        7.7050   -5.7920   16.9630 C.ar    1  03X1        0.1726
      9  C13        8.6170   -5.1250   16.1360 C.ar    1  03X1        0.1757
     10  C15        6.7990   -3.8860   15.1380 C.ar    1  03X1        0.0761
     11  C17        6.3430   -5.5110   16.8720 C.ar    1  03X1        0.0412
     12  C20        5.7480   -0.9840   11.2170 C.ar    1  03X1        0.0637
     13  C21        4.6560   -0.9750   13.1010 C.ar    1  03X1        0.2844
     14  C22        6.7600   -1.2750   10.1050 C.3     1  03X1        0.0520
     15  C24        2.9630    0.5680   12.5450 C.ar    1  03X1        0.0841
     16  C26        1.7710    2.2650   13.7950 C.ar    1  03X1        0.0015
     17  C28        0.5730    0.9050   12.2130 C.ar    1  03X1        0.0015
     18  C11        8.6620   -9.3220   24.7240 C.3     1  03X1        0.2521
     19  O3         7.9970   -9.7220   23.5030 O.2     1  03X1       -0.4726
     20  C2         8.0880   -8.8570   22.4410 C.2     1  03X1        0.1519
     21  C3         8.3570   -7.4960   22.6170 C.3     1  03X1        0.1122
     22  C1         7.8850   -9.3560   21.1530 C.2     1  03X1        0.1505
     23  O2         7.6210  -10.6950   21.0240 O.2     1  03X1       -0.4726
     24  C12        7.1340  -11.1160   19.7370 C.3     1  03X1        0.2521
     25  C9         8.3200   -6.2640   19.1450 C.ar    1  03X1        0.1445
     26  O1         8.1400   -6.7250   17.8600 O.3     1  03X1       -0.4514
     27  C14        8.1670   -4.1640   15.2240 C.ar    1  03X1        0.0494
     28  F1         9.9350   -5.4020   16.2350 F       1  03X1       -0.2009
     29  C16        5.8980   -4.5610   15.9610 C.ar    1  03X1        0.0199
     30  N2         6.2690   -2.9880   14.3090 N.am    1  03X1       -0.1752
     31  C18        6.7000   -2.5790   13.1130 C.2     1  03X1        0.2748
     32  O4         7.7170   -2.9820   12.5480 O.2     1  03X1       -0.2678
     33  C19        5.7570   -1.5400   12.4820 C.ar    1  03X1        0.1261
     34  O5         4.3030   -1.2040   14.2560 O.2     1  03X1       -0.2650
     35  C23        4.3580    0.6650    9.9540 C.3     1  03X1        0.1518
     36  N4         4.0800   -0.1270   12.2420 N.ar    1  03X1       -0.2144
     37  C25        2.9570    1.5890   13.4950 C.ar    1  03X1        0.0192
     38  C27        0.5780    1.9290   13.1570 C.ar    1  03X1        0.0001
     39  C29        1.7590    0.2280   11.9190 C.ar    1  03X1        0.0192
@<TRIPOS>BOND
     1    35     2    1
     2    14    12    1
     3     2    12   ar
     4     2    36   ar
     5    12    33   ar
     6    39    17   ar
     7    39    15   ar
     8    17    38   ar
     9    36    15    1
    10    36    13   ar
    11    33    13   ar
    12    33    31    1
    13    15    37   ar
    14    32    31    2
    15    13    34    2
    16    31    30   am
    17    38    16   ar
    18    37    16   ar
    19    30    10    1
    20    10    27   ar
    21    10    29   ar
    22    27     9   ar
    23    29    11   ar
    24     9    28    1
    25     9     8   ar
    26    11     8   ar
    27     8    26    1
    28    26    25    1
    29    25     7   ar
    30    25     4   ar
    31     7     6   ar
    32    24    23    1
    33     3     4    1
    34     3    22    1
    35     4     5   ar
    36     6     1   ar
    37    23    22    1
    38    22    20    2
    39     5     1   ar
    40     5    21    1
    41    20    21    1
    42    20    19    1
    43    19    18    1
