@<TRIPOS>MOLECULE
3u6k_GDP_A_1.pdb
 28 30 0 0 0
SMALL
GASTEIGER

@<TRIPOS>ATOM
      1  PB        16.8480  -12.4590    1.4240 P.3   500  GDP500      0.5373
      2  O1B       16.2440  -13.1630    2.6710 O.3   500  GDP500     -0.1143
      3  O2B       16.0670  -11.1490    1.1850 O.2   500  GDP500     -0.2221
      4  O3B       18.3100  -12.2280    1.6370 O.3   500  GDP500     -0.1143
      5  O3A       16.5450  -13.4260    0.1980 O.3   500  GDP500     -0.2261
      6  PA        17.4080  -14.1870   -0.8820 P.3   500  GDP500      0.2231
      7  O1A       18.3670  -13.2970   -1.6270 O.2   500  GDP500     -0.5169
      8  O2A       18.1430  -15.3220   -0.1230 O.3   500  GDP500     -0.4370
      9  O5'       16.5170  -15.0310   -1.8470 O.3   500  GDP500     -0.3111
     10  C5'       15.1000  -15.2760   -1.5980 C.3   500  GDP500      0.1813
     11  C4'       14.5100  -16.2000   -2.7050 C.3   500  GDP500      0.1799
     12  O4'       14.0840  -15.4830   -3.8680 O.3   500  GDP500     -0.3326
     13  C3'       15.4870  -17.3110   -3.2140 C.3   500  GDP500      0.2158
     14  O3'       14.7560  -18.5080   -3.5450 O.3   500  GDP500     -0.2175
     15  C2'       16.0980  -16.6720   -4.4330 C.3   500  GDP500      0.2310
     16  O2'       16.5780  -17.5680   -5.4490 O.3   500  GDP500     -0.2158
     17  C1'       14.9880  -15.7760   -4.9310 C.3   500  GDP500      0.2293
     18  N9        15.7130  -14.6830   -5.5910 N.pl3 500  GDP500     -0.2354
     19  C8        16.1510  -13.3940   -5.1740 C.3   500  GDP500      0.2246
     20  N7        15.9110  -12.3770   -6.0320 N.2   500  GDP500     -0.2322
     21  C5        15.1840  -13.0340   -7.1380 C.2   500  GDP500      0.2182
     22  C6        14.6000  -12.5230   -8.4240 C.1   500  GDP500      0.2372
     23  O6        14.7580  -11.3490   -8.7420 O.2   500  GDP500     -0.2069
     24  N1        13.8970  -13.4270   -9.1860 N.2   500  GDP500     -0.2485
     25  C2        13.7120  -14.7560   -8.8690 C.1   500  GDP500      0.2531
     26  N2        13.0120  -15.5490   -9.6670 N.pl3 500  GDP500     -0.0226
     27  N3        14.2710  -15.2530   -7.7260 N.2   500  GDP500     -0.3074
     28  C4        15.0490  -14.3380   -6.8500 C.2   500  GDP500      0.2300
@<TRIPOS>BOND
     1    26    25    1
     2    24    25    2
     3    24    22    2
     4    25    27    2
     5    23    22    2
     6    22    21    1
     7    27    28    2
     8    21    28    1
     9    21    20    2
    10    28    18    1
    11    20    19    1
    12    18    19    1
    13    18    17    1
    14    16    15    1
    15    17    15    1
    16    17    12    1
    17    15    13    1
    18    12    11    1
    19    14    13    1
    20    13    11    1
    21    11    10    1
    22     9    10    1
    23     9     6    1
    24     7     6    2
    25     6     8    1
    26     6     5    1
    27     5     1    1
    28     3     1    2
    29     1     4    1
    30     1     2    1
