@<TRIPOS>MOLECULE
3u6t_KAN_A_1.pdb
 33 35 0 0 0
SMALL
GASTEIGER

@<TRIPOS>ATOM
      1  C1        -5.4240   22.0070   16.7560 C.3   4699  KAN4699     0.2695
      2  C2        -6.4470   21.9440   15.6290 C.3   4699  KAN4699     0.2406
      3  C3        -5.7780   22.1770   14.2800 C.3   4699  KAN4699     0.2198
      4  C4        -4.7630   23.3120   14.3640 C.3   4699  KAN4699     0.2133
      5  C5        -3.7460   23.0620   15.4710 C.3   4699  KAN4699     0.1696
      6  C6        -3.6640   24.2550   16.4160 C.3   4699  KAN4699     0.1415
      7  C7        -7.4970   21.6870   21.3980 C.3   4699  KAN4699     0.1231
      8  C8        -7.2240   22.8700   20.4780 C.3   4699  KAN4699     0.1680
      9  C9        -6.9650   22.4030   19.0500 C.3   4699  KAN4699     0.2088
     10  C10       -5.8200   21.3990   19.0030 C.3   4699  KAN4699     0.1680
     11  C11       -6.0930   20.2150   19.9240 C.3   4699  KAN4699     0.1231
     12  C12       -6.3520   20.6820   21.3510 C.3   4699  KAN4699     0.0432
     13  C13       -9.5080   23.1410   19.9420 C.3   4699  KAN4699     0.2684
     14  C14      -10.5720   23.0060   21.0260 C.3   4699  KAN4699     0.2279
     15  C15      -11.0620   21.5670   21.1320 C.3   4699  KAN4699     0.1599
     16  C16      -11.4100   21.0060   19.7580 C.3   4699  KAN4699     0.2017
     17  C17      -10.2750   21.2410   18.7680 C.3   4699  KAN4699     0.1824
     18  C18      -10.7270   22.1380   17.6220 C.3   4699  KAN4699     0.2142
     19  N1        -3.4090   23.7870   17.7640 N.3   4699  KAN4699    -0.1286
     20  N2        -4.7210   19.7310   20.2110 N.3   4699  KAN4699    -0.1302
     21  N3        -7.6680   22.1610   22.7580 N.3   4699  KAN4699    -0.1302
     22  N4       -12.2340   21.5180   21.9840 N.3   4699  KAN4699    -0.1272
     23  O5        -4.1120   21.8970   16.2080 O.3   4699  KAN4699    -0.3268
     24  O6        -7.7880   21.5570   15.3510 O.3   4699  KAN4699    -0.2149
     25  O7        -6.2280   21.1310   13.4170 O.3   4699  KAN4699    -0.2174
     26  O8        -4.0820   23.4350   13.1100 O.3   4699  KAN4699    -0.2176
     27  O9        -5.6510   20.9330   17.6660 O.3   4699  KAN4699    -0.3269
     28  O10       -5.9380   23.3700   18.9050 O.3   4699  KAN4699    -0.2178
     29  O11       -8.3440   23.7530   20.4930 O.3   4699  KAN4699    -0.3269
     30  O12       -9.1740   21.8490   19.4410 O.3   4699  KAN4699    -0.3257
     31  O13      -10.0260   23.4180   22.2840 O.3   4699  KAN4699    -0.2161
     32  O14      -11.6650   19.6010   19.8670 O.3   4699  KAN4699    -0.2188
     33  O15      -11.7600   23.0160   18.0820 O.3   4699  KAN4699    -0.2176
@<TRIPOS>BOND
     1    26     4    1
     2    25     3    1
     3     3     4    1
     4     3     2    1
     5     4     5    1
     6    24     2    1
     7     5    23    1
     8     5     6    1
     9     2     1    1
    10    23     1    1
    11     6    19    1
    12     1    27    1
    13    18    33    1
    14    18    17    1
    15    27    10    1
    16    17    30    1
    17    17    16    1
    18    28     9    1
    19    10     9    1
    20    10    11    1
    21     9     8    1
    22    30    13    1
    23    16    32    1
    24    16    15    1
    25    11    20    1
    26    11    12    1
    27    13    29    1
    28    13    14    1
    29     8    29    1
    30     8     7    1
    31    14    15    1
    32    14    31    1
    33    15    22    1
    34    12     7    1
    35     7    21    1
