@<TRIPOS>MOLECULE
3u6z_ADE_A_1.pdb
 10 11 0 0 0
SMALL
GASTEIGER

@<TRIPOS>ATOM
      1  N9       -17.0810  -14.4320   -8.3720 N.2   248  ADE248     -0.1914
      2  C8       -15.8110  -14.5520   -7.9200 C.3   248  ADE248      0.2618
      3  N7       -14.9930  -14.9860   -8.8850 N.2   248  ADE248     -0.2267
      4  C5       -15.7070  -15.1440  -10.0190 C.2   248  ADE248      0.2303
      5  C6       -15.4230  -15.5860  -11.3930 C.2   248  ADE248      0.4393
      6  N6       -14.1700  -15.9280  -11.7870 N.pl3 248  ADE248      0.2185
      7  N1       -16.4570  -15.6070  -12.2750 N.2   248  ADE248     -0.0265
      8  C2       -17.7240  -15.2630  -11.8810 C.3   248  ADE248      0.4008
      9  N3       -18.0150  -14.8840  -10.6270 N.2   248  ADE248     -0.1640
     10  C4       -17.0750  -14.8060   -9.6670 C.1   248  ADE248      0.0579
@<TRIPOS>BOND
     1     7     8    1
     2     7     5    2
     3     8     9    1
     4     6     5    1
     5     5     4    1
     6     9    10    2
     7     4    10    1
     8     4     3    2
     9    10     1    2
    10     3     2    1
    11     1     2    1
