@<TRIPOS>MOLECULE
3u70_ADE_A_1.pdb
 10 11 0 0 0
SMALL
GASTEIGER

@<TRIPOS>ATOM
      1  N9        -3.9580  -21.9740  -18.1380 N.2   248  ADE248     -0.1914
      2  C8        -4.7090  -20.9680  -18.6340 C.3   248  ADE248      0.2618
      3  N7        -5.5070  -20.5060  -17.6550 N.2   248  ADE248     -0.2267
      4  C5        -5.2740  -21.1860  -16.5160 C.2   248  ADE248      0.2303
      5  C6        -5.8120  -21.1600  -15.1410 C.2   248  ADE248      0.4393
      6  N6        -6.7940  -20.2410  -14.8130 N.pl3 248  ADE248      0.2185
      7  N1        -5.2850  -22.0430  -14.2420 N.2   248  ADE248     -0.0265
      8  C2        -4.3440  -22.9580  -14.6030 C.3   248  ADE248      0.4008
      9  N3        -3.8300  -23.0210  -15.8700 N.2   248  ADE248     -0.1640
     10  C4        -4.2550  -22.1810  -16.8410 C.1   248  ADE248      0.0579
@<TRIPOS>BOND
     1     2     1    1
     2     2     3    1
     3     1    10    2
     4     3     4    2
     5    10     4    1
     6    10     9    2
     7     4     5    1
     8     9     8    1
     9     5     6    1
    10     5     7    2
    11     8     7    1
