@<TRIPOS>MOLECULE
3u72_ISZ_A_1.pdb
 10 10 0 0 0
SMALL
GASTEIGER

@<TRIPOS>ATOM
      1  C2       -18.5320   14.5470   11.8400 C.ar  4611  ISZ4611     0.0253
      2  C4       -19.6630   14.8540   11.0920 C.ar  4611  ISZ4611     0.0990
      3  N1       -20.8860   14.5660   11.5560 N.ar  4611  ISZ4611    -0.2423
      4  C5       -21.0560   13.9780   12.7470 C.ar  4611  ISZ4611     0.0990
      5  C3       -19.9610   13.6490   13.5370 C.ar  4611  ISZ4611     0.0253
      6  C1       -18.6830   13.9370   13.0780 C.ar  4611  ISZ4611     0.0600
      7  C6       -17.4810   13.5940   13.9080 C.2   4611  ISZ4611     0.2876
      8  O1       -16.7870   12.6420   13.5900 O.2   4611  ISZ4611    -0.2664
      9  N2       -17.2030   14.3400   14.9730 N.am  4611  ISZ4611    -0.0546
     10  N3       -16.7750   13.8080   16.0080 N.2   4611  ISZ4611    -0.0328
@<TRIPOS>BOND
     1     2     3   ar
     2     2     1   ar
     3     3     4   ar
     4     1     6   ar
     5     4     5   ar
     6     6     5   ar
     7     6     7    1
     8     8     7    2
     9     7     9    1
    10     9    10    2
