@<TRIPOS>MOLECULE
3u72_III_B_1.pdb
 44 44 0 0 0
SMALL
GASTEIGER

@<TRIPOS>ATOM
      1  N        -26.7520    7.9170   34.0480 N.3   681  LEU681     -0.1231
      2  CA       -25.9540    8.8950   33.3200 C.3   681  LEU681      0.1693
      3  C        -25.1790    9.8660   34.2110 C.2   681  LEU681      0.2592
      4  O        -25.5590   11.0310   34.3600 O.2   681  LEU681     -0.2718
      5  CB       -26.8310    9.6820   32.3310 C.3   681  LEU681      0.0284
      6  CG       -27.1120    9.1140   30.9350 C.3   681  LEU681      0.0019
      7  CD1      -27.9480    7.8450   31.0220 C.3   681  LEU681      0.0001
      8  CD2      -27.8450   10.1630   30.1160 C.3   681  LEU681      0.0001
      9  N        -24.0880    9.3700   34.7950 N.am  682  GLU682     -0.1966
     10  CA       -23.2110   10.1710   35.6460 C.3   682  GLU682      0.1733
     11  C        -21.9490    9.4250   36.0930 C.2   682  GLU682      0.2616
     12  O        -20.8400    9.7780   35.6900 O.2   682  GLU682     -0.2715
     13  CB       -23.9800   10.7180   36.8660 C.3   682  GLU682      0.0429
     14  CG       -24.8490    9.7260   37.6380 C.3   682  GLU682      0.1163
     15  CD       -25.9090   10.4460   38.4660 C.2   682  GLU682      0.3649
     16  OE1      -26.2850   11.5660   38.0590 O.co2 682  GLU682     -0.2457
     17  OE2      -26.3770    9.9070   39.4970 O.co2 682  GLU682     -0.2457
     18  N        -22.1180    8.3850   36.9020 N.am  683  ALA683     -0.1963
     19  CA       -20.9860    7.6200   37.4150 C.3   683  ALA683      0.1728
     20  C        -20.1480    6.8880   36.3610 C.2   683  ALA683      0.2616
     21  O        -20.6740    6.3650   35.3780 O.2   683  ALA683     -0.2715
     22  CB       -21.4790    6.6190   38.4620 C.3   683  ALA683      0.0334
     23  N        -18.8340    6.8720   36.5720 N.am  684  CYS684     -0.1954
     24  CA       -17.9240    6.1560   35.6870 C.3   684  CYS684      0.1843
     25  C        -18.2990    4.6960   35.9080 C.2   684  CYS684      0.2625
     26  O        -18.2910    4.2120   37.0400 O.2   684  CYS684     -0.2714
     27  CB       -16.4720    6.4070   36.0970 C.3   684  CYS684      0.0997
     28  SG       -15.2540    5.2320   35.4210 S.3   684  CYS684     -0.0797
     29  N        -18.6280    4.0010   34.8260 N.am  685  ALA685     -0.1963
     30  CA       -19.0610    2.6080   34.9030 C.3   685  ALA685      0.1728
     31  C        -18.0340    1.5800   35.3700 C.2   685  ALA685      0.2616
     32  O        -18.1250    0.4060   35.0090 O.2   685  ALA685     -0.2715
     33  CB       -19.6350    2.1820   33.5690 C.3   685  ALA685      0.0334
     34  N        -17.0640    2.0230   36.1630 N.am  686  PHE686     -0.1974
     35  CA       -16.0410    1.1520   36.7260 C.3   686  PHE686      0.1639
     36  C        -15.7890    1.7210   38.1200 C.2   686  PHE686      0.2290
     37  O        -14.6690    1.6760   38.6240 O.2   686  PHE686     -0.2864
     38  CB       -14.7340    1.1990   35.9190 C.3   686  PHE686      0.0560
     39  CG       -14.8680    0.7420   34.4890 C.ar  686  PHE686     -0.0200
     40  CD1      -15.1270   -0.5900   34.1860 C.ar  686  PHE686     -0.0042
     41  CD2      -14.7140    1.6480   33.4430 C.ar  686  PHE686     -0.0042
     42  CE1      -15.2290   -1.0120   32.8600 C.ar  686  PHE686     -0.0003
     43  CE2      -14.8150    1.2360   32.1130 C.ar  686  PHE686     -0.0003
     44  CZ       -15.0730   -0.0970   31.8220 C.ar  686  PHE686     -0.0000
@<TRIPOS>BOND
     1     8     6    1
     2     6     7    1
     3     6     5    1
     4    44    43   ar
     5    44    42   ar
     6    43    41   ar
     7     5     2    1
     8    42    40   ar
     9     2     1    1
    10     2     3    1
    11    41    39   ar
    12    33    30    1
    13    40    39   ar
    14     3     4    2
    15     3     9   am
    16    39    38    1
    17     9    10    1
    18    29    30    1
    19    29    25   am
    20    30    31    1
    21    32    31    2
    22    31    34   am
    23    21    20    2
    24    28    27    1
    25    10    11    1
    26    10    13    1
    27    24    25    1
    28    24    27    1
    29    24    23    1
    30    12    11    2
    31    25    26    2
    32    38    35    1
    33    11    18   am
    34    34    35    1
    35    20    23   am
    36    20    19    1
    37    35    36    1
    38    13    14    1
    39    18    19    1
    40    19    22    1
    41    14    15    1
    42    16    15   ar
    43    36    37    2
    44    15    17   ar
