@<TRIPOS>MOLECULE
3u75_FRU_A_1.pdb
 11 11 0 0 0
SMALL
GASTEIGER

@<TRIPOS>ATOM
      1  C1         1.4980  -18.0120   -6.8480 C.3   1000  FRU1000     0.2141
      2  C2         1.7490  -19.4920   -6.5580 C.3   1000  FRU1000     0.1810
      3  C3         3.0780  -19.8560   -7.1850 C.3   1000  FRU1000     0.2141
      4  C4         3.0400  -21.3530   -7.2540 C.3   1000  FRU1000     0.2141
      5  C5         1.5670  -21.6160   -7.5590 C.3   1000  FRU1000     0.1810
      6  C6         1.0440  -22.7760   -6.7240 C.3   1000  FRU1000     0.2141
      7  O1         0.4180  -17.5330   -6.0570 O.3   1000  FRU1000    -0.2176
      8  O3         4.1360  -19.3500   -6.4170 O.3   1000  FRU1000    -0.2176
      9  O4         3.8510  -21.7370   -8.3540 O.3   1000  FRU1000    -0.2176
     10  O5         0.8730  -20.3900   -7.2690 O.3   1000  FRU1000    -0.3480
     11  O6        -0.2820  -23.1820   -7.0870 O.3   1000  FRU1000    -0.2176
@<TRIPOS>BOND
     1     9     4    1
     2     5    10    1
     3     5     4    1
     4     5     6    1
     5    10     2    1
     6     4     3    1
     7     3     2    1
     8     3     8    1
     9    11     6    1
    10     1     2    1
    11     1     7    1
