@<TRIPOS>MOLECULE
3u75_GLC_A_1.pdb
 12 12 0 0 0
SMALL
GASTEIGER

@<TRIPOS>ATOM
      1  C1        -5.8850  -22.8520   -0.7890 C.3   1004  GLC1004     0.3024
      2  C2        -7.0980  -23.7770   -0.8060 C.3   1004  GLC1004     0.2434
      3  C3        -7.5740  -23.8170    0.6410 C.3   1004  GLC1004     0.2199
      4  C4        -6.5190  -24.5390    1.4840 C.3   1004  GLC1004     0.2144
      5  C5        -5.1030  -23.9960    1.2700 C.3   1004  GLC1004     0.1836
      6  C6        -4.1150  -25.1350    1.4970 C.3   1004  GLC1004     0.2142
      7  O1        -6.3140  -21.6350   -0.1840 O.3   1004  GLC1004    -0.1869
      8  O2        -8.1130  -23.2380   -1.6650 O.3   1004  GLC1004    -0.2148
      9  O3        -8.8960  -24.3710    0.7670 O.3   1004  GLC1004    -0.2174
     10  O4        -6.7970  -24.3640    2.8670 O.3   1004  GLC1004    -0.2176
     11  O5        -4.8180  -23.4460   -0.0330 O.3   1004  GLC1004    -0.3236
     12  O6        -3.0150  -24.5690    2.2030 O.3   1004  GLC1004    -0.2176
@<TRIPOS>BOND
     1     8     2    1
     2     2     1    1
     3     2     3    1
     4     1     7    1
     5     1    11    1
     6    11     5    1
     7     3     9    1
     8     3     4    1
     9     5     4    1
    10     5     6    1
    11     4    10    1
    12     6    12    1
