@<TRIPOS>MOLECULE
3u78_AKG_A_1.pdb
 10 9 0 0 0
SMALL
GASTEIGER

@<TRIPOS>ATOM
      1  C1       -41.3310   22.7700    9.7180 C.2   701  AKG701      0.4219
      2  O1       -40.8560   23.8500   10.1720 O.co2 701  AKG701     -0.2373
      3  O2       -40.9300   21.6770   10.2090 O.co2 701  AKG701     -0.2373
      4  C2       -42.3720   22.7570    8.6300 C.2   701  AKG701      0.2526
      5  O5       -43.1700   23.6870    8.5140 O.2   701  AKG701     -0.2843
      6  C3       -42.7260   21.4450    8.0040 C.3   701  AKG701      0.0881
      7  C4       -43.7330   20.7960    8.8950 C.3   701  AKG701      0.1224
      8  C5       -44.1510   19.4510    8.3900 C.2   701  AKG701      0.3653
      9  O3       -43.8860   19.0920    7.2140 O.co2 701  AKG701     -0.2456
     10  O4       -44.8800   18.7130    9.1110 O.co2 701  AKG701     -0.2456
@<TRIPOS>BOND
     1     9     8   ar
     2     6     4    1
     3     6     7    1
     4     8     7    1
     5     8    10   ar
     6     5     4    2
     7     4     1    1
     8     1     2   ar
     9     1     3   ar
