@<TRIPOS>MOLECULE
3u78_E67_A_1.pdb
 27 28 0 0 0
SMALL
GASTEIGER

@<TRIPOS>ATOM
      1  N1       -45.8050   23.9650   21.4060 N.2   707  E67707     -0.3124
      2  C2       -44.7900   24.7990   21.0350 C.1   707  E67707      0.2208
      3  N3       -44.1420   24.6130   19.8990 N.2   707  E67707     -0.3306
      4  C4       -44.4890   23.6080   19.0760 C.2   707  E67707      0.1377
      5  C5       -45.5400   22.7400   19.4190 C.3   707  E67707      0.1492
      6  C6       -46.2090   22.9500   20.6390 C.2   707  E67707      0.2205
      7  CAA      -44.1730   22.3900   17.0380 C.2   707  E67707      0.1742
      8  CAB      -45.2200   21.5150   17.3510 C.2   707  E67707      0.1691
      9  CAC      -45.9070   21.6790   18.5470 C.2   707  E67707      0.0292
     10  CAF      -43.8110   23.4420   17.9060 C.2   707  E67707      0.0693
     11  OAK      -43.4670   22.3160   15.8520 O.2   707  E67707     -0.4723
     12  OAL      -45.5730   20.4920   16.4670 O.2   707  E67707     -0.4687
     13  CAM      -46.8410   20.4610   15.9320 C.3   707  E67707      0.2526
     14  NAN      -47.2920   22.0990   21.0800 N.pl3 707  E67707     -0.0962
     15  NAU      -44.3440   25.8400   21.9640 N.pl3 707  E67707     -0.1517
     16  CAV      -43.8420   26.3210   23.2600 C.3   707  E67707      0.1277
     17  CAW      -43.6070   25.2150   24.3050 C.3   707  E67707      0.0416
     18  CAX      -42.8620   23.9780   23.9210 C.3   707  E67707      0.0740
     19  NAY      -43.4440   23.0170   22.9990 N.3   707  E67707     -0.2703
     20  CAZ      -43.7940   21.7690   23.7120 C.3   707  E67707      0.0897
     21  CBA      -42.5320   22.6980   21.9490 C.3   707  E67707      0.0897
     22  CBB      -43.4290   23.4970   15.0880 C.3   707  E67707      0.2059
     23  CBC      -42.0560   24.1540   14.7460 C.3   707  E67707      0.0520
     24  CBD      -41.0550   23.3850   13.8860 C.3   707  E67707      0.0313
     25  CBE      -39.8970   24.2270   13.3660 C.2   707  E67707     -0.0066
     26  CBF      -40.0880   25.7410   13.4530 C.2   707  E67707      0.1012
     27  NBG      -38.9990   26.6230   13.0240 N.pl3 707  E67707     -0.1270
@<TRIPOS>BOND
     1    27    26    1
     2    25    26    2
     3    25    24    1
     4    24    23    1
     5    23    22    1
     6    22    11    1
     7    11     7    1
     8    13    12    1
     9    12     8    1
    10     7     8    1
    11     7    10    2
    12     8     9    2
    13    10     4    1
    14     9     5    1
    15     4     5    1
    16     4     3    2
    17     5     6    1
    18     3     2    2
    19     6    14    1
    20     6     1    2
    21     2     1    2
    22     2    15    1
    23    21    19    1
    24    15    16    1
    25    19    20    1
    26    19    18    1
    27    16    17    1
    28    18    17    1
