@<TRIPOS>MOLECULE
3u7b_MAN_D_1.pdb
 11 11 0 0 0
SMALL
GASTEIGER

@<TRIPOS>ATOM
      1  C1        53.9250   47.7810  107.3560 C.3   601  MAN601      0.1777
      2  C2        54.5950   47.8460  108.7310 C.3   601  MAN601      0.2141
      3  C3        55.0510   49.2670  109.0830 C.3   601  MAN601      0.2173
      4  C4        55.6990   50.0030  107.9060 C.3   601  MAN601      0.2142
      5  C5        54.9610   49.7660  106.5810 C.3   601  MAN601      0.1810
      6  C6        55.7050   50.3640  105.3830 C.3   601  MAN601      0.2141
      7  O2        55.6930   46.9600  108.7550 O.3   601  MAN601     -0.2176
      8  O3        55.9470   49.2290  110.1770 O.3   601  MAN601     -0.2175
      9  O4        55.6990   51.3810  108.1930 O.3   601  MAN601     -0.2176
     10  O5        54.7490   48.3800  106.3750 O.3   601  MAN601     -0.3481
     11  O6        56.8850   49.6440  105.0870 O.3   601  MAN601     -0.2176
@<TRIPOS>BOND
     1    11     6    1
     2     6     5    1
     3    10     5    1
     4    10     1    1
     5     5     4    1
     6     1     2    1
     7     4     9    1
     8     4     3    1
     9     2     7    1
    10     2     3    1
    11     3     8    1
