@<TRIPOS>MOLECULE
3u7b_BMA_B_1.pdb
 11 11 0 0 0
SMALL
GASTEIGER

@<TRIPOS>ATOM
      1  C1        12.3580   12.9120    9.0210 C.3   600  BMA600      0.1777
      2  C2        11.2490   13.5750    8.2040 C.3   600  BMA600      0.2141
      3  C3        10.0160   13.8860    9.0670 C.3   600  BMA600      0.2173
      4  C4         9.6050   12.7390   10.0030 C.3   600  BMA600      0.2142
      5  C5        10.8040   11.9980   10.6180 C.3   600  BMA600      0.1810
      6  C6        10.3680   10.6820   11.2660 C.3   600  BMA600      0.2141
      7  O2        10.8970   12.7210    7.1090 O.3   600  BMA600     -0.2176
      8  O3         8.8950   14.2680    8.2440 O.3   600  BMA600     -0.2175
      9  O4         8.8080   13.3010   11.0560 O.3   600  BMA600     -0.2176
     10  O5        11.8360   11.7370    9.6560 O.3   600  BMA600     -0.3481
     11  O6        10.2610    9.6310   10.2950 O.3   600  BMA600     -0.2176
@<TRIPOS>BOND
     1     7     2    1
     2     2     1    1
     3     2     3    1
     4     8     3    1
     5     1    10    1
     6     3     4    1
     7    10     5    1
     8     4     5    1
     9     4     9    1
    10    11     6    1
    11     5     6    1
