@<TRIPOS>MOLECULE
3u7g_NUC_X_1.pdb
 41 45 0 0 0
SMALL
GASTEIGER

@<TRIPOS>ATOM
      1  P        -16.6700   -3.1350  -31.0070 P.3   401  DT401       0.3942
      2  OP1      -16.6840   -2.1170  -29.9210 O.3   401  DT401      -0.1425
      3  OP2      -17.9170   -3.8400  -31.4020 O.3   401  DT401      -0.1425
      4  O5'      -16.0550   -2.4720  -32.3390 O.3   401  DT401      -0.2926
      5  C5'      -15.9940   -3.2020  -33.5620 C.3   401  DT401       0.1828
      6  C4'      -14.5530   -3.4200  -33.9860 C.3   401  DT401       0.1745
      7  O4'      -14.3110   -4.8340  -34.2180 O.3   401  DT401      -0.3340
      8  C3'      -14.1850   -2.7260  -35.2930 C.3   401  DT401       0.1556
      9  O3'      -12.7870   -2.4270  -35.3090 O.3   401  DT401      -0.3139
     10  C2'      -14.5420   -3.7990  -36.3220 C.3   401  DT401       0.0845
     11  C1'      -14.0420   -5.0480  -35.5940 C.3   401  DT401       0.2089
     12  N1       -14.6960   -6.3240  -36.0290 N.am  401  DT401      -0.1794
     13  C2       -13.9060   -7.4090  -36.3600 C.1   401  DT401       0.2844
     14  O2       -12.6840   -7.4020  -36.3170 O.2   401  DT401      -0.1918
     15  N3       -14.6140   -8.5240  -36.7390 N.2   401  DT401      -0.2455
     16  C4       -15.9930   -8.6610  -36.8230 C.1   401  DT401       0.2134
     17  O4       -16.5340   -9.7030  -37.1830 O.2   401  DT401      -0.2088
     18  C5       -16.7540   -7.4920  -36.4640 C.2   401  DT401       0.0891
     19  C7       -18.2530   -7.5280  -36.5240 C.3   401  DT401       0.0462
     20  C6       -16.0800   -6.3960  -36.0890 C.2   401  DT401       0.0877
     21  P        -12.2340   -1.1900  -36.1660 P.3   402  DA402       0.2141
     22  OP1      -10.8720   -0.9050  -35.7150 O.3   402  DA402      -0.4373
     23  OP2      -13.2700   -0.1380  -36.1750 O.2   402  DA402      -0.5172
     24  O5'      -12.2020   -1.7570  -37.6840 O.3   402  DA402      -0.3114
     25  C5'      -11.3380   -2.7820  -38.1670 C.3   402  DA402       0.1812
     26  C4'      -11.0140   -2.5720  -39.6550 C.3   402  DA402       0.1795
     27  O4'      -12.2000   -2.8170  -40.4680 O.3   402  DA402      -0.3155
     28  C3'      -10.4940   -1.1960  -40.0830 C.3   402  DA402       0.1883
     29  O3'       -9.5800   -1.4070  -41.1780 O.3   402  DA402      -0.2202
     30  C2'      -11.7770   -0.4780  -40.5230 C.3   402  DA402       0.1151
     31  C1'      -12.6390   -1.6190  -41.0940 C.3   402  DA402       0.2873
     32  N9       -14.1000   -1.4830  -40.8990 N.pl3 402  DA402      -0.1460
     33  C8       -14.7700   -1.4630  -39.7060 C.3   402  DA402       0.3377
     34  N7       -16.0750   -1.3380  -39.8300 N.2   402  DA402      -0.2095
     35  C5       -16.2900   -1.2730  -41.2050 C.2   402  DA402       0.2526
     36  C6       -17.4700   -1.1380  -41.9820 C.2   402  DA402       0.4393
     37  N6       -18.6970   -1.0340  -41.4460 N.pl3 402  DA402       0.2180
     38  N1       -17.3450   -1.1050  -43.3240 N.2   402  DA402       0.0021
     39  C2       -16.1090   -1.2010  -43.8410 C.3   402  DA402       0.5254
     40  N3       -14.9330   -1.3330  -43.2060 N.2   402  DA402      -0.0055
     41  C4       -15.0870   -1.3650  -41.8750 C.2   402  DA402       0.3518
@<TRIPOS>BOND
     1    39    38    1
     2    39    40    1
     3    38    36    2
     4    40    41    2
     5    36    37    1
     6    36    35    1
     7    41    35    1
     8    41    32    1
     9    35    34    2
    10    29    28    1
    11    31    32    1
    12    31    30    1
    13    31    27    1
    14    32    33    1
    15    30    28    1
    16    27    26    1
    17    28    26    1
    18    34    33    1
    19    26    25    1
    20    25    24    1
    21    24    21    1
    22    17    16    2
    23    16    15    2
    24    16    18    1
    25    15    13    2
    26    19    18    1
    27    18    20    2
    28    13    14    2
    29    13    12   am
    30    10    11    1
    31    10     8    1
    32    23    21    2
    33    21    22    1
    34    21     9    1
    35    20    12    1
    36    12    11    1
    37    11     7    1
    38     9     8    1
    39     8     6    1
    40     7     6    1
    41     6     5    1
    42     5     4    1
    43     4     1    1
    44     3     1    1
    45     1     2    1
