@<TRIPOS>MOLECULE
3u7h_NUC_X_1.pdb
 28 30 0 0 0
SMALL
GASTEIGER

@<TRIPOS>ATOM
      1  O5'       20.4300  -17.2130   40.8350 O.3   526  DT526      -0.2176
      2  C5'       20.3500  -18.5300   40.2950 C.3   526  DT526       0.2139
      3  C4'       18.9640  -19.1140   40.5110 C.3   526  DT526       0.1755
      4  O4'       19.0380  -20.2690   41.3900 O.3   526  DT526      -0.3510
      5  C3'       17.9570  -18.1840   41.1680 C.3   526  DT526       0.1539
      6  O3'       16.6640  -18.6260   40.8070 O.3   526  DT526      -0.3139
      7  C2'       18.2260  -18.4450   42.6480 C.3   526  DT526       0.0646
      8  C1'       18.5070  -19.9450   42.6620 C.3   526  DT526       0.1449
      9  P         15.4940  -17.5680   40.4850 P.3   527  DT527       0.2141
     10  OP1       14.3310  -18.3300   39.9890 O.3   527  DT527      -0.4373
     11  OP2       16.0820  -16.4530   39.7010 O.2   527  DT527      -0.5172
     12  O5'       15.1180  -16.9670   41.9210 O.3   527  DT527      -0.3114
     13  C5'       14.4900  -17.7910   42.8990 C.3   527  DT527       0.1812
     14  C4'       13.7110  -16.9310   43.8800 C.3   527  DT527       0.1773
     15  O4'       14.6510  -16.2480   44.7500 O.3   527  DT527      -0.3339
     16  C3'       12.7870  -15.8620   43.2660 C.3   527  DT527       0.1857
     17  O3'       11.6170  -15.8730   44.0510 O.3   527  DT527      -0.2203
     18  C2'       13.6000  -14.5730   43.4150 C.3   527  DT527       0.0874
     19  C1'       14.4500  -14.8450   44.6550 C.3   527  DT527       0.2090
     20  N1        15.7870  -14.1590   44.6570 N.am  527  DT527      -0.1794
     21  C2        16.0290  -13.1910   45.6100 C.1   527  DT527       0.2844
     22  O2        15.2070  -12.8580   46.4470 O.2   527  DT527      -0.1918
     23  N3        17.2770  -12.6240   45.5410 N.2   527  DT527      -0.2455
     24  C4        18.2820  -12.9250   44.6380 C.1   527  DT527       0.2134
     25  O4        19.3720  -12.3550   44.6570 O.2   527  DT527      -0.2088
     26  C5        17.9570  -13.9450   43.6680 C.2   527  DT527       0.0891
     27  C7        18.9660  -14.3530   42.6320 C.3   527  DT527       0.0462
     28  C6        16.7420  -14.5060   43.7240 C.2   527  DT527       0.0877
@<TRIPOS>BOND
     1    11     9    2
     2    10     9    1
     3     2     3    1
     4     2     1    1
     5     9     6    1
     6     9    12    1
     7     3     5    1
     8     3     4    1
     9     6     5    1
    10     5     7    1
    11     4     8    1
    12    12    13    1
    13    27    26    1
    14     7     8    1
    15    13    14    1
    16    16    18    1
    17    16    14    1
    18    16    17    1
    19    18    19    1
    20    26    28    2
    21    26    24    1
    22    28    20    1
    23    14    15    1
    24    24    25    2
    25    24    23    2
    26    19    20    1
    27    19    15    1
    28    20    21   am
    29    23    21    2
    30    21    22    2
