@<TRIPOS>MOLECULE
3u7k_MDB_A_1.pdb
 31 32 0 0 0
SMALL
GASTEIGER

@<TRIPOS>ATOM
      1  C        -16.7390   84.8790   68.7910 C.2   301  MDB301      0.2458
      2  N        -15.8440   86.3270   70.3670 N.am  301  MDB301     -0.1793
      3  O        -15.9900   85.4150   67.9820 O.2   301  MDB301     -0.2730
      4  CA       -17.0930   85.6700   70.0330 C.3   301  MDB301      0.1727
      5  CB       -18.2490   86.6640   69.8370 C.3   301  MDB301      0.0270
      6  CAA      -18.5860   87.3400   71.1680 C.3   301  MDB301      0.0022
      7  CAC      -17.9000   87.7850   68.8540 C.3   301  MDB301      0.0022
      8  CAD      -19.5090   85.9450   69.3590 C.3   301  MDB301      0.0022
      9  CAG      -15.1350   86.0770   71.4660 C.2   301  MDB301      0.3440
     10  OAH      -15.5220   85.2850   72.3130 O.2   301  MDB301     -0.2488
     11  NAI      -13.9970   86.7650   71.5590 N.am  301  MDB301     -0.1579
     12  CAJ      -13.0740   86.7280   72.5670 C.ar  301  MDB301      0.1088
     13  CAK      -13.2220   85.9280   73.7000 C.ar  301  MDB301      0.0197
     14  CAL      -12.2490   85.9330   74.7050 C.ar  301  MDB301      0.0015
     15  CAM      -11.1210   86.7440   74.5840 C.ar  301  MDB301      0.0032
     16  CAN      -10.9670   87.5440   73.4490 C.ar  301  MDB301      0.0383
     17  CAP      -11.9460   87.5330   72.4470 C.ar  301  MDB301      0.1539
     18  OAP      -11.7950   88.3150   71.3330 O.3   301  MDB301     -0.4701
     19  CAQ      -10.5800   88.2480   70.5830 C.3   301  MDB301      0.2525
     20  NAS      -17.1970   83.6290   68.5680 N.am  301  MDB301     -0.2721
     21  CAT      -16.7910   82.9620   67.3330 C.3   301  MDB301      0.1447
     22  CAU      -17.9580   82.5640   66.4440 C.2   301  MDB301      0.1070
     23  OAV      -18.9580   83.2610   66.3100 O.2   301  MDB301     -0.5379
     24  NAW      -17.7880   81.4060   65.8170 N.am  301  MDB301     -0.2012
     25  OAX      -18.7330   80.8890   64.9380 O.3   301  MDB301     -0.4026
     26  CAY      -18.0860   82.8350   69.4290 C.3   301  MDB301      0.0938
     27  CAZ      -17.2520   82.0260   70.4220 C.3   301  MDB301      0.0199
     28  CBA      -18.1510   81.4890   71.5380 C.3   301  MDB301      0.0017
     29  CBB      -17.5490   80.1600   71.9850 C.3   301  MDB301      0.0001
     30  CBC      -16.5180   79.7560   70.9430 C.3   301  MDB301      0.0001
     31  CBD      -16.6150   80.7840   69.8120 C.3   301  MDB301      0.0017
@<TRIPOS>BOND
     1    25    24    1
     2    24    22   am
     3    23    22    2
     4    22    21    1
     5    21    20    1
     6     3     1    2
     7    20     1   am
     8    20    26    1
     9     1     4    1
    10     7     5    1
    11     8     5    1
    12    26    27    1
    13    31    27    1
    14    31    30    1
    15     5     4    1
    16     5     6    1
    17     4     2    1
    18     2     9   am
    19    27    28    1
    20    19    18    1
    21    30    29    1
    22    18    17    1
    23     9    11   am
    24     9    10    2
    25    28    29    1
    26    11    12    1
    27    17    12   ar
    28    17    16   ar
    29    12    13   ar
    30    16    15   ar
    31    13    14   ar
    32    15    14   ar
