@<TRIPOS>MOLECULE
3u7l_UDB_A_1.pdb
 31 32 0 0 0
SMALL
GASTEIGER

@<TRIPOS>ATOM
      1  C        -16.8740  144.9230   44.9580 C.2   192  UDB192      0.2458
      2  N        -16.0370  146.3170   46.6820 N.am  192  UDB192     -0.1793
      3  O        -16.1710  145.5090   44.1420 O.2   192  UDB192     -0.2730
      4  F1       -10.0940  148.6320   48.9380 F     192  UDB192     -0.2041
      5  F2       -12.7090  146.9320   52.5120 F     192  UDB192     -0.2041
      6  CA       -17.2370  145.6380   46.2460 C.3   192  UDB192      0.1727
      7  CB       -18.3630  146.6740   46.0830 C.3   192  UDB192      0.0270
      8  CAA      -18.0210  147.6830   44.9910 C.3   192  UDB192      0.0022
      9  CAC      -18.5920  147.4650   47.3790 C.3   192  UDB192      0.0022
     10  CAD      -19.6630  145.9920   45.6880 C.3   192  UDB192      0.0022
     11  CAG      -15.4730  146.1870   47.8710 C.2   192  UDB192      0.3439
     12  OAH      -15.9510  145.4760   48.7450 O.2   192  UDB192     -0.2488
     13  NAI      -14.3870  146.9440   47.9520 N.am  192  UDB192     -0.1608
     14  CAJ      -13.4380  147.1800   48.9520 C.ar  192  UDB192      0.0794
     15  CAK      -12.2530  147.7720   48.5040 C.ar  192  UDB192      0.0464
     16  CAL      -11.2310  148.0700   49.3920 C.ar  192  UDB192      0.1437
     17  CAM      -11.3950  147.7910   50.7490 C.ar  192  UDB192      0.0593
     18  CAN      -12.5790  147.2020   51.2000 C.ar  192  UDB192      0.1437
     19  CAP      -13.6180  146.8950   50.3060 C.ar  192  UDB192      0.0464
     20  NAS      -17.2940  143.6740   44.7090 N.am  192  UDB192     -0.2721
     21  CAT      -16.9020  143.0530   43.4470 C.3   192  UDB192      0.1447
     22  CAU      -18.0650  142.6620   42.5580 C.2   192  UDB192      0.1070
     23  OAV      -19.0850  143.3490   42.4650 O.2   192  UDB192     -0.5379
     24  NAW      -17.8610  141.5300   41.8770 N.am  192  UDB192     -0.2012
     25  OAX      -18.8110  141.0260   40.9920 O.3   192  UDB192     -0.4026
     26  CAY      -18.1250  142.8400   45.5890 C.3   192  UDB192      0.0938
     27  CAZ      -17.2410  142.1170   46.6130 C.3   192  UDB192      0.0199
     28  CBA      -16.5180  140.9070   46.0340 C.3   192  UDB192      0.0017
     29  CBB      -16.3880  139.8960   47.1750 C.3   192  UDB192      0.0001
     30  CBC      -17.3700  140.3160   48.2650 C.3   192  UDB192      0.0001
     31  CBD      -18.0800  141.5750   47.7750 C.3   192  UDB192      0.0017
@<TRIPOS>BOND
     1    25    24    1
     2    24    22   am
     3    23    22    2
     4    22    21    1
     5    21    20    1
     6     3     1    2
     7    20     1   am
     8    20    26    1
     9     1     6    1
    10     8     7    1
    11    26    27    1
    12    10     7    1
    13    28    27    1
    14    28    29    1
    15     7     6    1
    16     7     9    1
    17     6     2    1
    18    27    31    1
    19     2    11   am
    20    29    30    1
    21    31    30    1
    22    11    13   am
    23    11    12    2
    24    13    14    1
    25    15    14   ar
    26    15    16   ar
    27     4    16    1
    28    14    19   ar
    29    16    17   ar
    30    19    18   ar
    31    17    18   ar
    32    18     5    1
