@<TRIPOS>MOLECULE
3u7m_FHF_A_1.pdb
 27 27 0 0 0
SMALL
GASTEIGER

@<TRIPOS>ATOM
      1  C        -16.7880  143.7470   44.5390 C.2   192  FHF192      0.1716
      2  N        -16.3930  145.5190   46.1810 N.am  192  FHF192     -0.1812
      3  O        -15.6150  143.7770   44.2550 O.2   192  FHF192     -0.2942
      4  CA       -17.3710  144.5530   45.7390 C.3   192  FHF192      0.1539
      5  CB       -18.4550  145.5840   45.4590 C.3   192  FHF192      0.0272
      6  CAA      -16.6550  139.3050   47.0340 C.3   192  FHF192      0.0000
      7  OAD      -18.9480  140.3870   40.4700 O.2   192  FHF192     -0.5358
      8  OAE      -15.1180  144.1990   47.3020 O.2   192  FHF192     -0.2488
      9  OAG      -19.6220  142.6070   41.4440 O.3   192  FHF192     -0.4195
     10  FAH      -12.8300  147.5500   46.4800 F     192  FHF192     -0.2028
     11  CAI      -18.1520  141.1280   40.9920 C.2   192  FHF192      0.1130
     12  CAJ      -10.8960  146.2160   48.6530 C.ar  192  FHF192      0.0024
     13  CAK      -11.8530  145.4370   49.2770 C.ar  192  FHF192      0.0015
     14  CAL      -11.2400  147.0270   47.6020 C.ar  192  FHF192      0.0310
     15  CAM      -13.1690  145.4390   48.8520 C.ar  192  FHF192      0.0189
     16  CAN      -17.0280  139.5260   45.6110 C.3   192  FHF192      0.0000
     17  CAO      -17.2440  140.9980   45.4330 C.3   192  FHF192      0.0005
     18  CAP      -17.1290  141.3830   43.9690 C.3   192  FHF192      0.0091
     19  CAQ      -17.6150  143.1370   42.2870 C.3   192  FHF192      0.1054
     20  NAR      -14.6610  146.3900   47.2390 N.am  192  FHF192     -0.1587
     21  CAT      -15.3660  145.3120   46.9310 C.2   192  FHF192      0.3439
     22  CAV      -12.5520  147.0300   47.2000 C.ar  192  FHF192      0.1554
     23  CAW      -13.5020  146.2730   47.8190 C.ar  192  FHF192      0.1023
     24  CAY      -17.6680  142.8000   43.7670 C.3   192  FHF192      0.0797
     25  NBA      -18.5300  142.2840   41.5500 N.am  192  FHF192     -0.2792
     26  CG1      -19.6320  145.3310   46.3820 C.3   192  FHF192      0.0022
     27  CG2      -18.8090  145.7260   43.9940 C.3   192  FHF192      0.0022
@<TRIPOS>BOND
     1     7    11    2
     2    11    25   am
     3     9    25    1
     4    25    19    1
     5    19    24    1
     6    24    18    1
     7    24     1    1
     8    18    17    1
     9    27     5    1
    10     3     1    2
    11     1     4    1
    12    17    16    1
    13     5     4    1
    14     5    26    1
    15    16     6    1
    16     4     2    1
    17     2    21   am
    18    10    22    1
    19    21    20   am
    20    21     8    2
    21    22    14   ar
    22    22    23   ar
    23    20    23    1
    24    14    12   ar
    25    23    15   ar
    26    12    13   ar
    27    15    13   ar
