@<TRIPOS>MOLECULE
3u7n_UHF_A_1.pdb
 27 27 0 0 0
SMALL
GASTEIGER

@<TRIPOS>ATOM
      1  C        -16.9580  144.7670   44.8290 C.2   192  UHF192      0.1716
      2  N        -16.7670  146.6210   46.4120 N.am  192  UHF192     -0.1575
      3  O        -15.8150  144.9660   44.4470 O.2   192  UHF192     -0.2942
      4  CA       -17.5340  145.4220   46.0940 C.3   192  UHF192      0.1561
      5  CB       -18.9640  145.8550   45.8320 C.3   192  UHF192      0.0273
      6  CAA      -16.8230  140.2560   47.1780 C.3   192  UHF192      0.0000
      7  CAB       -9.9100  147.7240   49.2510 C.3   192  UHF192      0.0305
      8  OAE      -18.5890  141.3520   40.6660 O.2   192  UHF192     -0.5358
      9  OAF      -15.0590  145.5100   47.2730 O.2   192  UHF192     -0.2178
     10  OAH      -19.9250  143.6130   41.6290 O.3   192  UHF192     -0.4195
     11  CAI      -18.0630  142.2380   41.3220 C.2   192  UHF192      0.1130
     12  CAJ      -12.1690  146.8860   49.3110 C.2   192  UHF192     -0.0176
     13  CAK      -13.4530  146.8840   48.7930 C.3   192  UHF192      0.1467
     14  CAL      -11.5300  148.5080   47.6820 C.3   192  UHF192      0.2850
     15  CAM      -17.1300  140.5570   45.7300 C.3   192  UHF192      0.0000
     16  CAN      -17.0460  142.0550   45.5380 C.3   192  UHF192      0.0005
     17  CAO      -17.4700  142.4080   44.1170 C.3   192  UHF192      0.0091
     18  CAP      -17.9000  144.3320   42.5900 C.3   192  UHF192      0.1054
     19  NAQ      -12.8250  148.4830   47.1840 N.2   192  UHF192     -0.0606
     20  NAR      -14.9550  147.7290   47.1960 N.am  192  UHF192      0.0473
     21  CAT      -15.5680  146.5740   46.9730 C.2   192  UHF192      0.4538
     22  CAV      -11.2010  147.7040   48.7520 C.2   192  UHF192      0.0053
     23  CAW      -13.7550  147.7010   47.7230 C.2   192  UHF192      0.3465
     24  CAY      -17.9030  143.8780   44.0420 C.3   192  UHF192      0.0797
     25  NBA      -18.6380  143.3550   41.8130 N.am  192  UHF192     -0.2792
     26  CG1      -18.9330  147.1560   45.0410 C.3   192  UHF192      0.0022
     27  CG2      -19.6490  146.1090   47.1630 C.3   192  UHF192      0.0022
@<TRIPOS>BOND
     1     8    11    2
     2    11    25   am
     3    10    25    1
     4    25    18    1
     5    18    24    1
     6    24    17    1
     7    24     1    1
     8    17    16    1
     9     3     1    2
    10     1     4    1
    11    26     5    1
    12    16    15    1
    13    15     6    1
    14     5     4    1
    15     5    27    1
    16     4     2    1
    17     2    21   am
    18    21    20   am
    19    21     9    2
    20    19    14    1
    21    19    23    2
    22    20    23    1
    23    14    22    1
    24    23    13    1
    25    22     7    1
    26    22    12    2
    27    13    12    1
