@<TRIPOS>MOLECULE
3u7q_1CL_B_1.pdb
 15 31 0 0 0
SMALL
GASTEIGER

@<TRIPOS>ATOM
      1  S1        20.8710   11.3530   58.5830 S.3   6498  1CL6498     0.0000
      2 FE1        19.5280   10.0700   60.0860 Fe    6498  1CL6498     0.0000
      3 FE2        21.3290    8.9180   58.7550 Fe    6498  1CL6498     0.0000
      4 FE3        18.9040    7.6350   58.8620 Fe    6498  1CL6498     0.0000
      5 FE4        19.3480    9.9250   57.4700 Fe    6498  1CL6498     0.0000
      6 FE5        21.1490   11.7430   54.8110 Fe    6498  1CL6498     0.0000
      7 FE6        22.9030   14.3440   57.2460 Fe    6498  1CL6498     0.0000
      8 FE7        23.8230   12.4630   55.3950 Fe    6498  1CL6498     0.0000
      9 FE8        22.9910   11.0700   57.6190 Fe    6498  1CL6498     0.0000
     10  S2A       20.3490    7.9770   60.6060 S.3   6498  1CL6498     0.0000
     11  S2B       21.9750   13.8300   55.1720 S.3   6498  1CL6498     0.0000
     12  S3A       17.6050    9.5480   58.9160 S.3   6498  1CL6498     0.0000
     13  S3B       24.5540   12.7340   57.5800 S.3   6498  1CL6498     0.0000
     14  S4A       20.2460    7.8640   57.0520 S.3   6498  1CL6498     0.0000
     15  S4B       22.9060   10.3660   55.4060 S.3   6498  1CL6498     0.0000
@<TRIPOS>BOND
     1     6    11    1
     2     6     8    1
     3     6    15    1
     4    11     8    1
     5    11     7    1
     6     8    15    1
     7     8     7    1
     8     8    13    1
     9     8     9    1
    10    15     9    1
    11    14     5    1
    12    14     3    1
    13    14     4    1
    14     7    13    1
    15     5     1    1
    16     5     3    1
    17     5     4    1
    18     5    12    1
    19     5     2    1
    20    13     9    1
    21     9     1    1
    22     1     3    1
    23     1     2    1
    24     3     4    1
    25     3     2    1
    26     3    10    1
    27     4    12    1
    28     4     2    1
    29     4    10    1
    30    12     2    1
    31     2    10    1
