@<TRIPOS>MOLECULE
3u7q_CLF_B_1.pdb
 15 36 0 0 0
SMALL
GASTEIGER

@<TRIPOS>ATOM
      1 FE1        19.5280   10.0700   60.0860 Fe    6499  CLF6499     0.0000
      2 FE2        21.3290    8.9180   58.7550 Fe    6499  CLF6499     0.0000
      3 FE3        18.9040    7.6350   58.8620 Fe    6499  CLF6499     0.0000
      4 FE4        19.3480    9.9250   57.4700 Fe    6499  CLF6499     0.0000
      5  S1        20.8710   11.3530   58.5830 S.3   6499  CLF6499     0.0000
      6  S2A       20.3490    7.9770   60.6060 S.3   6499  CLF6499     0.0000
      7  S4A       20.2460    7.8640   57.0520 S.3   6499  CLF6499     0.0000
      8  S3A       17.6050    9.5480   58.9160 S.3   6499  CLF6499     0.0000
      9 FE5        21.2360   11.6720   56.0610 Fe    6499  CLF6499     0.0000
     10 FE6        22.3040   13.2630   57.6650 Fe    6499  CLF6499     0.0000
     11 FE7        23.8230   12.4630   55.3950 Fe    6499  CLF6499     0.0000
     12 FE8        22.9910   11.0700   57.6190 Fe    6499  CLF6499     0.0000
     13  S2B       21.9750   13.8300   55.1720 S.3   6499  CLF6499     0.0000
     14  S3B       24.5540   12.7340   57.5800 S.3   6499  CLF6499     0.0000
     15  S4B       22.9060   10.3660   55.4060 S.3   6499  CLF6499     0.0000
@<TRIPOS>BOND
     1    13    11    1
     2    13     9    1
     3    13    10    1
     4    11    15    1
     5    11     9    1
     6    11    14    1
     7    11    12    1
     8    11    10    1
     9    15     9    1
    10    15    12    1
    11     9    12    1
    12     9    10    1
    13     9     5    1
    14     7     4    1
    15     7     2    1
    16     7     3    1
    17     4     5    1
    18     4     2    1
    19     4     3    1
    20     4     8    1
    21     4     1    1
    22    14    12    1
    23    14    10    1
    24    12    10    1
    25    12     5    1
    26    10     5    1
    27     5     2    1
    28     5     1    1
    29     2     3    1
    30     2     1    1
    31     2     6    1
    32     3     8    1
    33     3     1    1
    34     3     6    1
    35     8     1    1
    36     1     6    1
