@<TRIPOS>MOLECULE
3u7q_ICS_A_1.pdb
 18 33 0 0 0
SMALL
GASTEIGER

@<TRIPOS>ATOM
      1 FE1        10.0180   -7.5680   56.1090 Fe    6496  ICS6496     0.0000
      2 MO1        16.1320   -5.6380   53.3060 Mo    6496  ICS6496     0.0000
      3 FE2        11.9900   -5.7710   56.1660 Fe    6496  ICS6496     0.0000
      4 FE3        11.2770   -6.9020   53.8530 Fe    6496  ICS6496     0.0000
      5 FE4        12.5280   -8.3260   55.6920 Fe    6496  ICS6496     0.0000
      6 FE5        14.8200   -7.6010   54.6710 Fe    6496  ICS6496     0.0000
      7 FE6        14.2260   -5.0720   55.0940 Fe    6496  ICS6496     0.0000
      8 FE7        13.5500   -6.1980   52.8490 Fe    6496  ICS6496     0.0000
      9  CX        13.0440   -6.6650   54.7240 C.3   6496  ICS6496     0.0000
     10  S1A       11.7190   -7.4590   57.6460 S.3   6496  ICS6496     0.0000
     11  S1B       16.1690   -6.0430   55.6180 S.3   6496  ICS6496     0.0000
     12  S2A       10.0010   -5.5220   55.1350 S.3   6496  ICS6496     0.0000
     13  S2B       13.1620   -3.9600   56.6280 S.3   6496  ICS6496     0.0000
     14  S3A       14.4070   -9.5440   55.7510 S.3   6496  ICS6496     0.0000
     15  S3B       14.3370   -4.1090   53.0980 S.3   6496  ICS6496     0.0000
     16  S4A       10.7180   -8.9980   54.4670 S.3   6496  ICS6496     0.0000
     17  S4B       15.2030   -7.6260   52.4540 S.3   6496  ICS6496     0.0000
     18  S5A       11.6740   -6.4650   51.7120 S.3   6496  ICS6496     0.0000
@<TRIPOS>BOND
     1    18     8    1
     2    18     4    1
     3    17     8    1
     4    17     2    1
     5    17     6    1
     6     8    15    1
     7     8     4    1
     8     8     9    1
     9     8     7    1
    10    15     2    1
    11    15     7    1
    12     2    11    1
    13     4    16    1
    14     4     9    1
    15     4    12    1
    16     4     5    1
    17    16     5    1
    18    16     1    1
    19     6    11    1
    20     6     5    1
    21     6    14    1
    22     9     5    1
    23     9     3    1
    24     7    11    1
    25     7     3    1
    26     7    13    1
    27    12     1    1
    28    12     3    1
    29     5    14    1
    30     5    10    1
    31     1    10    1
    32     3    13    1
    33     3    10    1
