@<TRIPOS>MOLECULE
3u7r_FNR_A_1.pdb
 31 33 0 0 0
SMALL
GASTEIGER

@<TRIPOS>ATOM
      1  C9A       17.8500    4.1630   40.0460 C.3   201  FNR201      0.1497
      2  N10       18.7230    3.6450   39.1010 N.pl3 201  FNR201     -0.2691
      3  CAA       20.0490    3.5600   39.3810 C.2   201  FNR201      0.2416
      4  N1        20.8450    2.9140   38.5570 N.2   201  FNR201     -0.2890
      5  C2        22.1000    2.7780   38.8590 C.1   201  FNR201      0.3669
      6  O2        22.7940    2.1090   38.0930 O.2   201  FNR201     -0.1744
      7  N3        22.6700    3.2350   39.9620 N.2   201  FNR201     -0.2300
      8  C4        21.9850    3.9680   40.8540 C.1   201  FNR201      0.2513
      9  O4        22.4900    4.4680   41.8600 O.2   201  FNR201     -0.2057
     10  C4A       20.5470    4.1430   40.5950 C.2   201  FNR201      0.2700
     11  N5        19.7680    4.8250   41.4500 N.2   201  FNR201     -0.3878
     12  C5A       18.4300    4.7830   41.2600 C.2   201  FNR201      0.1320
     13  C6        17.6060    5.3230   42.2070 C.2   201  FNR201      0.0250
     14  C7        16.2700    5.2890   42.0330 C.2   201  FNR201     -0.0238
     15  C7M       15.4370    5.8980   43.1370 C.3   201  FNR201      0.0308
     16  C8        15.6840    4.7270   40.8180 C.2   201  FNR201     -0.0280
     17  C8M       14.1940    4.7720   40.6010 C.3   201  FNR201      0.0304
     18  C9        16.4810    4.1960   39.8550 C.2   201  FNR201     -0.0041
     19  C1'       18.2320    3.0510   37.8630 C.3   201  FNR201      0.1294
     20  C2'       17.9190    1.6230   37.9630 C.3   201  FNR201      0.2044
     21  O2'       19.1450    0.9820   37.6830 O.3   201  FNR201     -0.2185
     22  C3'       16.9090    1.2460   36.8840 C.3   201  FNR201      0.2164
     23  O3'       15.7070    2.0110   37.0460 O.3   201  FNR201     -0.2175
     24  C4'       16.6560   -0.2450   37.0020 C.3   201  FNR201      0.2147
     25  O4'       16.0180   -0.6660   35.7800 O.3   201  FNR201     -0.2176
     26  C5'       15.7440   -0.5810   38.1660 C.3   201  FNR201      0.1892
     27  O5'       15.6740   -1.9990   38.3370 O.3   201  FNR201     -0.2674
     28  P         14.2990   -2.7650   37.9050 P.3   201  FNR201      0.5327
     29  O1P       14.5090   -4.1750   38.3180 O.3   201  FNR201     -0.1145
     30  O2P       13.1160   -2.0980   38.5560 O.3   201  FNR201     -0.1145
     31  O3P       14.2400   -2.5690   36.3960 O.2   201  FNR201     -0.2224
@<TRIPOS>BOND
     1    25    24    1
     2    31    28    2
     3    22    24    1
     4    22    23    1
     5    22    20    1
     6    24    26    1
     7    21    20    1
     8    19    20    1
     9    19     2    1
    10    28    29    1
    11    28    27    1
    12    28    30    1
    13     6     5    2
    14    26    27    1
    15     4     5    2
    16     4     3    2
    17     5     7    2
    18     2     3    1
    19     2     1    1
    20     3    10    1
    21    18     1    1
    22    18    16    2
    23     7     8    2
    24     1    12    1
    25    10     8    1
    26    10    11    2
    27    17    16    1
    28    16    14    1
    29     8     9    2
    30    12    11    2
    31    12    13    1
    32    14    13    2
    33    14    15    1
