@<TRIPOS>MOLECULE
3u7s_017_A_1.pdb
 38 41 0 0 0
SMALL
GASTEIGER

@<TRIPOS>ATOM
      1  N1       -10.7180   14.3630   34.9150 N.pl3 201  017201     -0.1281
      2  C2       -10.3550   14.6440   33.6300 C.ar  201  017201      0.0892
      3  C3        -9.9790   15.9350   33.2380 C.ar  201  017201      0.0194
      4  C4        -9.6060   16.1990   31.9090 C.ar  201  017201      0.0213
      5  C5        -9.6230   15.1720   30.9640 C.ar  201  017201      0.1223
      6  C6        -9.9950   13.8900   31.3650 C.ar  201  017201      0.0213
      7  C7       -10.3540   13.6220   32.6890 C.ar  201  017201      0.0194
      8  S8        -9.2000   15.4110   29.4290 S.O2  201  017201      0.0634
      9  O9        -8.0200   16.2280   29.3920 O.2   201  017201     -0.1528
     10  O10       -8.9130   14.1150   28.8640 O.2   201  017201     -0.1528
     11  N11      -10.3670   16.0310   28.4860 N.3   201  017201     -0.1529
     12  C12      -11.6980   15.4430   28.7610 C.3   201  017201      0.0958
     13  C13      -12.4570   15.2260   27.4400 C.3   201  017201      0.0178
     14  C14      -11.6880   14.3650   26.4470 C.3   201  017201      0.0015
     15  C15      -13.8260   14.6140   27.6630 C.3   201  017201      0.0015
     16  C16      -10.3660   17.5100   28.4270 C.3   201  017201      0.1304
     17  C17      -10.2700   17.8980   26.9410 C.3   201  017201      0.1898
     18  O18      -10.6210   19.2770   26.7080 O.3   201  017201     -0.2197
     19  C19       -8.8690   17.5890   26.3880 C.3   201  017201      0.1347
     20  N20       -8.9040   17.8390   24.9480 N.am  201  017201     -0.1675
     21  C21       -8.8220   16.8810   24.0120 C.2   201  017201      0.4211
     22  O22       -8.7270   15.6740   24.2470 O.2   201  017201     -0.2246
     23  O23       -8.8630   17.3420   22.6330 O.3   201  017201     -0.4345
     24  C24       -8.4530   16.4590   21.5880 C.3   201  017201      0.2048
     25  C25       -9.3820   16.7760   20.4320 C.3   201  017201      0.1884
     26  O26       -8.8230   17.9500   19.8440 O.3   201  017201     -0.3265
     27  C27       -7.4030   17.9800   20.0370 C.3   201  017201      0.2388
     28  O28       -6.9880   19.2060   20.6450 O.3   201  017201     -0.3304
     29  C29       -6.1260   18.9590   21.7570 C.3   201  017201      0.1451
     30  C30       -6.1090   17.4570   22.0200 C.3   201  017201      0.0409
     31  C31       -7.0990   16.8680   21.0290 C.3   201  017201      0.1016
     32  C32       -7.8380   18.5500   26.9740 C.3   201  017201      0.0508
     33  C33       -6.0290   19.1830   25.3610 C.ar  201  017201     -0.0042
     34  C34       -4.7760   18.9690   24.7940 C.ar  201  017201     -0.0003
     35  C35       -3.9880   17.9040   25.2170 C.ar  201  017201     -0.0000
     36  C36       -4.4450   17.0390   26.2150 C.ar  201  017201     -0.0003
     37  C37       -5.6980   17.2440   26.7900 C.ar  201  017201     -0.0042
     38  C38       -6.4830   18.3120   26.3570 C.ar  201  017201     -0.0204
@<TRIPOS>BOND
     1    26    27    1
     2    26    25    1
     3    27    28    1
     4    27    31    1
     5    25    24    1
     6    28    29    1
     7    31    24    1
     8    31    30    1
     9    24    23    1
    10    29    30    1
    11    23    21    1
    12    21    22    2
    13    21    20   am
    14    34    35   ar
    15    34    33   ar
    16    20    19    1
    17    35    36   ar
    18    33    38   ar
    19    36    37   ar
    20    38    37   ar
    21    38    32    1
    22    19    17    1
    23    19    32    1
    24    14    13    1
    25    18    17    1
    26    17    16    1
    27    13    15    1
    28    13    12    1
    29    16    11    1
    30    11    12    1
    31    11     8    1
    32    10     8    2
    33     9     8    2
    34     8     5    1
    35     5     6   ar
    36     5     4   ar
    37     6     7   ar
    38     4     3   ar
    39     7     2   ar
    40     3     2   ar
    41     2     1    1
