@<TRIPOS>MOLECULE
3u7y_MAN_G_1.pdb
 11 11 0 0 0
SMALL
GASTEIGER

@<TRIPOS>ATOM
      1  C1        11.2650   -9.6470  -70.3890 C.3     4  MAN4        0.1777
      2  C2        11.0090   -8.2020  -69.9800 C.3     4  MAN4        0.2141
      3  C3         9.7030   -8.1190  -69.2020 C.3     4  MAN4        0.2173
      4  C4         8.5890   -8.7240  -70.0500 C.3     4  MAN4        0.2142
      5  C5         8.9850  -10.1100  -70.5490 C.3     4  MAN4        0.1810
      6  C6         7.9040  -10.6880  -71.4560 C.3     4  MAN4        0.2141
      7  O2        10.9150   -7.3960  -71.1340 O.3     4  MAN4       -0.2176
      8  O3         9.4080   -6.7720  -68.9030 O.3     4  MAN4       -0.2175
      9  O4         7.4040   -8.8220  -69.2940 O.3     4  MAN4       -0.2176
     10  O5        10.2130  -10.0350  -71.2450 O.3     4  MAN4       -0.3481
     11  O6         6.6590  -10.6250  -70.7950 O.3     4  MAN4       -0.2176
@<TRIPOS>BOND
     1     6    11    1
     2     6     5    1
     3    10     5    1
     4    10     1    1
     5     7     2    1
     6     5     4    1
     7     1     2    1
     8     4     9    1
     9     4     3    1
    10     2     3    1
    11     3     8    1
