@<TRIPOS>MOLECULE
3u81_SAH_A_1.pdb
 46 48 0 0 0
SMALL
GASTEIGER

@<TRIPOS>ATOM
      1  N        -10.4680  -11.2790   15.7000 N.4   222  SAH222      0.3871
      2  CA       -11.0360  -10.3730   14.6820 C.3   222  SAH222      0.0212
      3  CB       -12.3690   -9.7400   15.1090 C.3   222  SAH222     -0.0469
      4  CG       -13.4020  -10.7470   15.5390 C.3   222  SAH222     -0.0072
      5  SD       -14.9850   -9.9040   15.7020 S.3   222  SAH222     -0.1582
      6  C        -10.0190   -9.2890   14.3760 C.2   222  SAH222      0.3421
      7  O         -9.1370   -9.0000   15.1970 O.co2 222  SAH222     -0.2483
      8  OXT      -10.1590   -8.7140   13.2960 O.co2 222  SAH222     -0.2483
      9  C5'      -15.9120  -11.1900   16.5110 C.3   222  SAH222      0.0226
     10  C4'      -16.2530  -12.3740   15.5940 C.3   222  SAH222      0.0984
     11  O4'      -16.6740  -13.4540   16.4250 O.3   222  SAH222     -0.3489
     12  C3'      -17.3410  -12.1260   14.5500 C.3   222  SAH222      0.1119
     13  O3'      -16.9300  -12.3690   13.2170 O.3   222  SAH222     -0.3865
     14  C2'      -18.4430  -13.1170   15.0210 C.3   222  SAH222      0.1266
     15  O2'      -19.2770  -13.6460   13.9760 O.3   222  SAH222     -0.3849
     16  C1'      -17.6590  -14.1940   15.7210 C.3   222  SAH222      0.1617
     17  N9       -18.4020  -14.9730   16.7120 N.pl3 222  SAH222     -0.2234
     18  C8       -19.2800  -14.4600   17.6290 C.2   222  SAH222      0.1451
     19  N7       -19.6960  -15.4220   18.4940 N.2   222  SAH222     -0.3871
     20  C5       -19.0390  -16.5660   18.0760 C.2   222  SAH222      0.2211
     21  C6       -19.0320  -17.9020   18.5580 C.2   222  SAH222      0.2227
     22  N6       -19.7970  -18.2710   19.6210 N.pl3 222  SAH222     -0.3300
     23  N1       -18.2590  -18.7820   17.9360 N.2   222  SAH222     -0.3296
     24  C2       -17.5390  -18.4040   16.8640 C.1   222  SAH222      0.0930
     25  N3       -17.4590  -17.1710   16.3320 N.2   222  SAH222     -0.3287
     26  C4       -18.2330  -16.2800   16.9540 C.2   222  SAH222      0.2354
     27  H1       -10.2510  -10.7480   16.5480 H     222  SAH222     -0.0889
     28  H2       -16.9240  -19.1820   16.3880 H     222  SAH222      0.1751
     29  HN1      -11.1480  -12.0130   15.9220 H     222  SAH222     -0.0889
     30  HN2       -9.6230  -11.8580   15.6590 H     222  SAH222     -0.0889
     31  HA       -11.2520  -10.9590   13.7760 H     222  SAH222      0.0198
     32  HB1      -12.7700   -9.1490   14.2720 H     222  SAH222      0.0262
     33  HB2      -12.1840   -9.0400   15.9380 H     222  SAH222      0.0262
     34  HG1      -13.1130  -11.2050   16.4960 H     222  SAH222      0.0376
     35  HG2      -13.4760  -11.5580   14.8000 H     222  SAH222      0.0376
     36 H5'1      -15.6810  -11.5880   17.4890 H     222  SAH222      0.0402
     37 H5'2      -16.8260  -10.7460   16.8790 H     222  SAH222      0.0402
     38  H4'      -15.3540  -12.6440   15.0590 H     222  SAH222      0.0632
     39  H3'      -17.6190  -11.0870   14.4400 H     222  SAH222      0.0647
     40 HO3'      -16.6380  -13.2950   13.1310 H     222  SAH222      0.2100
     41  H2'      -19.2220  -12.6630   15.6200 H     222  SAH222      0.0663
     42 HO2'      -18.7230  -14.1080   13.3190 H     222  SAH222      0.2101
     43  H1'      -17.2720  -14.9270   15.0250 H     222  SAH222      0.0841
     44  H8       -19.6120  -13.4110   17.6560 H     222  SAH222      0.1149
     45 HN61      -19.7800  -19.1140   19.9100 H     222  SAH222      0.1448
     46 HN62      -20.3140  -17.6700   20.0280 H     222  SAH222      0.1448
@<TRIPOS>BOND
     1    40    13    1
     2    13    12    1
     3     8     6   ar
     4    42    15    1
     5    31     2    1
     6    15    14    1
     7    32     3    1
     8     6     2    1
     9     6     7   ar
    10    39    12    1
    11    12    14    1
    12    12    10    1
    13     2     3    1
    14     2     1    1
    15    35     4    1
    16    14    41    1
    17    14    16    1
    18    43    16    1
    19    38    10    1
    20     3     4    1
    21     3    33    1
    22     4     5    1
    23     4    34    1
    24    10    11    1
    25    10     9    1
    26    30     1    1
    27     1    29    1
    28     1    27    1
    29     5     9    1
    30    16    11    1
    31    16    17    1
    32    25    24    2
    33    25    26    2
    34    28    24    1
    35     9    37    1
    36     9    36    1
    37    17    26    1
    38    17    18    1
    39    24    23    2
    40    26    20    1
    41    18    44    1
    42    18    19    2
    43    23    21    2
    44    20    19    2
    45    20    21    1
    46    21    22    1
    47    22    45    1
    48    22    46    1
