@<TRIPOS>MOLECULE
3u87_ANP_A_1.pdb
 31 33 0 0 0
SMALL
GASTEIGER

@<TRIPOS>ATOM
      1  PG        51.4130    2.8510   37.3140 P.3   401  ANP401      0.4884
      2  O1G       50.2190    3.6290   36.8980 O.3   401  ANP401     -0.1240
      3  O2G       52.6390    3.2560   36.4160 O.2   401  ANP401     -0.2331
      4  O3G       51.7430    3.1620   38.8090 O.3   401  ANP401     -0.1240
      5  PB        51.6580    0.3440   38.4080 P.3   401  ANP401      0.4669
      6  O1B       53.1970    0.1750   38.3150 O.2   401  ANP401     -0.2351
      7  O2B       51.3050    1.0380   39.7550 O.3   401  ANP401     -0.1253
      8  N3B       51.0940    1.2320   37.1210 N.3   401  ANP401     -0.0163
      9  PA        49.4520   -1.1990   38.0800 P.3   401  ANP401      0.2220
     10  O1A       48.7320   -1.7980   39.3290 O.3   401  ANP401     -0.4370
     11  O2A       48.8650    0.2130   37.7830 O.2   401  ANP401     -0.5170
     12  O3A       50.9880   -1.0770   38.3760 O.3   401  ANP401     -0.2360
     13  O5'       49.2140   -2.1620   36.8460 O.3   401  ANP401     -0.3111
     14  C5'       49.5620   -1.7350   35.5640 C.3   401  ANP401      0.1813
     15  C4'       48.8090   -2.5580   34.5350 C.3   401  ANP401      0.1821
     16  O4'       48.7030   -3.8820   34.9370 O.3   401  ANP401     -0.3135
     17  C3'       47.4300   -2.0520   34.3380 C.3   401  ANP401      0.2184
     18  O3'       47.4010   -1.1070   33.3500 O.3   401  ANP401     -0.2174
     19  C2'       46.6770   -3.2440   33.9450 C.3   401  ANP401      0.2570
     20  O2'       46.6500   -3.4360   32.5600 O.3   401  ANP401     -0.2130
     21  C1'       47.4150   -4.3340   34.6490 C.3   401  ANP401      0.3186
     22  N9        46.7400   -4.7480   35.8680 N.pl3 401  ANP401     -0.1439
     23  C8        46.9440   -4.2390   37.0950 C.3   401  ANP401      0.3377
     24  N7        46.1560   -4.8460   37.9740 N.2   401  ANP401     -0.2095
     25  C5        45.4170   -5.7660   37.3500 C.2   401  ANP401      0.2526
     26  C6        44.4490   -6.6770   37.7520 C.2   401  ANP401      0.4393
     27  N6        44.0590   -6.7500   39.1340 N.pl3 401  ANP401      0.2180
     28  N1        43.8760   -7.4890   36.8530 N.2   401  ANP401      0.0021
     29  C2        44.2200   -7.4470   35.5530 C.3   401  ANP401      0.5254
     30  N3        45.1650   -6.5730   35.1240 N.2   401  ANP401     -0.0055
     31  C4        45.7720   -5.7270   35.9850 C.2   401  ANP401      0.3518
@<TRIPOS>BOND
     1    20    19    1
     2    18    17    1
     3    19    17    1
     4    19    21    1
     5    17    15    1
     6    15    16    1
     7    15    14    1
     8    21    16    1
     9    21    22    1
    10    30    29    1
    11    30    31    2
    12    29    28    1
    13    14    13    1
    14    22    31    1
    15    22    23    1
    16    31    25    1
    17     3     1    2
    18    13     9    1
    19    28    26    2
    20     2     1    1
    21    23    24    1
    22     8     1    1
    23     8     5    1
    24     1     4    1
    25    25    26    1
    26    25    24    2
    27    26    27    1
    28    11     9    2
    29     9    12    1
    30     9    10    1
    31     6     5    2
    32    12     5    1
    33     5     7    1
