@<TRIPOS>MOLECULE
3u8f_FGM_A_1.pdb
 22 21 0 0 0
SMALL
GASTEIGER

@<TRIPOS>ATOM
      1  CBU      -11.1470   21.8580    8.7050 C.3   3945  FGM3945     0.0000
      2  CBV      -12.1970   20.7710    8.6490 C.3   3945  FGM3945     0.0000
      3  CBW      -12.6350   20.5070    7.2130 C.3   3945  FGM3945     0.0000
      4  CBX      -11.5870   21.0020    6.2230 C.3   3945  FGM3945     0.0000
      5  CBY      -11.9910   22.3450    5.6260 C.3   3945  FGM3945     0.0000
      6  CBZ      -11.1930   22.6430    4.3620 C.3   3945  FGM3945     0.0000
      7  CCA       -9.7870   22.0620    4.4550 C.3   3945  FGM3945     0.0000
      8  CCB       -9.5310   21.0710    3.3260 C.3   3945  FGM3945     0.0001
      9  CCC       -9.1140   21.7910    2.0500 C.3   3945  FGM3945     0.0026
     10  CCD       -7.7120   21.3750    1.6210 C.3   3945  FGM3945     0.0335
     11  CCE       -6.7700   21.3160    2.8180 C.3   3945  FGM3945     0.1626
     12  OCF       -6.1880   20.0110    2.9040 O.3   3945  FGM3945    -0.2226
     13  CCG       -5.6640   22.3580    2.6950 C.3   3945  FGM3945     0.1336
     14  CCH       -4.6110   22.1680    3.7790 C.3   3945  FGM3945     0.0138
     15  CCI       -5.1760   21.3860    4.9590 C.3   3945  FGM3945     0.0006
     16  CCJ       -5.6390   22.3250    6.0660 C.3   3945  FGM3945     0.0000
     17  CCK       -6.5340   21.5970    7.0620 C.3   3945  FGM3945     0.0000
     18  CCL       -5.7330   21.1150    8.2650 C.3   3945  FGM3945     0.0000
     19  CCM       -6.4500   21.4490    9.5680 C.3   3945  FGM3945     0.0000
     20  CCQ       -4.6760   22.4900    1.5980 C.2   3945  FGM3945     0.3668
     21  OCR       -5.1540   21.9580    0.5740 O.co2 3945  FGM3945    -0.2456
     22  OCS       -3.5410   23.0120    1.6290 O.co2 3945  FGM3945    -0.2456
@<TRIPOS>BOND
     1    21    20   ar
     2    20    22   ar
     3    20    13    1
     4    10     9    1
     5    10    11    1
     6     9     8    1
     7    13    11    1
     8    13    14    1
     9    11    12    1
    10     8     7    1
    11    14    15    1
    12     6     7    1
    13     6     5    1
    14    15    16    1
    15     5     4    1
    16    16    17    1
    17     4     3    1
    18    17    18    1
    19     3     2    1
    20    18    19    1
    21     2     1    1
