@<TRIPOS>MOLECULE
3u8j_09O_A_1.pdb
 13 14 0 0 0
SMALL
GASTEIGER

@<TRIPOS>ATOM
      1  C1        -1.2430   14.2610   10.2050 C.3   211  09O211      0.1096
      2  C2        -2.0900   14.8440    9.0410 C.3   211  09O211      0.1100
      3  N1        -2.3230   13.9190    7.9010 N.3   211  09O211     -0.2162
      4  C3        -1.2410   13.8400    6.8910 C.3   211  09O211      0.0905
      5  C4        -0.0880   12.9380    7.3620 C.3   211  09O211      0.0402
      6  C5         0.5590   13.4580    8.6530 C.3   211  09O211      0.0924
      7  N2        -0.2900   13.2020    9.8300 N.pl3 211  09O211     -0.3048
      8  C6        -0.0210    9.8470   12.2650 C.ar  211  09O211      0.0990
      9  N3        -0.4930   11.0050   12.7820 N.ar  211  09O211     -0.2410
     10  C7        -0.5670   12.0790   11.9680 C.ar  211  09O211      0.1133
     11  C8        -0.1730   12.0770   10.5990 C.ar  211  09O211      0.0673
     12  C9         0.3230   10.8460   10.0920 C.ar  211  09O211      0.0177
     13  C10        0.4020    9.7140   10.9330 C.ar  211  09O211      0.0219
@<TRIPOS>BOND
     1     4     5    1
     2     4     3    1
     3     5     6    1
     4     3     2    1
     5     6     7    1
     6     2     1    1
     7     7     1    1
     8     7    11    1
     9    12    11   ar
    10    12    13   ar
    11    11    10   ar
    12    13     8   ar
    13    10     9   ar
    14     8     9   ar
