@<TRIPOS>MOLECULE
3u8k_09P_A_1.pdb
 16 17 0 0 0
SMALL
GASTEIGER

@<TRIPOS>ATOM
      1  C1        86.6930   73.0480  -11.1600 C.3   211  09P211      0.1100
      2  N1        85.7680   73.2550  -12.2950 N.3   211  09P211     -0.2162
      3  C2        85.5720   72.1350  -13.2520 C.3   211  09P211      0.0905
      4  C3        84.7560   70.9770  -12.6430 C.3   211  09P211      0.0402
      5  C4        85.3070   70.4590  -11.3050 C.3   211  09P211      0.0924
      6  N2        84.9650   71.3970  -10.2220 N.pl3 211  09P211     -0.3047
      7  C5        86.0170   72.4000   -9.9310 C.3   211  09P211      0.1096
      8  C6        81.4190   71.3480   -8.1490 C.ar  211  09P211      0.1357
      9  C7        81.4940   70.5360   -9.2920 C.ar  211  09P211      0.1589
     10  C8        82.7190   70.5510  -10.0070 C.ar  211  09P211      0.0546
     11  C9        83.7910   71.3550   -9.5570 C.ar  211  09P211      0.0704
     12  C10       83.5700   72.1210   -8.3930 C.ar  211  09P211      0.1135
     13  N3        82.4150   72.1230   -7.7030 N.ar  211  09P211     -0.2378
     14  O1        80.3620   69.8160   -9.6520 O.3   211  09P211     -0.4738
     15  C11       80.2580   69.2650  -10.9650 C.3   211  09P211      0.2056
     16  C12       80.1880   67.7460  -10.8330 C.3   211  09P211      0.0512
@<TRIPOS>BOND
     1     3     4    1
     2     3     2    1
     3     4     5    1
     4     2     1    1
     5     5     6    1
     6     1     7    1
     7    15    16    1
     8    15    14    1
     9     6     7    1
    10     6    11    1
    11    10    11   ar
    12    10     9   ar
    13    14     9    1
    14    11    12   ar
    15     9     8   ar
    16    12    13   ar
    17     8    13   ar
