@<TRIPOS>MOLECULE
3u8l_09Q_A_1.pdb
 19 21 0 0 0
SMALL
GASTEIGER

@<TRIPOS>ATOM
      1  C1        -8.1650   27.7160   31.9910 C.ar  211  09Q211      0.0015
      2  C2        -8.3060   28.3480   30.7320 C.ar  211  09Q211      0.0000
      3  C3        -9.4500   29.1080   30.4170 C.ar  211  09Q211      0.0000
      4  C4       -10.4800   29.2290   31.3660 C.ar  211  09Q211      0.0000
      5  C5       -10.3580   28.5920   32.6150 C.ar  211  09Q211      0.0000
      6  C6        -9.2160   27.8310   32.9280 C.ar  211  09Q211      0.0000
      7  C7        -4.7900   25.2370   32.5140 C.ar  211  09Q211      0.1133
      8  C8        -5.7770   27.3120   32.8180 C.ar  211  09Q211      0.0989
      9  C9        -6.9890   26.8760   32.2410 C.ar  211  09Q211      0.0204
     10  C10       -7.0280   25.5650   31.7450 C.ar  211  09Q211      0.0176
     11  C11       -5.9390   24.6840   31.8830 C.ar  211  09Q211      0.0673
     12  C12       -7.3790   22.7160   31.3300 C.3   211  09Q211      0.0924
     13  C13       -7.9770   22.9150   29.9330 C.3   211  09Q211      0.0402
     14  C14       -7.4690   21.8730   28.9170 C.3   211  09Q211      0.0905
     15  C15       -5.3540   21.3360   30.1580 C.3   211  09Q211      0.1100
     16  C16       -4.9480   22.4790   31.1180 C.3   211  09Q211      0.1096
     17  N1        -6.0670   23.3830   31.4600 N.pl3 211  09Q211     -0.3048
     18  N2        -5.9930   21.7980   28.9020 N.3   211  09Q211     -0.2162
     19  N3        -4.7010   26.5030   32.9760 N.ar  211  09Q211     -0.2410
@<TRIPOS>BOND
     1    18    14    1
     2    18    15    1
     3    14    13    1
     4    13    12    1
     5    15    16    1
     6     3     2   ar
     7     3     4   ar
     8     2     1   ar
     9    16    17    1
    10    12    17    1
    11     4     5   ar
    12    17    11    1
    13    10    11   ar
    14    10     9   ar
    15    11     7   ar
    16     1     9    1
    17     1     6   ar
    18     9     8   ar
    19     7    19   ar
    20     5     6   ar
    21     8    19   ar
