@<TRIPOS>MOLECULE
3u8m_09R_A_1.pdb
 14 15 0 0 0
SMALL
GASTEIGER

@<TRIPOS>ATOM
      1  C1       -33.1880   76.5370  -26.3820 C.ar  211  09R211      0.1139
      2  C2       -32.9820   76.3340  -27.7670 C.ar  211  09R211      0.0676
      3  C3       -34.1270   75.8480  -28.5000 C.ar  211  09R211      0.0182
      4  C4       -35.3370   75.5880  -27.8090 C.ar  211  09R211      0.0273
      5  C5       -35.4010   75.8380  -26.4110 C.ar  211  09R211      0.1155
      6  N1       -34.3420   76.3050  -25.7300 N.ar  211  09R211     -0.2358
      7 BR1       -36.7820   75.5320  -25.4170 Br    211  09R211     -0.0280
      8  N2       -31.7320   76.6090  -28.2690 N.pl3 211  09R211     -0.3005
      9  C6       -30.8270   77.5110  -27.5470 C.3   211  09R211      0.1144
     10  C7       -29.9070   78.2590  -28.5200 C.3   211  09R211      0.1336
     11  N3       -30.6710   79.2140  -29.3310 N.pl3 211  09R211     -0.2348
     12  C8       -31.1700   78.7390  -30.6550 C.2   211  09R211      0.0773
     13  C9       -31.5940   77.2590  -30.8310 C.2   211  09R211      0.0126
     14  C10      -31.3370   76.2710  -29.6560 C.3   211  09R211      0.1189
@<TRIPOS>BOND
     1    13    12    2
     2    13    14    1
     3    12    11    1
     4    14     8    1
     5    11    10    1
     6    10     9    1
     7     3     4   ar
     8     3     2   ar
     9     8     2    1
    10     8     9    1
    11     4     5   ar
    12     2     1   ar
    13     5     6   ar
    14     5     7    1
    15     1     6   ar
