@<TRIPOS>MOLECULE
3u8n_09S_A_1.pdb
 17 18 0 0 0
SMALL
GASTEIGER

@<TRIPOS>ATOM
      1  C1        51.5350   22.1430  102.0840 C.3   211  09S211      0.1096
      2  C2        50.5360   22.4300  100.9620 C.3   211  09S211      0.1100
      3  N1        51.2580   22.8170   99.7340 N.3   211  09S211     -0.2162
      4  C3        51.3980   24.2860   99.5650 C.3   211  09S211      0.0905
      5  C4        52.5000   24.8700  100.4620 C.3   211  09S211      0.0402
      6  C5        52.2750   24.5890  101.9680 C.3   211  09S211      0.0924
      7  N2        52.5730   23.1790  102.2700 N.pl3 211  09S211     -0.3047
      8  C6        56.3570   21.8560  103.2900 C.ar  211  09S211      0.1492
      9  N3        55.2800   21.0850  103.5740 N.ar  211  09S211     -0.2328
     10  C7        54.0570   21.5250  103.2360 C.ar  211  09S211      0.1141
     11  C8        53.8310   22.7710  102.5900 C.ar  211  09S211      0.0704
     12  C9        54.9700   23.5640  102.3110 C.ar  211  09S211      0.0551
     13  C10       56.2700   23.1220  102.6600 C.ar  211  09S211      0.1636
     14 BR1        57.8940   21.2180  103.7610 Br    211  09S211     -0.0248
     15  O1        57.4320   23.8380  102.3940 O.3   211  09S211     -0.4734
     16  C11       57.2700   25.1350  101.8560 C.3   211  09S211      0.2056
     17  C12       58.5660   25.7740  101.3590 C.3   211  09S211      0.0512
@<TRIPOS>BOND
     1     4     3    1
     2     4     5    1
     3     3     2    1
     4     5     6    1
     5     2     1    1
     6    17    16    1
     7    16    15    1
     8     6     7    1
     9     1     7    1
    10     7    11    1
    11    12    11   ar
    12    12    13   ar
    13    15    13    1
    14    11    10   ar
    15    13     8   ar
    16    10     9   ar
    17     8     9   ar
    18     8    14    1
