@<TRIPOS>MOLECULE
3u8p_HEM_A_1.pdb
 43 50 0 0 0
SMALL
GASTEIGER

@<TRIPOS>ATOM
      1  CHA       14.5010   15.5790   71.6550 C.2   347  HEM347      0.0000
      2  CHB       18.6780   14.5460   73.6530 C.2   347  HEM347      0.0000
      3  CHC       19.6610   11.5700   70.0100 C.2   347  HEM347      0.0000
      4  CHD       15.4770   12.5700   68.0120 C.2   347  HEM347      0.0000
      5  C1A       15.5380   15.6150   72.5630 C.2   347  HEM347      0.0000
      6  C2A       15.6010   16.3610   73.7430 C.2   347  HEM347      0.0000
      7  C3A       16.8130   16.0560   74.2910 C.2   347  HEM347      0.0000
      8  C4A       17.4390   15.1260   73.4720 C.2   347  HEM347      0.0000
      9  CMA       17.3370   16.6260   75.5970 C.3   347  HEM347      0.0000
     10  CAA       14.5600   17.3220   74.3230 C.3   347  HEM347      0.0000
     11  CBA       13.4480   16.5620   75.0390 C.3   347  HEM347      0.0000
     12  CGA       12.3370   17.5100   75.5100 C.2   347  HEM347      0.0000
     13  O1A       11.8090   17.2720   76.6250 O.co2 347  HEM347      0.0000
     14  O2A       12.0350   18.4530   74.7550 O.co2 347  HEM347      0.0000
     15  C1B       19.3180   13.6320   72.8490 C.ar  347  HEM347      0.0000
     16  C2B       20.5670   13.0970   73.0930 C.ar  347  HEM347      0.0000
     17  C3B       20.8650   12.2560   72.0520 C.ar  347  HEM347      0.0000
     18  C4B       19.7770   12.2980   71.1890 C.ar  347  HEM347      0.0000
     19  CMB       21.4570   13.4190   74.3010 C.3   347  HEM347      0.0000
     20  CAB       22.0100   11.4770   71.8680 C.3   347  HEM347      0.0000
     21  CBB       22.8260   11.1150   72.9330 C.3   347  HEM347      0.0000
     22  C1C       18.6180   11.5480   69.1100 C.2   347  HEM347      0.0000
     23  C2C       18.5490   10.8180   67.9310 C.2   347  HEM347      0.0000
     24  C3C       17.3550   11.1000   67.3560 C.2   347  HEM347      0.0000
     25  C4C       16.7210   12.0040   68.1940 C.2   347  HEM347      0.0000
     26  CMC       19.5930    9.8430   67.3950 C.3   347  HEM347      0.0000
     27  CAC       16.8560   10.5700   66.1660 C.3   347  HEM347      0.0000
     28  CBC       17.1560    9.3130   65.6370 C.3   347  HEM347      0.0000
     29  C1D       14.8350   13.4740   68.8480 C.ar  347  HEM347      0.0000
     30  C2D       13.5860   14.0100   68.6320 C.ar  347  HEM347      0.0000
     31  C3D       13.3250   14.8830   69.6280 C.ar  347  HEM347      0.0000
     32  C4D       14.4150   14.8410   70.4730 C.ar  347  HEM347      0.0000
     33  CMD       12.6440   13.7500   67.4560 C.3   347  HEM347      0.0000
     34  CAD       12.0500   15.6850   69.8290 C.3   347  HEM347      0.0000
     35  CBD       11.1910   14.8940   70.8260 C.3   347  HEM347      0.0000
     36  CGD        9.7370   15.3850   70.8680 C.2   347  HEM347      0.0000
     37  O1D        8.8410   14.5590   71.2360 O.co2 347  HEM347      0.0000
     38  O2D        9.5560   16.5920   70.5480 O.co2 347  HEM347      0.0000
     39  NA        16.6490   14.8730   72.4190 N.2   347  HEM347      0.0000
     40  NB        18.8520   13.1430   71.6900 N.ar  347  HEM347      0.0000
     41  NC        17.5030   12.2620   69.2540 N.2   347  HEM347      0.0000
     42  ND        15.3220   13.9840   69.9890 N.ar  347  HEM347      0.0000
     43 FE         17.1180   13.5860   70.8060 Fe    347  HEM347      0.0000
@<TRIPOS>BOND
     1    28    27    1
     2    27    24    1
     3    24    23    2
     4    24    25    1
     5    26    23    1
     6    33    30    1
     7    23    22    1
     8     4    25    1
     9     4    29    2
    10    25    41    2
    11    30    29   ar
    12    30    31   ar
    13    29    42   ar
    14    22    41    1
    15    22     3    2
    16    41    43    1
    17    31    34    1
    18    31    32   ar
    19    34    35    1
    20    42    32   ar
    21    42    43    1
    22     3    18    1
    23    32     1    2
    24    38    36   ar
    25    43    40    1
    26    43    39    1
    27    35    36    1
    28    36    37   ar
    29    18    40   ar
    30    18    17   ar
    31     1     5    1
    32    40    15   ar
    33    20    17    1
    34    20    21    1
    35    17    16   ar
    36    39     5    2
    37    39     8    1
    38     5     6    1
    39    15    16   ar
    40    15     2    1
    41    16    19    1
    42     8     2    2
    43     8     7    1
    44     6     7    2
    45     6    10    1
    46     7     9    1
    47    10    11    1
    48    14    12   ar
    49    11    12    1
    50    12    13   ar
