@<TRIPOS>MOLECULE
3u8q_NPU_A_1.pdb
 11 11 0 0 0
SMALL
GASTEIGER

@<TRIPOS>ATOM
      1  O1        14.3680   16.5560   16.0750 O.3   7231  NPU7231    -0.2167
      2  C2        10.8700   15.2460   16.0010 C.3   7231  NPU7231     0.0236
      3  N2        11.8810   17.0890   17.1880 N.3   7231  NPU7231    -0.1299
      4  CA2       11.9640   16.2900   15.9800 C.3   7231  NPU7231     0.1264
      5  CB2       13.3630   15.6210   15.9240 C.3   7231  NPU7231     0.1916
      6  CD3       13.5460   14.7810   13.3890 C.ar  7231  NPU7231    -0.0018
      7  CD4       14.5870   13.5290   15.1400 C.ar  7231  NPU7231    -0.0018
      8  CE3       13.9930   13.8630   12.4200 C.ar  7231  NPU7231    -0.0002
      9  CE4       15.0640   12.5860   14.2110 C.ar  7231  NPU7231    -0.0002
     10  CG2       13.8020   14.6510   14.7910 C.ar  7231  NPU7231     0.0091
     11  CZ2       14.7620   12.7550   12.8530 C.ar  7231  NPU7231    -0.0000
@<TRIPOS>BOND
     1     8    11   ar
     2     8     6   ar
     3    11     9   ar
     4     6    10   ar
     5     9     7   ar
     6    10     7   ar
     7    10     5    1
     8     5     4    1
     9     5     1    1
    10     4     2    1
    11     4     3    1
