@<TRIPOS>MOLECULE
3u8q_III_B_1.pdb
 44 44 0 0 0
SMALL
GASTEIGER

@<TRIPOS>ATOM
      1  N          4.8260    5.2300   35.1060 N.3   681  LEU681     -0.1231
      2  CA         4.3460    5.9110   33.9100 C.3   681  LEU681      0.1693
      3  C          4.9340    7.3240   33.8460 C.2   681  LEU681      0.2592
      4  O          4.4060    8.1880   33.1450 O.2   681  LEU681     -0.2718
      5  CB         2.8060    5.9530   33.9270 C.3   681  LEU681      0.0284
      6  CG         1.9600    6.4280   32.7340 C.3   681  LEU681      0.0019
      7  CD1        2.3490    5.6930   31.4560 C.3   681  LEU681      0.0001
      8  CD2        0.4910    6.1730   33.0580 C.3   681  LEU681      0.0001
      9  N          6.0260    7.5580   34.5780 N.am  682  GLU682     -0.1966
     10  CA         6.6620    8.8770   34.5700 C.3   682  GLU682      0.1733
     11  C          8.0570    9.0190   35.1960 C.2   682  GLU682      0.2616
     12  O          8.7230   10.0300   34.9750 O.2   682  GLU682     -0.2715
     13  CB         5.7120    9.9150   35.1820 C.3   682  GLU682      0.0429
     14  CG         5.3440    9.6950   36.6370 C.3   682  GLU682      0.1163
     15  CD         3.8990   10.0620   36.9120 C.2   682  GLU682      0.3649
     16  OE1        3.0050    9.3080   36.4720 O.co2 682  GLU682     -0.2457
     17  OE2        3.6560   11.1060   37.5560 O.co2 682  GLU682     -0.2457
     18  N          8.5010    8.0320   35.9720 N.am  683  ALA683     -0.1963
     19  CA         9.8330    8.0830   36.5810 C.3   683  ALA683      0.1728
     20  C         10.7330    7.0590   35.8750 C.2   683  ALA683      0.2616
     21  O         10.2740    6.3600   34.9730 O.2   683  ALA683     -0.2715
     22  CB         9.7460    7.7760   38.0810 C.3   683  ALA683      0.0334
     23  N         12.0030    6.9670   36.2700 N.am  684  CYS684     -0.1954
     24  CA        12.9190    6.0170   35.6310 C.3   684  CYS684      0.1843
     25  C         12.5590    4.5600   35.9210 C.2   684  CYS684      0.2625
     26  O         12.4140    4.1550   37.0760 O.2   684  CYS684     -0.2714
     27  CB        14.3700    6.2940   36.0540 C.3   684  CYS684      0.0997
     28  SG        15.6180    5.0920   35.4650 S.3   684  CYS684     -0.0797
     29  N         12.4220    3.7770   34.8550 N.am  685  ALA685     -0.1963
     30  CA        12.0670    2.3650   34.9650 C.3   685  ALA685      0.1728
     31  C         13.1750    1.5040   35.5620 C.2   685  ALA685      0.2616
     32  O         13.1630    0.2760   35.4330 O.2   685  ALA685     -0.2715
     33  CB        11.6750    1.8260   33.6100 C.3   685  ALA685      0.0334
     34  N         14.1380    2.1600   36.1990 N.am  686  PHE686     -0.1974
     35  CA        15.2520    1.4890   36.8540 C.3   686  PHE686      0.1639
     36  C         15.4770    2.2350   38.1680 C.2   686  PHE686      0.2290
     37  O         16.4290    1.9670   38.8960 O.2   686  PHE686     -0.2864
     38  CB        16.5210    1.5600   36.0000 C.3   686  PHE686      0.0560
     39  CG        16.3890    0.9120   34.6520 C.ar  686  PHE686     -0.0200
     40  CD1       16.1670   -0.4570   34.5420 C.ar  686  PHE686     -0.0042
     41  CD2       16.4990    1.6680   33.4880 C.ar  686  PHE686     -0.0042
     42  CE1       16.0580   -1.0680   33.2930 C.ar  686  PHE686     -0.0003
     43  CE2       16.3910    1.0660   32.2280 C.ar  686  PHE686     -0.0003
     44  CZ        16.1700   -0.3030   32.1330 C.ar  686  PHE686     -0.0000
@<TRIPOS>BOND
     1     7     6    1
     2    44    43   ar
     3    44    42   ar
     4    43    41   ar
     5     6     8    1
     6     6     5    1
     7     4     3    2
     8    42    40   ar
     9    41    39   ar
    10    33    30    1
    11     3     2    1
    12     3     9   am
    13     2     5    1
    14     2     1    1
    15    40    39   ar
    16    10     9    1
    17    10    13    1
    18    10    11    1
    19    39    38    1
    20    29    30    1
    21    29    25   am
    22    30    31    1
    23    21    20    2
    24    12    11    2
    25    13    14    1
    26    11    18   am
    27    32    31    2
    28    28    27    1
    29    31    34   am
    30    24    25    1
    31    24    27    1
    32    24    23    1
    33    20    23   am
    34    20    19    1
    35    25    26    2
    36    18    19    1
    37    38    35    1
    38    34    35    1
    39    16    15   ar
    40    19    22    1
    41    14    15    1
    42    35    36    1
    43    15    17   ar
    44    36    37    2
