@<TRIPOS>MOLECULE
3u8t_III_I_1.pdb
 36 37 0 0 0
SMALL
GASTEIGER

@<TRIPOS>ATOM
      1  N         15.7670  -24.5300  -20.4680 N.3     1  DPN1       -0.1228
      2  CA        17.2080  -24.1990  -20.6410 C.3     1  DPN1        0.1721
      3  C         17.1230  -22.7360  -20.4770 C.2     1  DPN1        0.2437
      4  O         16.4670  -22.2890  -19.5550 O.2     1  DPN1       -0.2733
      5  CB        18.0670  -24.8700  -19.5710 C.3     1  DPN1        0.0547
      6  CG        19.5260  -24.4740  -19.5870 C.ar    1  DPN1       -0.0202
      7  CD1       20.0630  -23.6950  -18.5720 C.ar    1  DPN1       -0.0042
      8  CD2       20.2940  -24.8220  -20.6860 C.ar    1  DPN1       -0.0042
      9  CE1       21.3850  -23.2940  -18.6640 C.ar    1  DPN1       -0.0003
     10  CE2       21.6300  -24.4220  -20.7720 C.ar    1  DPN1       -0.0003
     11  CZ        22.1620  -23.6350  -19.7570 C.ar    1  DPN1       -0.0000
     12  N         17.7550  -21.9490  -21.3700 N.am    2  PRO2       -0.2718
     13  CA        17.6810  -20.4790  -21.3220 C.3     2  PRO2        0.1535
     14  C         16.2480  -19.9920  -21.1720 C.2     2  PRO2        0.2598
     15  O         15.3540  -20.5880  -21.8010 O.2     2  PRO2       -0.2715
     16  CB        18.1920  -20.0520  -22.6990 C.3     2  PRO2        0.0310
     17  CG        19.0590  -21.1500  -23.1390 C.3     2  PRO2        0.0237
     18  CD        18.4820  -22.4330  -22.5550 C.3     2  PRO2        0.0939
     19  N         16.0300  -18.9520  -20.3550 N.am    3  DAR3       -0.1964
     20  CA        14.7500  -18.3390  -20.2180 C.3     3  DAR3        0.1729
     21  CB        13.9160  -18.9610  -19.1330 C.3     3  DAR3        0.0348
     22  CG        13.0060  -18.0130  -18.3600 C.3     3  DAR3        0.0492
     23  CD        12.7180  -18.4200  -16.9000 C.3     3  DAR3        0.2205
     24  NE        12.1450  -19.7650  -16.7610 N.pl3   3  DAR3       -0.0865
     25  CZ        11.5350  -20.1240  -15.5250 C.cat   3  DAR3        0.5346
     26  NH1       11.0090  -21.3650  -15.3980 N.pl3   3  DAR3        0.1354
     27  NH2       11.7540  -19.3950  -14.4640 N.pl3   3  DAR3        0.1354
     28  C         13.9930  -18.3370  -21.5230 C.2     3  DAR3        0.2616
     29  O         12.8230  -18.7990  -21.5750 O.2     3  DAR3       -0.2715
     30  N         14.6340  -17.8240  -22.5790 N.am    4  CYS4       -0.1953
     31  CA        14.0640  -17.8140  -23.9360 C.3     4  CYS4        0.1860
     32  C         12.9220  -16.8050  -24.0200 C.2     4  CYS4        0.2815
     33  O         12.6430  -16.0620  -23.0730 O.2     4  CYS4       -0.2698
     34  CB        13.7320  -19.2110  -24.4000 C.3     4  CYS4        0.0997
     35  SG        13.1460  -19.5330  -26.0650 S.3     4  CYS4       -0.0797
     36  N         12.2520  -16.6060  -25.2860 N.am    5  NH25       -0.0863
@<TRIPOS>BOND
     1    35    34    1
     2    36    32   am
     3    34    31    1
     4    32    31    1
     5    32    33    2
     6    31    30    1
     7    17    16    1
     8    17    18    1
     9    16    13    1
    10    30    28   am
    11    18    12    1
    12    15    14    2
    13    29    28    2
    14    28    20    1
    15    12    13    1
    16    12     3   am
    17    13    14    1
    18    14    19   am
    19    10     8   ar
    20    10    11   ar
    21     8     6   ar
    22     2     3    1
    23     2     1    1
    24     2     5    1
    25     3     4    2
    26    19    20    1
    27    20    21    1
    28    11     9   ar
    29     6     5    1
    30     6     7   ar
    31    21    22    1
    32     9     7   ar
    33    22    23    1
    34    23    24    1
    35    24    25    2
    36    25    26    1
    37    25    27    1
