@<TRIPOS>MOLECULE
3u8w_09J_A_1.pdb
 33 37 0 0 0
SMALL
GASTEIGER

@<TRIPOS>ATOM
      1  C23        7.7050  -25.2730  -25.8720 C.3   500  09J500      0.0234
      2  C24        6.5200  -25.8870  -25.1300 C.3   500  09J500      0.0234
      3  C22        6.3280  -25.3300  -26.5450 C.3   500  09J500      0.0957
      4  N5         6.1540  -26.3110  -27.6450 N.am  500  09J500     -0.2034
      5  C21        5.1370  -27.1850  -27.7210 C.2   500  09J500      0.2647
      6  O2         4.2480  -27.2820  -26.8780 O.2   500  09J500     -0.2684
      7  C11        5.1110  -28.1080  -28.9590 C.ar  500  09J500      0.0550
      8  C10        3.9240  -28.7730  -29.2710 C.ar  500  09J500      0.0044
      9  C12        6.2260  -28.2920  -29.7800 C.ar  500  09J500      0.0042
     10  C13        6.1420  -29.1360  -30.8900 C.ar  500  09J500     -0.0041
     11  C14        4.9500  -29.8000  -31.1960 C.ar  500  09J500     -0.0217
     12  C20        4.9240  -30.7060  -32.4300 C.3   500  09J500      0.0310
     13  C9         3.8220  -29.6210  -30.3770 C.ar  500  09J500      0.0009
     14  C4         2.5700  -30.2300  -30.5780 C.ar  500  09J500      0.0603
     15  C5         2.2640  -31.4420  -29.9660 C.ar  500  09J500      0.0454
     16  C3         1.5720  -29.6230  -31.3480 C.ar  500  09J500      0.2753
     17  O1         1.8110  -28.5430  -31.8930 O.2   500  09J500     -0.2656
     18  N4         0.2910  -30.2580  -31.5150 N.ar  500  09J500     -0.2299
     19  C7        -0.7270  -29.5650  -32.3570 C.3   500  09J500      0.1293
     20  C8        -0.5780  -29.9310  -33.8380 C.3   500  09J500      0.0285
     21  N3         0.0330  -31.3510  -30.9630 N.ar  500  09J500     -0.2084
     22  C1         0.9990  -32.0000  -30.1670 C.ar  500  09J500      0.1850
     23  N1         0.4540  -33.1340  -29.7200 N.ar  500  09J500     -0.1270
     24  N2        -0.7020  -33.2690  -30.1310 N.ar  500  09J500     -0.1269
     25  C2        -1.0690  -32.2430  -30.8930 C.ar  500  09J500      0.1878
     26  C6        -2.3270  -32.1000  -31.5010 C.ar  500  09J500      0.0755
     27  C15       -3.3680  -31.4210  -30.8510 C.ar  500  09J500      0.0628
     28 CL1        -3.1410  -30.7060  -29.2930 Cl    500  09J500     -0.0821
     29  C16       -4.6190  -31.2880  -31.4600 C.ar  500  09J500      0.0116
     30  C17       -4.8510  -31.8420  -32.7150 C.ar  500  09J500      0.0032
     31  C18       -3.8240  -32.5250  -33.3630 C.ar  500  09J500      0.0298
     32  C19       -2.5760  -32.6570  -32.7550 C.ar  500  09J500      0.1439
     33  F1        -1.5960  -33.3120  -33.3940 F     500  09J500     -0.2040
@<TRIPOS>BOND
     1    20    19    1
     2    33    32    1
     3    31    32   ar
     4    31    30   ar
     5    32    26   ar
     6    30    29   ar
     7    12    11    1
     8    19    18    1
     9    17    16    2
    10    18    16   ar
    11    18    21   ar
    12    26    25    1
    13    26    27   ar
    14    29    27   ar
    15    16    14   ar
    16    11    10   ar
    17    11    13   ar
    18    21    25   ar
    19    21    22   ar
    20    25    24   ar
    21    10     9   ar
    22    27    28    1
    23    14    13    1
    24    14    15   ar
    25    13     8   ar
    26    22    15   ar
    27    22    23   ar
    28    24    23   ar
    29     9     7   ar
    30     8     7   ar
    31     7     5    1
    32     5     4   am
    33     5     6    2
    34     4     3    1
    35     3     1    1
    36     3     2    1
    37     1     2    1
