@<TRIPOS>MOLECULE
3u8x_ATP_A_1.pdb
 31 33 0 0 0
SMALL
GASTEIGER

@<TRIPOS>ATOM
      1  PG         9.5970    2.6930   51.4140 P.3   501  ATP501      0.5373
      2  O1G       10.8890    2.2640   50.6990 O.2   501  ATP501     -0.2221
      3  O2G        8.4750    1.5940   51.2050 O.3   501  ATP501     -0.1143
      4  O3G        9.9970    2.8390   52.8140 O.3   501  ATP501     -0.1143
      5  PB        10.4770    4.9340   50.2660 P.3   501  ATP501      0.2277
      6  O1B       11.7010    4.1400   50.7500 O.3   501  ATP501     -0.4368
      7  O2B       10.3690    4.9530   48.7090 O.2   501  ATP501     -0.5168
      8  O3B        9.2090    4.2560   50.8350 O.3   501  ATP501     -0.2258
      9  PA        11.9730    7.2770   51.0330 P.3   501  ATP501      0.2189
     10  O1A       12.4020    6.8930   52.4400 O.3   501  ATP501     -0.4371
     11  O2A       13.1050    7.0930   50.0060 O.2   501  ATP501     -0.5170
     12  O3A       10.5970    6.4860   50.8120 O.3   501  ATP501     -0.2700
     13  O5'       11.4670    8.7360   51.2160 O.3   501  ATP501     -0.3112
     14  C5'       10.5570    9.2160   50.2770 C.3   501  ATP501      0.1813
     15  C4'        9.8610   10.4390   50.7600 C.3   501  ATP501      0.1821
     16  O4'       10.7580   11.1990   51.5570 O.3   501  ATP501     -0.3135
     17  C3'        9.6340   11.2970   49.4870 C.3   501  ATP501      0.2184
     18  O3'        8.2660   11.2960   49.1080 O.3   501  ATP501     -0.2174
     19  C2'       10.0850   12.6820   49.8210 C.3   501  ATP501      0.2570
     20  O2'        9.0290   13.6120   49.4600 O.3   501  ATP501     -0.2130
     21  C1'       10.4380   12.6130   51.3040 C.3   501  ATP501      0.3186
     22  N9        11.6190   13.5200   51.5310 N.pl3 501  ATP501     -0.1439
     23  C8        12.8150   13.4320   50.9370 C.3   501  ATP501      0.3377
     24  N7        13.6540   14.4440   51.3190 N.2   501  ATP501     -0.2095
     25  C5        12.9220   15.1880   52.2330 C.2   501  ATP501      0.2526
     26  C6        13.1300   16.3740   53.0760 C.2   501  ATP501      0.4393
     27  N6        14.3030   17.0630   53.0880 N.pl3 501  ATP501      0.2180
     28  N1        12.1120   16.8030   53.8520 N.2   501  ATP501      0.0021
     29  C2        10.9010   16.2020   53.9100 C.3   501  ATP501      0.5254
     30  N3        10.6130   15.0940   53.2070 N.2   501  ATP501     -0.0055
     31  C4        11.5760   14.5920   52.3310 C.2   501  ATP501      0.3518
@<TRIPOS>BOND
     1     7     5    2
     2    18    17    1
     3    20    19    1
     4    17    19    1
     5    17    15    1
     6    19    21    1
     7    11     9    2
     8     5     6    1
     9     5    12    1
    10     5     8    1
    11    14    15    1
    12    14    13    1
    13     2     1    2
    14    15    16    1
    15    12     9    1
    16     8     1    1
    17    23    24    1
    18    23    22    1
    19     9    13    1
    20     9    10    1
    21     3     1    1
    22    21    22    1
    23    21    16    1
    24    24    25    2
    25     1     4    1
    26    22    31    1
    27    25    31    1
    28    25    26    1
    29    31    30    2
    30    26    27    1
    31    26    28    2
    32    30    29    1
    33    28    29    1
