@<TRIPOS>MOLECULE
3u90_SDS_A_1.pdb
 17 16 0 0 0
SMALL
GASTEIGER

@<TRIPOS>ATOM
      1  S         34.4850    0.7670   29.4020 S.3   175  SDS175     -0.0001
      2  O1S       35.3350    0.2190   28.3760 O.2   175  SDS175     -0.3452
      3  O2S       34.7070    0.1030   30.6940 O.3   175  SDS175     -0.2412
      4  O3S       34.7570    2.1760   29.5450 O.3   175  SDS175     -0.2682
      5  O4        33.0800    0.5270   29.0420 O.2   175  SDS175     -0.3452
      6  C1        35.8860    0.3440   31.3730 C.3   175  SDS175      0.1725
      7  C2        28.9420   -0.2360   34.4220 C.3   175  SDS175      0.0000
      8  C3        30.3060    0.3250   34.6520 C.3   175  SDS175      0.0000
      9  C4        31.0460   -0.5080   35.6470 C.3   175  SDS175      0.0000
     10  C5        32.4650   -0.0470   35.7140 C.3   175  SDS175      0.0000
     11  C6        33.1120   -0.5480   36.9610 C.3   175  SDS175      0.0000
     12  C7        34.3080    0.2840   37.2880 C.3   175  SDS175      0.0000
     13  C8        35.5590   -0.4120   36.8630 C.3   175  SDS175      0.0000
     14  C9        36.2760    0.4100   35.8470 C.3   175  SDS175      0.0000
     15  C10       36.9770   -0.4810   34.8740 C.3   175  SDS175      0.0001
     16  C11       37.0310    0.1710   33.5310 C.3   175  SDS175      0.0027
     17  C12       35.7440   -0.0480   32.8070 C.3   175  SDS175      0.0346
@<TRIPOS>BOND
     1     2     1    2
     2     5     1    2
     3     1     4    1
     4     1     3    1
     5     3     6    1
     6     6    17    1
     7    17    16    1
     8    16    15    1
     9     7     8    1
    10     8     9    1
    11    15    14    1
    12     9    10    1
    13    10    11    1
    14    14    13    1
    15    13    12    1
    16    11    12    1
