@<TRIPOS>MOLECULE
3u92_KAI_A_1.pdb
 28 28 0 0 0
SMALL
GASTEIGER

@<TRIPOS>ATOM
      1  N         44.2120   34.7670   16.9680 N.3   258  KAI258     -0.3032
      2  CD        45.5870   35.2750   17.0840 C.3   258  KAI258      0.0035
      3  CD1       47.3110   36.1150   20.4660 C.2   258  KAI258     -0.0994
      4  CD2       48.2810   35.9450   18.1800 C.3   258  KAI258     -0.0437
      5  CA        43.7470   34.5300   18.3200 C.3   258  KAI258      0.1141
      6  CB        44.9360   34.6980   19.2120 C.3   258  KAI258      0.0027
      7  CB1       45.7580   33.4380   19.3810 C.3   258  KAI258      0.0545
      8  CG        45.6890   35.7510   18.4960 C.3   258  KAI258     -0.0026
      9  CG1       45.2000   32.3080   20.2680 C.2   258  KAI258      0.3564
     10  CG2       47.1410   35.9750   19.0540 C.2   258  KAI258     -0.0751
     11  C         42.6500   35.4850   18.6960 C.2   258  KAI258      0.3729
     12  O         42.1320   36.1830   17.7910 O.co2 258  KAI258     -0.2446
     13  OD1       44.2540   32.5480   21.0770 O.co2 258  KAI258     -0.2464
     14  OD2       45.6970   31.1250   20.1910 O.co2 258  KAI258     -0.2464
     15  OXT       42.2350   35.5780   19.8920 O.co2 258  KAI258     -0.2446
     16  HN1       43.6550   34.6760   16.2620 H     258  KAI258      0.1227
     17  HD1       46.2260   34.5660   16.9210 H     258  KAI258      0.0430
     18  HD2       45.7380   35.9910   16.4580 H     258  KAI258      0.0430
     19 HD11       46.5110   36.1040   21.0720 H     258  KAI258      0.0534
     20 HD12       48.1920   36.2210   20.8360 H     258  KAI258      0.0534
     21 HD21       48.5620   35.0240   18.0400 H     258  KAI258      0.0274
     22 HD22       48.0400   36.3480   17.3160 H     258  KAI258      0.0274
     23 HD23       49.0090   36.4480   18.5810 H     258  KAI258      0.0274
     24  HA        43.4310   33.6320   18.4230 H     258  KAI258      0.0581
     25  HB        44.6240   35.0550   20.0680 H     258  KAI258      0.0333
     26 HB11       46.6110   33.6900   19.7310 H     258  KAI258      0.0382
     27 HB12       45.9000   33.0580   18.4750 H     258  KAI258      0.0382
     28  HG        45.2130   36.6000   18.5610 H     258  KAI258      0.0361
@<TRIPOS>BOND
     1    16     1    1
     2    18     2    1
     3    17     2    1
     4     1     2    1
     5     1     5    1
     6     2     8    1
     7    22     4    1
     8    12    11   ar
     9    21     4    1
    10     4    23    1
    11     4    10    1
    12     5    24    1
    13     5    11    1
    14     5     6    1
    15    27     7    1
    16     8    28    1
    17     8    10    1
    18     8     6    1
    19    11    15   ar
    20    10     3    2
    21     6     7    1
    22     6    25    1
    23     7    26    1
    24     7     9    1
    25    14     9   ar
    26     9    13   ar
    27     3    20    1
    28     3    19    1
