@<TRIPOS>MOLECULE
3u93_GLU_A_1.pdb
 18 17 0 0 0
SMALL
GASTEIGER

@<TRIPOS>ATOM
      1  N         20.9800   21.2130   16.9410 N.4   258  GLU258      0.3871
      2  CA        21.4550   21.4220   18.3350 C.3   258  GLU258      0.0210
      3  C         22.6450   20.5360   18.6690 C.2   258  GLU258      0.3420
      4  O         23.2060   19.8910   17.7910 O.co2 258  GLU258     -0.2483
      5  CB        20.3100   21.1470   19.3080 C.3   258  GLU258     -0.0458
      6  CG        19.3090   22.2970   19.3870 C.3   258  GLU258      0.0482
      7  CD        19.8730   23.5000   20.1140 C.2   258  GLU258      0.3560
      8  OE1       20.8290   23.3140   20.8960 O.co2 258  GLU258     -0.2464
      9  OE2       19.3550   24.6260   19.9180 O.co2 258  GLU258     -0.2464
     10  OXT       23.0680   20.4430   19.8220 O.co2 258  GLU258     -0.2483
     11  H1        21.6590   21.5010   16.3250 H     258  GLU258     -0.0889
     12  H2        20.7970   20.2810   16.8020 H     258  GLU258     -0.0889
     13  H         20.1790   21.7220   16.7950 H     258  GLU258     -0.0889
     14  HA        21.7300   22.3570   18.4430 H     258  GLU258      0.0198
     15  HB2       19.8320   20.3540   19.0180 H     258  GLU258      0.0259
     16  HB3       20.6760   21.0080   20.1950 H     258  GLU258      0.0259
     17  HG2       19.0690   22.5720   18.4880 H     258  GLU258      0.0378
     18  HG3       18.5190   21.9990   19.8660 H     258  GLU258      0.0378
@<TRIPOS>BOND
     1    11     1    1
     2    13     1    1
     3    12     1    1
     4     1     2    1
     5     4     3   ar
     6     2    14    1
     7     2     3    1
     8     2     5    1
     9    17     6    1
    10     3    10   ar
    11    15     5    1
    12     5     6    1
    13     5    16    1
    14     6    18    1
    15     6     7    1
    16     9     7   ar
    17     7     8   ar
