@<TRIPOS>MOLECULE
3u94_GLU_A_1.pdb
 18 17 0 0 0
SMALL
GASTEIGER

@<TRIPOS>ATOM
      1  N         16.1410   21.3420  109.1850 N.4   258  GLU258      0.3871
      2  CA        17.5470   21.4750  108.7660 C.3   258  GLU258      0.0210
      3  C         17.8500   20.5610  107.6110 C.2   258  GLU258      0.3420
      4  O         16.9170   19.9510  107.0690 O.co2 258  GLU258     -0.2483
      5  CB        18.4760   21.1670  109.9550 C.3   258  GLU258     -0.0458
      6  CG        18.4810   22.3530  110.9510 C.3   258  GLU258      0.0482
      7  CD        19.2050   23.5900  110.3990 C.2   258  GLU258      0.3560
      8  OE1       19.9870   23.4500  109.4200 O.co2 258  GLU258     -0.2464
      9  OE2       19.0010   24.6960  110.9750 O.co2 258  GLU258     -0.2464
     10  OXT       19.0050   20.4280  107.2100 O.co2 258  GLU258     -0.2483
     11  H1        15.7240   22.2060  109.1840 H     258  GLU258     -0.0889
     12  H2        15.6780   20.7630  108.5740 H     258  GLU258     -0.0889
     13  H         16.1040   20.9690  110.0690 H     258  GLU258     -0.0889
     14  HA        17.7120   22.3970  108.4780 H     258  GLU258      0.0198
     15  HB2       18.1580   20.3770  110.4190 H     258  GLU258      0.0259
     16  HB3       19.3810   21.0320  109.6330 H     258  GLU258      0.0259
     17  HG2       17.5650   22.6050  111.1480 H     258  GLU258      0.0378
     18  HG3       18.9320   22.0800  111.7650 H     258  GLU258      0.0378
@<TRIPOS>BOND
     1     4     3   ar
     2    10     3   ar
     3     3     2    1
     4    14     2    1
     5    12     1    1
     6     2     1    1
     7     2     5    1
     8    11     1    1
     9     1    13    1
    10     8     7   ar
    11    16     5    1
    12     5    15    1
    13     5     6    1
    14     7     6    1
    15     7     9   ar
    16     6    17    1
    17     6    18    1
