@<TRIPOS>MOLECULE
3u96_CSN_A_1.pdb
 15 15 0 0 0
SMALL
GASTEIGER

@<TRIPOS>ATOM
      1  S1        -9.7510   -1.1760    1.8090 S.3     1  CSN1        0.0426
      2  O4       -11.2050   -1.2400    2.3430 O.3     1  CSN1       -0.3559
      3  O3        -9.1970    0.1820    1.8560 O.2     1  CSN1       -0.3360
      4  O2        -9.0700   -2.1020    2.7180 O.3     1  CSN1       -0.2589
      5  O1        -9.7570   -1.6900    0.4120 O.2     1  CSN1       -0.3360
      6  O7       -12.5800   -3.0050    0.8880 O.3     1  CSN1       -0.2832
      7  O6       -13.7450    3.0850    1.7290 O.2     1  CSN1       -0.1261
      8  O5       -13.9610    2.9090   -0.3570 O.2     1  CSN1       -0.1261
      9  C6       -12.4600    0.5810    1.5440 C.ar    1  CSN1        0.0672
     10  N1       -13.7540    2.3950    0.7180 N.pl3   1  CSN1        0.0578
     11  C3       -13.9420   -1.2280   -0.0290 C.ar    1  CSN1        0.0470
     12  C1       -12.2010   -0.7730    1.5600 C.ar    1  CSN1        0.2117
     13  C4       -14.2290    0.1430   -0.0540 C.ar    1  CSN1        0.0276
     14  C2       -12.9130   -1.6830    0.7840 C.ar    1  CSN1        0.2322
     15  C5       -13.4960    1.0310    0.7360 C.ar    1  CSN1        0.1462
@<TRIPOS>BOND
     1     8    10    2
     2    13    11   ar
     3    13    15   ar
     4    11    14   ar
     5     5     1    2
     6    10    15    1
     7    10     7    2
     8    15     9   ar
     9    14     6    1
    10    14    12   ar
    11     9    12   ar
    12    12     2    1
    13     1     3    2
    14     1     2    1
    15     1     4    1
