@<TRIPOS>MOLECULE
3u98_BJA_H_1.pdb
 39 41 0 0 0
SMALL
GASTEIGER

@<TRIPOS>ATOM
      1  C7        14.5810  -15.8200   21.2600 C.3     1  BJA1        0.1969
      2  S8        15.3250  -17.0790   22.0950 S.O2    1  BJA1        0.0620
      3  C4        13.6010  -16.2930   20.1980 C.ar    1  BJA1        0.0030
      4  C5        12.2360  -16.3080   20.4690 C.ar    1  BJA1       -0.0025
      5  C6        11.3310  -16.7410   19.5020 C.ar    1  BJA1       -0.0003
      6  C1        11.7910  -17.1490   18.2560 C.ar    1  BJA1       -0.0000
      7  C2        13.1520  -17.1270   17.9780 C.ar    1  BJA1       -0.0003
      8  C3        14.0560  -16.6960   18.9480 C.ar    1  BJA1       -0.0025
      9  O28       14.2740  -17.8360   22.7050 O.2     1  BJA1       -0.1558
     10  O29       16.1860  -17.8580   21.2430 O.2     1  BJA1       -0.1558
     11  N9        16.1740  -16.4390   23.3210 N.3     1  BJA1       -0.0739
     12  C10       17.4860  -15.8360   23.1590 C.3     1  BJA1        0.1734
     13  C30       18.1370  -15.6090   24.5250 C.3     1  BJA1        0.0324
     14  C31       17.9760  -16.7620   25.5130 C.3     1  BJA1        0.0489
     15  C32       18.7660  -16.4390   26.7880 C.3     1  BJA1        0.2205
     16  N33       18.5070  -17.5220   27.7250 N.pl3   1  BJA1       -0.0865
     17  C34       19.2440  -18.6200   27.8860 C.cat   1  BJA1        0.5346
     18  N36       18.8960  -19.5280   28.7920 N.pl3   1  BJA1        0.1354
     19  N35       20.2620  -18.8040   27.1630 N.pl3   1  BJA1        0.1354
     20  C11       17.3770  -14.4950   22.4830 C.2     1  BJA1        0.2437
     21  O27       16.4050  -13.7770   22.7230 O.2     1  BJA1       -0.2733
     22  N12       18.3410  -14.1080   21.6460 N.am    1  BJA1       -0.2718
     23  C13       18.2460  -12.8130   20.9670 C.3     1  BJA1        0.1535
     24  C17       16.9560  -12.7380   20.2090 C.2     1  BJA1        0.2598
     25  O26       16.5520  -13.6880   19.5630 O.2     1  BJA1       -0.2715
     26  C14       19.4060  -12.7810   19.9820 C.3     1  BJA1        0.0310
     27  C15       20.3780  -13.8360   20.4850 C.3     1  BJA1        0.0237
     28  C16       19.5540  -14.8460   21.2690 C.3     1  BJA1        0.0939
     29  N18       16.2590  -11.6040   20.3070 N.am    1  BJA1       -0.1992
     30  C19       14.9760  -11.3600   19.6530 C.3     1  BJA1        0.1415
     31  C20       13.9070  -11.3460   20.7180 C.ar    1  BJA1       -0.0006
     32  C25       13.6490  -10.1990   21.4550 C.ar    1  BJA1       -0.0023
     33  C24       12.6720  -10.2100   22.4420 C.ar    1  BJA1        0.0077
     34  C23       11.9480  -11.3580   22.7130 C.ar    1  BJA1        0.0975
     35  C37       10.9000  -11.3480   23.7830 C.2     1  BJA1        0.4766
     36  N38       10.6520  -10.2850   24.4070 N.pl3   1  BJA1        0.2047
     37  N39       10.2370  -12.4650   24.0970 N.pl3   1  BJA1        0.2047
     38  C22       12.2090  -12.5100   21.9850 C.ar    1  BJA1        0.0077
     39  C21       13.1880  -12.4950   21.0000 C.ar    1  BJA1       -0.0023
@<TRIPOS>BOND
     1     7     6   ar
     2     7     8   ar
     3     6     5   ar
     4     8     3   ar
     5     5     4   ar
     6    25    24    2
     7    30    29    1
     8    30    31    1
     9    26    27    1
    10    26    23    1
    11     3     4   ar
    12     3     1    1
    13    24    29   am
    14    24    23    1
    15    27    28    1
    16    31    39   ar
    17    31    32   ar
    18    23    22    1
    19    39    38   ar
    20    10     2    2
    21     1     2    1
    22    28    22    1
    23    32    33   ar
    24    22    20   am
    25    38    34   ar
    26     2     9    2
    27     2    11    1
    28    33    34   ar
    29    20    21    2
    30    20    12    1
    31    34    35    1
    32    12    11    1
    33    12    13    1
    34    35    37    2
    35    35    36    1
    36    13    14    1
    37    14    15    1
    38    15    16    1
    39    19    17    1
    40    16    17    2
    41    17    18    1
