@<TRIPOS>MOLECULE
3u9a_S33_H_1.pdb
 47 50 0 0 0
SMALL
GASTEIGER

@<TRIPOS>ATOM
      1  S26       17.8780  -15.8350   24.7990 S.O2    1  S331        0.0773
      2 CL4        20.7920  -11.7680   26.8030 Cl      1  S331       -0.0790
      3  C1        19.2500  -14.9910   24.8640 C.ar    1  S331        0.1246
      4  C45       23.9150  -13.0610   24.1780 C.3     1  S331        0.2525
      5  O44       22.7940  -12.7940   25.0210 O.3     1  S331       -0.4706
      6  C43       21.6460  -13.5460   24.9350 C.ar    1  S331        0.1492
      7  O5        17.2570  -15.8000   26.0770 O.2     1  S331       -0.1516
      8  O42       18.1580  -17.1570   24.3160 O.2     1  S331       -0.1516
      9  C47       20.3310  -15.3550   24.0550 C.ar    1  S331        0.0231
     10  C40       19.3810  -13.8930   25.7060 C.ar    1  S331        0.0344
     11  C46       21.5310  -14.6400   24.0860 C.ar    1  S331        0.0391
     12  C41       20.5810  -13.1870   25.7370 C.ar    1  S331        0.0928
     13  C8        17.0540  -13.3900   22.0950 C.2     1  S331        0.2442
     14  N3        16.8570  -15.1320   23.7740 N.3     1  S331       -0.0694
     15  O9        16.1190  -12.8020   22.6230 O.2     1  S331       -0.2733
     16  C31       14.4680  -18.6790   21.7690 C.3     1  S331        0.1415
     17  C32       14.3070  -19.0610   23.2190 C.ar    1  S331       -0.0005
     18  C33       13.1480  -19.7230   23.6150 C.ar    1  S331       -0.0019
     19  C34       12.9670  -20.0800   24.9470 C.ar    1  S331        0.0100
     20  C35       13.9500  -19.7760   25.8800 C.ar    1  S331        0.0684
     21  C36       15.1060  -19.1120   25.4830 C.ar    1  S331        0.0100
     22  C37       15.2870  -18.7530   24.1540 C.ar    1  S331       -0.0019
     23  C38       13.7870  -20.1160   27.1100 C.1     1  S331        0.1004
     24  N39       13.6360  -20.4240   28.2170 N.1     1  S331       -0.1908
     25  C6        17.3720  -14.8090   22.4690 C.3     1  S331        0.1827
     26  C7        16.8770  -15.7490   21.3630 C.3     1  S331        0.1154
     27  C28       15.5710  -16.4700   21.6200 C.2     1  S331        0.2437
     28  O29       14.5340  -15.8680   21.8530 O.2     1  S331       -0.2733
     29  N30       15.6140  -17.8020   21.5750 N.am    1  S331       -0.2005
     30  N10       17.8540  -12.8400   21.1930 N.am    1  S331       -0.2718
     31  C11       17.5880  -11.4750   20.7530 C.3     1  S331        0.1535
     32  C15       16.1450  -11.3430   20.3450 C.2     1  S331        0.2598
     33  O16       15.5550  -12.2120   19.7090 O.2     1  S331       -0.2715
     34  C12       18.4950  -11.3140   19.5340 C.3     1  S331        0.0310
     35  C13       19.6100  -12.3330   19.7060 C.3     1  S331        0.0237
     36  C14       18.9940  -13.4610   20.5180 C.3     1  S331        0.0939
     37  N17       15.5010  -10.2350   20.7070 N.am    1  S331       -0.1992
     38  C18       14.1060   -9.9910   20.3600 C.3     1  S331        0.1413
     39  C19       13.2170   -9.9830   21.5820 C.ar    1  S331       -0.0023
     40  C20       12.4600  -11.0910   21.9140 C.ar    1  S331       -0.0054
     41  C25       12.5290  -12.3510   21.0730 C.3     1  S331        0.1354
     42  N27       13.1310  -13.4360   21.8480 N.3     1  S331       -0.1262
     43  C21       11.6470  -11.0940   23.0390 C.ar    1  S331       -0.0022
     44  C22       11.5540   -9.9650   23.8470 C.ar    1  S331        0.0111
     45  C23       12.3310   -8.8660   23.5040 C.ar    1  S331        0.0574
     46 CL2        12.2550   -7.4000   24.5180 Cl      1  S331       -0.0823
     47  C24       13.1500   -8.8540   22.3850 C.ar    1  S331        0.0086
@<TRIPOS>BOND
     1    34    35    1
     2    34    31    1
     3    35    36    1
     4    33    32    2
     5    32    37   am
     6    32    31    1
     7    38    37    1
     8    38    39    1
     9    36    30    1
    10    31    30    1
    11    41    42    1
    12    41    40    1
    13    30    13   am
    14    26    27    1
    15    26    25    1
    16    29    27   am
    17    29    16    1
    18    39    40   ar
    19    39    47   ar
    20    27    28    2
    21    16    17    1
    22    40    43   ar
    23    13    25    1
    24    13    15    2
    25    47    45   ar
    26    25    14    1
    27    43    44   ar
    28    17    18   ar
    29    17    22   ar
    30    45    44   ar
    31    45    46    1
    32    18    19   ar
    33    14     1    1
    34     9    11   ar
    35     9     3   ar
    36    11     6   ar
    37    22    21   ar
    38     4     5    1
    39     8     1    2
    40     1     3    1
    41     1     7    2
    42     3    10   ar
    43     6     5    1
    44     6    12   ar
    45    19    20   ar
    46    21    20   ar
    47    10    12   ar
    48    12     2    1
    49    20    23    1
    50    23    24    3
