@<TRIPOS>MOLECULE
3u9c_04G_A_1.pdb
 16 18 0 0 0
SMALL
GASTEIGER

@<TRIPOS>ATOM
      1  O4        47.1010   -2.1770   43.1530 O.2   404  04G404     -0.2868
      2  O5        45.1650   -4.9940   39.7680 O.2   404  04G404     -0.4488
      3  N6        47.0150   -4.0860   37.8800 N.2   404  04G404     -0.4037
      4  O6        43.1090   -7.8660   36.5080 O.2   404  04G404     -0.2868
      5  C21       48.0040   -2.6470   39.6150 C.3   404  04G404      0.0915
      6  C22       48.0160   -2.1780   40.9280 C.2   404  04G404      0.0235
      7  C23       47.0790   -2.6470   41.8590 C.2   404  04G404      0.1950
      8  C24       46.1270   -3.5870   41.4700 C.2   404  04G404      0.0815
      9  C25       46.1110   -4.0700   40.1240 C.2   404  04G404      0.1740
     10  C26       47.0300   -3.6090   39.2170 C.2   404  04G404      0.1475
     11  C27       46.0240   -5.0430   37.5390 C.2   404  04G404      0.1475
     12  C28       45.1280   -5.4720   38.4850 C.2   404  04G404      0.1740
     13  C29       44.1300   -6.4350   38.1390 C.2   404  04G404      0.0815
     14  C30       44.0690   -6.9380   36.8400 C.2   404  04G404      0.1950
     15  C31       44.9860   -6.5000   35.8740 C.2   404  04G404      0.0235
     16  C32       45.9610   -5.5590   36.2100 C.3   404  04G404      0.0915
@<TRIPOS>BOND
     1    15    16    1
     2    15    14    2
     3    16    11    1
     4     4    14    1
     5    14    13    1
     6    11     3    2
     7    11    12    1
     8     3    10    2
     9    13    12    2
    10    12     2    1
    11    10     5    1
    12    10     9    1
    13     5     6    1
    14     2     9    1
    15     9     8    2
    16     6     7    2
    17     8     7    1
    18     7     1    1
