@<TRIPOS>MOLECULE
3u9d_ATP_A_1.pdb
 31 33 0 0 0
SMALL
GASTEIGER

@<TRIPOS>ATOM
      1  PG       -14.3980    3.0040  -13.7440 P.3   501  ATP501      0.5373
      2  O1G      -13.9450    2.5530  -15.1220 O.2   501  ATP501     -0.2221
      3  O2G      -15.8910    3.2320  -13.6110 O.3   501  ATP501     -0.1143
      4  O3G      -13.6850    2.2720  -12.6290 O.3   501  ATP501     -0.1143
      5  PB       -12.3590    4.5860  -14.3640 P.3   501  ATP501      0.2277
      6  O1B      -11.4070    3.5800  -13.7630 O.3   501  ATP501     -0.4368
      7  O2B      -12.6450    4.5110  -15.8390 O.2   501  ATP501     -0.5168
      8  O3B      -13.7520    4.4380  -13.5920 O.3   501  ATP501     -0.2258
      9  PA       -10.8920    6.9920  -13.5340 P.3   501  ATP501      0.2189
     10  O1A      -10.4190    6.6950  -12.1590 O.3   501  ATP501     -0.4371
     11  O2A       -9.9300    6.9460  -14.7080 O.2   501  ATP501     -0.5170
     12  O3A      -12.1980    6.1180  -13.8660 O.3   501  ATP501     -0.2700
     13  O5'      -11.5510    8.4770  -13.4660 O.3   501  ATP501     -0.3112
     14  C5'      -12.2800    9.0540  -14.5580 C.3   501  ATP501      0.1813
     15  C4'      -13.4280    9.8780  -13.9780 C.3   501  ATP501      0.1821
     16  O4'      -12.9040   10.7370  -12.9780 O.3   501  ATP501     -0.3135
     17  C3'      -14.1130   10.7840  -14.9830 C.3   501  ATP501      0.2184
     18  O3'      -15.5050   10.7270  -14.7030 O.3   501  ATP501     -0.2174
     19  C2'      -13.6470   12.2000  -14.6950 C.3   501  ATP501      0.2570
     20  O2'      -14.7100   13.1490  -14.7820 O.3   501  ATP501     -0.2130
     21  C1'      -13.1310   12.1230  -13.2690 C.3   501  ATP501      0.3186
     22  N9       -11.9070   12.9660  -13.2200 N.pl3 501  ATP501     -0.1439
     23  C8       -10.8620   12.8820  -14.0590 C.3   501  ATP501      0.3377
     24  N7        -9.9230   13.8350  -13.7660 N.2   501  ATP501     -0.2095
     25  C5       -10.3860   14.5400  -12.7240 C.2   501  ATP501      0.2526
     26  C6        -9.8960   15.6760  -11.9210 C.2   501  ATP501      0.4393
     27  N6        -8.6870   16.2510  -12.1830 N.pl3 501  ATP501      0.2180
     28  N1       -10.6970   16.1200  -10.9340 N.2   501  ATP501      0.0021
     29  C2       -11.8780   15.5450  -10.6710 C.3   501  ATP501      0.5254
     30  N3       -12.3740   14.5140  -11.3590 N.2   501  ATP501     -0.0055
     31  C4       -11.6930   13.9770  -12.3800 C.2   501  ATP501      0.3518
@<TRIPOS>BOND
     1     7     5    2
     2     2     1    2
     3    17    18    1
     4    17    19    1
     5    17    15    1
     6    20    19    1
     7    11     9    2
     8    19    21    1
     9    14    15    1
    10    14    13    1
    11     5    12    1
    12     5     6    1
    13     5     8    1
    14    23    24    1
    15    23    22    1
    16    15    16    1
    17    12     9    1
    18    24    25    2
    19     1     3    1
    20     1     8    1
    21     1     4    1
    22     9    13    1
    23     9    10    1
    24    21    22    1
    25    21    16    1
    26    22    31    1
    27    25    31    1
    28    25    26    1
    29    31    30    2
    30    27    26    1
    31    26    28    2
    32    30    29    1
    33    28    29    1
