@<TRIPOS>MOLECULE
3u9e_ARG_B_1.pdb
 12 11 0 0 0
SMALL
GASTEIGER

@<TRIPOS>ATOM
      1  N        -14.7770    1.5480    1.2460 N.3   291  ARG291     -0.1208
      2  CA       -13.8620    1.8040    2.3550 C.3   291  ARG291      0.1944
      3  C        -13.8900    3.2570    2.8430 C.2   291  ARG291      0.3819
      4  O        -14.6880    4.0740    2.3760 O.co2 291  ARG291     -0.2441
      5  CB       -12.4360    1.3700    1.9900 C.3   291  ARG291      0.0343
      6  CG       -12.0010    1.7360    0.5870 C.3   291  ARG291      0.0490
      7  CD       -10.8720    0.8330    0.0990 C.3   291  ARG291      0.2205
      8  NE       -11.3720   -0.4300   -0.4370 N.pl3 291  ARG291     -0.0865
      9  CZ       -11.5220   -0.6840   -1.7340 C.cat 291  ARG291      0.5346
     10  NH1      -11.1990    0.2360   -2.6310 N.pl3 291  ARG291      0.1354
     11  NH2      -11.9870   -1.8620   -2.1360 N.pl3 291  ARG291      0.1354
     12  OXT      -13.1320    3.6470    3.7320 O.co2 291  ARG291     -0.2441
@<TRIPOS>BOND
     1    10     9    1
     2    11     9    1
     3     9     8    2
     4     8     7    1
     5     7     6    1
     6     6     5    1
     7     1     2    1
     8     5     2    1
     9     2     3    1
    10     4     3   ar
    11     3    12   ar
