@<TRIPOS>MOLECULE
3u9e_COA_A_1.pdb
 31 33 0 0 0
SMALL
GASTEIGER

@<TRIPOS>ATOM
      1  N1A      -14.4350   -1.6510   33.5310 N.2   289  COA289      0.0021
      2  C2A      -14.9680   -1.6710   34.7630 C.3   289  COA289      0.5254
      3  N3A      -15.7980   -2.6570   35.1380 N.2   289  COA289     -0.0055
      4  C4A      -16.1040   -3.6520   34.2900 C.2   289  COA289      0.3518
      5  C5A      -15.5670   -3.6610   33.0010 C.2   289  COA289      0.2526
      6  C6A      -14.7110   -2.6140   32.6420 C.2   289  COA289      0.4393
      7  N6A      -14.1300   -2.5710   31.3370 N.pl3 289  COA289      0.2180
      8  N7A      -16.0420   -4.7570   32.3680 N.2   289  COA289     -0.2095
      9  C8A      -16.8450   -5.4240   33.2120 C.3   289  COA289      0.3377
     10  N9A      -16.8860   -4.7500   34.3670 N.pl3 289  COA289     -0.1439
     11  C1B      -17.6010   -5.0700   35.5970 C.3   289  COA289      0.3185
     12  C2B      -18.9670   -5.6080   35.3620 C.3   289  COA289      0.2543
     13  O2B      -19.8660   -4.5540   35.1720 O.3   289  COA289     -0.2131
     14  C3B      -19.2340   -6.2210   36.5830 C.3   289  COA289      0.1928
     15  O3B      -19.5820   -5.2240   37.5140 O.3   289  COA289     -0.2673
     16  P3B      -20.6720   -5.5060   38.5610 P.3   289  COA289      0.5327
     17  O7A      -20.7370   -7.0050   38.8130 O.3   289  COA289     -0.1145
     18  O8A      -20.3790   -4.7870   39.8530 O.3   289  COA289     -0.1145
     19  O9A      -21.9810   -5.0090   38.0140 O.2   289  COA289     -0.2224
     20  C4B      -17.9510   -6.7970   36.9890 C.3   289  COA289      0.1795
     21  O4B      -16.9650   -6.0260   36.3880 O.3   289  COA289     -0.3136
     22  C5B      -17.8500   -8.1970   36.5130 C.3   289  COA289      0.1812
     23  O5B      -17.6660   -8.3610   35.1230 O.3   289  COA289     -0.3111
     24  P1A      -18.0560   -9.7340   34.4260 P.3   289  COA289      0.2231
     25  O1A      -19.0840  -10.4670   35.2480 O.3   289  COA289     -0.4370
     26  O2A      -16.8160  -10.5880   34.3100 O.2   289  COA289     -0.5169
     27  O3A      -18.6280   -9.4310   32.9800 O.3   289  COA289     -0.2261
     28  P2A      -17.6560   -9.3740   31.7440 P.3   289  COA289      0.5373
     29  O4A      -18.3540   -8.6860   30.5940 O.2   289  COA289     -0.2221
     30  O5A      -17.2770  -10.7760   31.3440 O.3   289  COA289     -0.1143
     31  O6A      -16.3670   -8.5880   32.1130 O.3   289  COA289     -0.1143
@<TRIPOS>BOND
     1    29    28    2
     2     7     6    1
     3    30    28    1
     4    28    31    1
     5    28    27    1
     6     8     5    2
     7     8     9    1
     8     6     5    1
     9     6     1    2
    10    27    24    1
    11     5     4    1
    12     9    10    1
    13     1     2    1
    14     4    10    1
    15     4     3    2
    16    26    24    2
    17    10    11    1
    18    24    23    1
    19    24    25    1
    20     2     3    1
    21    23    22    1
    22    13    12    1
    23    12    11    1
    24    12    14    1
    25    11    21    1
    26    21    20    1
    27    22    20    1
    28    14    20    1
    29    14    15    1
    30    15    16    1
    31    19    16    2
    32    16    17    1
    33    16    18    1
