@<TRIPOS>MOLECULE
3u9f_CLM_A_1.pdb
 20 20 0 0 0
SMALL
GASTEIGER

@<TRIPOS>ATOM
      1  C1       -20.7040  -21.1920   25.6980 C.3   221  CLM221      0.2356
      2 CL1       -21.5520  -22.6740   25.1410 Cl    221  CLM221     -0.0870
      3 CL2       -18.9920  -21.5220   26.1160 Cl    221  CLM221     -0.0870
      4  C2       -20.7710  -20.1080   24.6610 C.2   221  CLM221      0.2720
      5  O2       -19.9140  -19.2340   24.6450 O.2   221  CLM221     -0.2706
      6  N2       -21.7950  -20.1580   23.8070 N.am  221  CLM221     -0.1994
      7  C3       -21.9500  -19.1790   22.7420 C.3   221  CLM221      0.1626
      8  C4       -23.3460  -18.5560   22.7950 C.3   221  CLM221      0.2065
      9  O4       -23.4720  -17.5130   21.8170 O.3   221  CLM221     -0.2184
     10  C5       -21.6100  -19.8010   21.3800 C.3   221  CLM221      0.1966
     11  O5       -22.3930  -20.9870   21.1790 O.3   221  CLM221     -0.2163
     12  C6       -20.1600  -20.1300   21.3280 C.ar  221  CLM221      0.0096
     13  C7       -19.2230  -19.1200   21.0780 C.ar  221  CLM221     -0.0001
     14  C8       -17.8650  -19.4290   21.0420 C.ar  221  CLM221      0.0238
     15  C9       -17.4440  -20.7480   21.2530 C.ar  221  CLM221      0.1429
     16  N9       -16.0780  -21.0660   21.2170 N.pl3 221  CLM221      0.0577
     17  O9A      -15.7140  -22.2280   21.3880 O.2   221  CLM221     -0.1261
     18  O9B      -15.2520  -20.1820   21.0190 O.2   221  CLM221     -0.1261
     19  C10      -18.3780  -21.7590   21.5030 C.ar  221  CLM221      0.0238
     20  C11      -19.7340  -21.4480   21.5420 C.ar  221  CLM221     -0.0001
@<TRIPOS>BOND
     1    18    16    2
     2    14    13   ar
     3    14    15   ar
     4    13    12   ar
     5    11    10    1
     6    16    15    1
     7    16    17    2
     8    15    19   ar
     9    12    10    1
    10    12    20   ar
    11    10     7    1
    12    19    20   ar
    13     9     8    1
    14     7     8    1
    15     7     6    1
    16     6     4   am
    17     5     4    2
    18     4     1    1
    19     2     1    1
    20     1     3    1
