@<TRIPOS>MOLECULE
3u9n_09H_A_1.pdb
 29 33 0 0 0
SMALL
GASTEIGER

@<TRIPOS>ATOM
      1  C01        6.9320   -5.2320   12.2840 C.ar  301  09H301      0.0014
      2  C02        6.2820   -4.2660   11.5650 C.ar  301  09H301      0.0014
      3  C03        6.9910   -3.3430   10.8120 C.ar  301  09H301      0.0179
      4  C04        8.3760   -3.3890   10.7940 C.ar  301  09H301      0.0870
      5  C05        9.0640   -4.3920   11.5330 C.ar  301  09H301      0.0635
      6  C06        8.3210   -5.2890   12.2890 C.ar  301  09H301      0.0158
      7  N07       10.4640   -4.3870   11.5550 N.pl3 301  09H301     -0.3035
      8  C08       11.1250   -5.7050   11.6860 C.3   301  09H301      0.1096
      9  C09       12.6620   -5.5330   11.5820 C.3   301  09H301      0.1101
     10  N10       13.2360   -4.5610   12.5610 N.3   301  09H301     -0.2144
     11  C11       12.5700   -3.2700   12.3650 C.3   301  09H301      0.1101
     12  C12       11.0380   -3.3510   12.4970 C.3   301  09H301      0.1096
     13  N13        9.1760   -2.5070   10.0470 N.am  301  09H301     -0.1723
     14  C14        8.8850   -1.3130    9.4330 C.2   301  09H301      0.2954
     15  O15        7.8710   -0.6450    9.5370 O.2   301  09H301     -0.2655
     16  C16        9.9930   -0.8610    8.6120 C.2   301  09H301      0.1758
     17  N17       11.2310   -1.5580    8.5830 N.2   301  09H301     -0.3945
     18  C18       12.0840   -0.9650    7.7620 C.2   301  09H301      0.1571
     19  S19       11.4740    0.4520    7.0280 S.3   301  09H301     -0.0746
     20  C20        9.9560    0.2610    7.8200 C.3   301  09H301      0.1282
     21  C21       13.4760   -1.4020    7.5370 C.ar  301  09H301      0.0355
     22  C22       14.3930   -0.6580    6.7390 C.ar  301  09H301      0.0061
     23  C23       15.7190   -1.0600    6.5750 C.ar  301  09H301      0.0367
     24  C24       16.1210   -2.2040    7.2350 C.ar  301  09H301      0.1346
     25  C25       15.2590   -2.9390    8.0320 C.ar  301  09H301      0.0156
     26  C26       13.9330   -2.5450    8.1980 C.ar  301  09H301      0.0019
     27  O27       17.3950   -2.7290    7.1650 O.3   301  09H301     -0.4754
     28  C28       17.4150   -3.7600    8.2100 C.3   301  09H301      0.2102
     29  C29       15.9730   -4.1190    8.5910 C.3   301  09H301      0.0767
@<TRIPOS>BOND
     1    23    22   ar
     2    23    24   ar
     3    22    21   ar
     4    19    18    1
     5    19    20    1
     6    27    24    1
     7    27    28    1
     8    24    25   ar
     9    21    18    1
    10    21    26   ar
    11    18    17    2
    12    20    16    1
    13    25    26   ar
    14    25    29    1
    15    28    29    1
    16    17    16    2
    17    16    14    1
    18    14    15    2
    19    14    13   am
    20    13     4    1
    21     4     3   ar
    22     4     5   ar
    23     3     2   ar
    24     5     7    1
    25     5     6   ar
    26     7     8    1
    27     7    12    1
    28     2     1   ar
    29     9     8    1
    30     9    10    1
    31     1     6   ar
    32    11    12    1
    33    11    10    1
