@<TRIPOS>MOLECULE
3u9q_DKA_A_1.pdb
 12 11 0 0 0
SMALL
GASTEIGER

@<TRIPOS>ATOM
      1  C1         3.5090    3.8460   20.2220 C.2     1  DKA1        0.3649
      2  O1         2.5500    4.0310   19.4740 O.co2   1  DKA1       -0.2457
      3  C2         3.3640    3.1980   21.5910 C.3     1  DKA1        0.1141
      4  C3         2.5490    1.8960   21.5000 C.3     1  DKA1        0.0118
      5  C4         2.8540    0.8800   22.5970 C.3     1  DKA1        0.0006
      6  C5         1.7040   -0.0950   22.7900 C.3     1  DKA1        0.0000
      7  C6         1.8960   -0.9800   24.0220 C.3     1  DKA1        0.0000
      8  C7         0.9460   -2.1600   24.0050 C.3     1  DKA1        0.0000
      9  C8         1.3000   -3.2130   25.0520 C.3     1  DKA1        0.0000
     10  C9         0.1070   -3.4990   25.9530 C.3     1  DKA1        0.0000
     11  C10        0.2580   -2.8530   27.3100 C.3     1  DKA1        0.0000
     12  O2         4.6950    4.2400   19.7470 O.co2   1  DKA1       -0.2457
@<TRIPOS>BOND
     1     2     1   ar
     2    12     1   ar
     3     1     3    1
     4     4     3    1
     5     4     5    1
     6     5     6    1
     7     6     7    1
     8     8     7    1
     9     8     9    1
    10     9    10    1
    11    10    11    1
