@<TRIPOS>MOLECULE
3u9s_COA_B_1.pdb
 48 50 0 0 0
SMALL
GASTEIGER

@<TRIPOS>ATOM
      1  N1A       73.7990   -0.1950   71.3690 N.2   591  COA591      0.0021
      2  C2A       73.6500    0.2660   72.5990 C.3   591  COA591      0.5254
      3  N3A       74.1450    1.4340   72.9670 N.2   591  COA591     -0.0055
      4  C4A       74.8240    2.1900   72.0940 C.2   591  COA591      0.3518
      5  C5A       75.0070    1.7360   70.7960 C.2   591  COA591      0.2526
      6  C6A       74.4630    0.5090   70.4410 C.2   591  COA591      0.4393
      7  N6A       74.5420    0.0740   69.1870 N.pl3 591  COA591      0.2180
      8  N7A       75.7180    2.6540   70.1490 N.2   591  COA591     -0.2095
      9  C8A       75.9680    3.6480   70.9980 C.3   591  COA591      0.3377
     10  N9A       75.4190    3.3750   72.1800 N.pl3 591  COA591     -0.1439
     11  C1B       75.3640    4.2880   73.3410 C.3   591  COA591      0.3185
     12  C2B       76.2760    3.8360   74.4790 C.3   591  COA591      0.2543
     13  O2B       75.5750    2.8910   75.2900 O.3   591  COA591     -0.2131
     14  C3B       76.5160    5.1410   75.2380 C.3   591  COA591      0.1928
     15  O3B       75.6560    5.2020   76.3800 O.3   591  COA591     -0.2673
     16  P3B       76.0280    6.1550   77.6230 P.3   591  COA591      0.5327
     17  O7A       77.3200    5.7820   78.2400 O.3   591  COA591     -0.1145
     18  O8A       74.7930    6.0400   78.6510 O.3   591  COA591     -0.1145
     19  O9A       76.0350    7.6600   77.0570 O.2   591  COA591     -0.2224
     20  C4B       76.1380    6.2360   74.2390 C.3   591  COA591      0.1795
     21  O4B       75.8860    5.5760   72.9880 O.3   591  COA591     -0.3136
     22  C5B       77.3310    7.1650   74.0210 C.3   591  COA591      0.1812
     23  O5B       78.0040    6.7900   72.8180 O.3   591  COA591     -0.3112
     24  P1A       79.2580    7.6420   72.2770 P.3   591  COA591      0.2189
     25  O1A       80.2500    6.6740   71.7600 O.2   591  COA591     -0.5170
     26  O2A       79.6710    8.5620   73.3600 O.3   591  COA591     -0.4371
     27  O3A       78.6070    8.4780   71.0620 O.3   591  COA591     -0.2703
     28  P2A       79.4540    9.0580   69.8200 P.3   591  COA591      0.2188
     29  O4A       80.8640    9.2130   70.2370 O.3   591  COA591     -0.4371
     30  O5A       78.7540   10.2650   69.3260 O.2   591  COA591     -0.5170
     31  O6A       79.3490    7.8960   68.7060 O.3   591  COA591     -0.3138
     32  CBP       78.6560    5.7090   67.7770 C.3   591  COA591      0.0645
     33  CCP       78.5440    6.7300   68.9140 C.3   591  COA591      0.1519
     34  CDP       77.2480    5.3510   67.2970 C.3   591  COA591      0.0056
     35  CEP       79.4550    6.2970   66.6100 C.3   591  COA591      0.0056
     36  CAP       79.3400    4.4420   68.3010 C.3   591  COA591      0.2312
     37  OAP       78.6610    3.9860   69.4750 O.3   591  COA591     -0.2131
     38  C9P       79.3400    3.3310   67.2440 C.2   591  COA591      0.2719
     39  O9P       80.2210    3.2490   66.3950 O.2   591  COA591     -0.2706
     40  N8P       78.3280    2.4680   67.3340 N.am  591  COA591     -0.2028
     41  C7P       78.0770    1.4770   66.2820 C.3   591  COA591      0.1248
     42  C6P       76.6370    0.9720   66.4000 C.3   591  COA591      0.1102
     43  C5P       76.4660   -0.3080   65.5810 C.2   591  COA591      0.2432
     44  O5P       77.4380   -0.8390   65.0460 O.2   591  COA591     -0.2733
     45  N4P       75.2210   -0.7710   65.5040 N.am  591  COA591     -0.2044
     46  C3P       74.8540   -1.9000   64.6350 C.3   591  COA591      0.1276
     47  C2P       73.4410   -2.3880   64.9690 C.3   591  COA591      0.0920
     48  S1P       72.1770   -1.8330   63.7660 S.3   591  COA591     -0.0802
@<TRIPOS>BOND
     1    48    47    1
     2    46    47    1
     3    46    45    1
     4    44    43    2
     5    45    43   am
     6    43    42    1
     7    41    42    1
     8    41    40    1
     9    39    38    2
    10    35    32    1
    11    38    40   am
    12    38    36    1
    13    34    32    1
    14    32    36    1
    15    32    33    1
    16    36    37    1
    17    31    33    1
    18    31    28    1
    19     7     6    1
    20    30    28    2
    21    28    29    1
    22    28    27    1
    23     8     5    2
    24     8     9    1
    25     6     5    1
    26     6     1    2
    27     5     4    1
    28     9    10    1
    29    27    24    1
    30     1     2    1
    31    25    24    2
    32     4    10    1
    33     4     3    2
    34    10    11    1
    35    24    23    1
    36    24    26    1
    37     2     3    1
    38    23    22    1
    39    21    11    1
    40    21    20    1
    41    11    12    1
    42    22    20    1
    43    20    14    1
    44    12    14    1
    45    12    13    1
    46    14    15    1
    47    15    16    1
    48    19    16    2
    49    16    17    1
    50    16    18    1
