@<TRIPOS>MOLECULE
3u9s_BTI_A_1.pdb
 15 16 0 0 0
SMALL
GASTEIGER

@<TRIPOS>ATOM
      1  C11       83.1410   10.9840   17.9140 C.2   801  BTI801      0.2074
      2  O11       84.1020   11.3240   18.5880 O.2   801  BTI801     -0.2883
      3  C10       82.4800    9.6250   18.1520 C.3   801  BTI801      0.0722
      4  C9        83.1070    8.8520   19.3100 C.3   801  BTI801      0.0082
      5  C8        83.3850    7.4180   18.9300 C.3   801  BTI801      0.0014
      6  C7        83.2420    6.5120   20.1600 C.3   801  BTI801      0.0129
      7  C2        82.4030    5.2790   19.8160 C.3   801  BTI801      0.0729
      8  S1        81.5420    5.4860   18.2190 S.3   801  BTI801     -0.1369
      9  C6        79.8170    5.3560   18.8050 C.3   801  BTI801      0.0848
     10  C5        79.9660    4.6570   20.1580 C.3   801  BTI801      0.1509
     11  N3        78.9800    5.2460   21.0760 N.2   801  BTI801     -0.1859
     12  C3        79.5890    6.1870   21.7970 C.1   801  BTI801      0.2386
     13  O3        78.9650    6.9270   22.7510 O.2   801  BTI801     -0.2023
     14  N2        80.8790    6.3180   21.4940 N.2   801  BTI801     -0.1860
     15  C4        81.2780    5.0680   20.8350 C.3   801  BTI801      0.1500
@<TRIPOS>BOND
     1     1     3    1
     2     1     2    2
     3     3     4    1
     4     8     9    1
     5     8     7    1
     6     9    10    1
     7     5     4    1
     8     5     6    1
     9     7     6    1
    10     7    15    1
    11    10    15    1
    12    10    11    1
    13    15    14    1
    14    11    12    2
    15    14    12    2
    16    12    13    2
