@<TRIPOS>MOLECULE
3u9w_28P_A_1.pdb
 24 25 0 0 0
SMALL
GASTEIGER

@<TRIPOS>ATOM
      1  CAQ       23.6670    2.1500    2.7520 C.ar  7001  28P7001    -0.0039
      2  CAR       23.3250    3.0840    3.7640 C.ar  7001  28P7001    -0.0003
      3  CAS       23.2160    2.6960    5.0920 C.ar  7001  28P7001    -0.0000
      4  CAT       23.4070    1.3590    5.4180 C.ar  7001  28P7001    -0.0003
      5  CAU       23.7150    0.4500    4.4180 C.ar  7001  28P7001    -0.0039
      6  CAP       23.8450    0.7990    3.0950 C.ar  7001  28P7001    -0.0178
      7  CAO       24.1640   -0.1490    1.9520 C.3   7001  28P7001     0.0526
      8  CAN       25.5560    0.0510    1.3480 C.ar  7001  28P7001    -0.0176
      9  CAV       25.6880    0.7150    0.1350 C.ar  7001  28P7001    -0.0008
     10  CAW       26.9010    0.8990   -0.4840 C.ar  7001  28P7001     0.0366
     11  CAM       26.6480   -0.4830    1.9810 C.ar  7001  28P7001    -0.0008
     12  CAL       27.8950   -0.2860    1.4050 C.ar  7001  28P7001     0.0366
     13  CAK       28.0260    0.4170    0.1960 C.ar  7001  28P7001     0.1385
     14  OAJ       29.2610    0.5640   -0.3210 O.3   7001  28P7001    -0.4754
     15  CAI       29.4970    1.3480   -1.4640 C.3   7001  28P7001     0.2068
     16  CAH       30.9980    1.5270   -1.6330 C.3   7001  28P7001     0.0646
     17  CAG       31.5260    2.4070   -0.4940 C.3   7001  28P7001     0.0760
     18  N1        32.9700    2.2820   -0.2880 N.3   7001  28P7001    -0.2709
     19  CAX       33.7960    2.7240   -1.4210 C.3   7001  28P7001     0.0896
     20  CAB       33.2710    3.0010    0.9670 C.3   7001  28P7001     0.0840
     21  CAC       34.7330    2.8170    1.3830 C.3   7001  28P7001     0.1313
     22  CAD       34.9750    3.3070    2.7910 C.2   7001  28P7001     0.3663
     23  OAF       36.1420    3.4010    3.2170 O.co2 7001  28P7001    -0.2456
     24  OAE       34.0400    3.5750    3.5680 O.co2 7001  28P7001    -0.2456
@<TRIPOS>BOND
     1    16    15    1
     2    16    17    1
     3    15    14    1
     4    19    18    1
     5    17    18    1
     6    10     9   ar
     7    10    13   ar
     8    14    13    1
     9    18    20    1
    10     9     8   ar
    11    13    12   ar
    12    20    21    1
    13     8     7    1
    14     8    11   ar
    15    21    22    1
    16    12    11   ar
    17     7     6    1
    18     1     6   ar
    19     1     2   ar
    20    22    23   ar
    21    22    24   ar
    22     6     5   ar
    23     2     3   ar
    24     5     4   ar
    25     3     4   ar
