@<TRIPOS>MOLECULE
3u9y_09L_A_1.pdb
 32 36 0 0 0
SMALL
GASTEIGER

@<TRIPOS>ATOM
      1  CAJ        5.9750   -4.3570   24.2940 C.3   1165  09L1165     0.0096
      2  CAK        6.8790   -3.1600   24.6010 C.3   1165  09L1165     0.0096
      3  CAI        6.6780   -3.6210   23.1590 C.3   1165  09L1165     0.0767
      4  CAL        5.7540   -2.7370   22.3760 C.2   1165  09L1165     0.2252
      5  OAB        4.5720   -3.0520   22.3170 O.2   1165  09L1165    -0.2749
      6  NAE        6.2320   -1.6310   21.8030 N.am  1165  09L1165    -0.2760
      7  CAM        5.3370   -0.7310   21.0420 C.3   1165  09L1165     0.1149
      8  CAO        6.0820    0.0530   19.9590 C.3   1165  09L1165     0.1152
      9  CAN        7.6860   -1.3490   21.8820 C.3   1165  09L1165     0.1149
     10  CAP        8.0880    0.1020   21.5610 C.3   1165  09L1165     0.1152
     11  NAF        7.2850    0.7360   20.4860 N.am  1165  09L1165    -0.2725
     12  CAQ        7.6570    1.9070   19.9280 C.2   1165  09L1165     0.2513
     13  OAC        7.0150    2.3590   18.9900 O.2   1165  09L1165    -0.2698
     14  CAR        8.9440    2.6400   20.2890 C.ar  1165  09L1165     0.0807
     15  CAS        9.6500    3.1370   19.1870 C.ar  1165  09L1165     0.0029
     16  CAU        9.4350    2.8050   21.6080 C.ar  1165  09L1165     0.1444
     17  FAA        8.7620    2.3360   22.7010 F     1165  09L1165    -0.2040
     18  CAX       10.6400    3.4800   21.7870 C.ar  1165  09L1165     0.0295
     19  CAW       11.3380    3.9860   20.6810 C.ar  1165  09L1165    -0.0016
     20  CAT       10.8490    3.8020   19.3860 C.ar  1165  09L1165    -0.0159
     21  CAV       11.6170    4.3810   18.2210 C.3   1165  09L1165     0.0739
     22  CAY       11.8140    3.4610   17.0300 C.2   1165  09L1165     0.0863
     23  CAZ       11.9430    3.9580   15.7320 C.ar  1165  09L1165     0.0266
     24  CBB       11.8590    5.3310   15.5010 C.ar  1165  09L1165     0.0020
     25  CBE       11.9600    5.8350   14.2030 C.ar  1165  09L1165     0.0001
     26  CBF       12.1420    4.9380   13.1560 C.ar  1165  09L1165     0.0007
     27  CBD       12.2350    3.5660   13.3860 C.ar  1165  09L1165     0.0117
     28  CBA       12.1400    3.0750   14.6760 C.ar  1165  09L1165     0.0858
     29  CBC       12.2130    1.7140   14.9700 C.1   1165  09L1165     0.1726
     30  OAD       12.3900    0.8530   14.1040 O.2   1165  09L1165    -0.2205
     31  NAH       12.0710    1.3320   16.3170 N.2   1165  09L1165    -0.0729
     32  NAG       11.8960    2.1420   17.2390 N.2   1165  09L1165    -0.1418
@<TRIPOS>BOND
     1    26    27   ar
     2    26    25   ar
     3    27    28   ar
     4    30    29    2
     5    25    24   ar
     6    28    29    1
     7    28    23   ar
     8    29    31    2
     9    24    23   ar
    10    23    22    1
    11    31    32    1
    12    22    32    2
    13    22    21    1
    14    21    20    1
    15    13    12    2
    16    15    20   ar
    17    15    14   ar
    18    20    19   ar
    19    12    14    1
    20    12    11   am
    21     8    11    1
    22     8     7    1
    23    14    16   ar
    24    11    10    1
    25    19    18   ar
    26     7     6    1
    27    10     9    1
    28    16    18   ar
    29    16    17    1
    30     6     9    1
    31     6     4   am
    32     5     4    2
    33     4     3    1
    34     3     1    1
    35     3     2    1
    36     1     2    1
