@<TRIPOS>MOLECULE
3u9z_ADP_A_1.pdb
 27 29 0 0 0
SMALL
GASTEIGER

@<TRIPOS>ATOM
      1  PB        10.2190    4.7460   15.3480 P.3   376  ADP376      0.5373
      2  O1B        8.8780    4.4830   16.0390 O.3   376  ADP376     -0.1143
      3  O2B       10.0530    4.8090   13.8670 O.2   376  ADP376     -0.2221
      4  O3B       11.3710    3.9020   15.7950 O.3   376  ADP376     -0.1143
      5  PA        11.8640    7.0290   16.1610 P.3   376  ADP376      0.2231
      6  O1A       12.4800    6.6660   17.4900 O.3   376  ADP376     -0.4370
      7  O2A       12.6500    6.8600   14.8820 O.2   376  ADP376     -0.5169
      8  O3A       10.5020    6.2790   15.8020 O.3   376  ADP376     -0.2261
      9  O5'       11.4160    8.5590   16.2780 O.3   376  ADP376     -0.3111
     10  C5'       10.5990    9.1280   15.2150 C.3   376  ADP376      0.1813
     11  C4'        9.7320   10.1780   15.8680 C.3   376  ADP376      0.1821
     12  O4'       10.6270   10.9560   16.6590 O.3   376  ADP376     -0.3135
     13  C3'        9.1450   11.1470   14.8220 C.3   376  ADP376      0.2184
     14  O3'        7.8030   11.4240   15.2110 O.3   376  ADP376     -0.2174
     15  C2'        9.9570   12.3880   14.9950 C.3   376  ADP376      0.2570
     16  O2'        9.1770   13.5450   14.8080 O.3   376  ADP376     -0.2130
     17  C1'       10.3750   12.3450   16.4530 C.3   376  ADP376      0.3186
     18  N9        11.5550   13.2290   16.6880 N.pl3 376  ADP376     -0.1439
     19  C8        12.7380   13.1620   16.0450 C.3   376  ADP376      0.3377
     20  N7        13.5920   14.1020   16.5090 N.2   376  ADP376     -0.2095
     21  C5        12.9260   14.8500   17.3980 C.2   376  ADP376      0.2526
     22  C6        13.2100   16.0350   18.2230 C.2   376  ADP376      0.4393
     23  N6        14.4140   16.6180   18.2140 N.pl3 376  ADP376      0.2180
     24  N1        12.2620   16.4690   19.0860 N.2   376  ADP376      0.0021
     25  C2        11.0510   15.8910   19.1480 C.3   376  ADP376      0.5254
     26  N3        10.7170   14.8290   18.4050 N.2   376  ADP376     -0.0055
     27  C4        11.6020   14.2600   17.5330 C.2   376  ADP376      0.3518
@<TRIPOS>BOND
     1     3     1    2
     2    16    15    1
     3    13    15    1
     4    13    14    1
     5    13    11    1
     6     7     5    2
     7    15    17    1
     8    10    11    1
     9    10     9    1
    10     1     4    1
    11     1     8    1
    12     1     2    1
    13     8     5    1
    14    11    12    1
    15    19    20    1
    16    19    18    1
    17     5     9    1
    18     5     6    1
    19    17    12    1
    20    17    18    1
    21    20    21    2
    22    18    27    1
    23    21    27    1
    24    21    22    1
    25    27    26    2
    26    23    22    1
    27    22    24    2
    28    26    25    1
    29    24    25    1
