@<TRIPOS>MOLECULE
3ua1_HEM_A_1.pdb
 43 50 0 0 0
SMALL
GASTEIGER

@<TRIPOS>ATOM
      1  CHA       15.2320   19.5130  -10.4160 C.2   508  HEM508      0.0000
      2  CHB       16.1770   22.0840  -14.4010 C.2   508  HEM508      0.0000
      3  CHC       16.5630   26.0410  -11.6260 C.2   508  HEM508      0.0000
      4  CHD       15.5290   23.5090   -7.5930 C.2   508  HEM508      0.0000
      5  C1A       15.4960   19.8440  -11.7260 C.ar  508  HEM508      0.0000
      6  C2A       15.4740   18.9280  -12.8640 C.ar  508  HEM508      0.0000
      7  C3A       15.7380   19.6500  -13.9490 C.ar  508  HEM508      0.0000
      8  C4A       15.8840   21.0290  -13.5490 C.ar  508  HEM508      0.0000
      9  CMA       15.8490   19.1210  -15.4070 C.3   508  HEM508      0.0000
     10  CAA       15.2480   17.3840  -12.8040 C.3   508  HEM508      0.0000
     11  CBA       13.7320   17.1350  -12.7540 C.3   508  HEM508      0.0000
     12  CGA       13.3520   15.7310  -13.1670 C.2   508  HEM508      0.0000
     13  O1A       12.2990   15.5790  -13.8390 O.co2 508  HEM508      0.0000
     14  O2A       14.0510   14.7520  -12.8310 O.co2 508  HEM508      0.0000
     15  C1B       16.3940   23.3690  -14.0030 C.2   508  HEM508      0.0000
     16  C2B       16.6640   24.4860  -14.9000 C.2   508  HEM508      0.0000
     17  C3B       16.7740   25.5770  -14.1480 C.2   508  HEM508      0.0000
     18  C4B       16.5660   25.2120  -12.7340 C.2   508  HEM508      0.0000
     19  CMB       16.7970   24.4150  -16.4480 C.3   508  HEM508      0.0000
     20  CAB       17.0650   26.9660  -14.7470 C.2   508  HEM508      0.0000
     21  CBB       17.6470   27.8440  -13.9580 C.2   508  HEM508      0.0000
     22  C1C       16.2880   25.7190  -10.3020 C.ar  508  HEM508      0.0000
     23  C2C       16.2190   26.6410   -9.1920 C.ar  508  HEM508      0.0000
     24  C3C       15.9400   25.9670   -8.0840 C.ar  508  HEM508      0.0000
     25  C4C       15.8030   24.5610   -8.4400 C.ar  508  HEM508      0.0000
     26  CMC       16.4330   28.1690   -9.2060 C.3   508  HEM508      0.0000
     27  CAC       15.8000   26.6520   -6.7000 C.2   508  HEM508      0.0000
     28  CBC       15.2240   26.0360   -5.6820 C.2   508  HEM508      0.0000
     29  C1D       15.4340   22.1900   -7.9730 C.2   508  HEM508      0.0000
     30  C2D       15.3320   21.0630   -7.0550 C.2   508  HEM508      0.0000
     31  C3D       15.2350   19.8410   -7.9420 C.2   508  HEM508      0.0000
     32  C4D       15.2800   20.3430   -9.3010 C.2   508  HEM508      0.0000
     33  CMD       15.3390   21.1060   -5.5190 C.3   508  HEM508      0.0000
     34  CAD       15.0960   18.3760   -7.4950 C.3   508  HEM508      0.0000
     35  CBD       13.6380   18.1970   -7.0670 C.3   508  HEM508      0.0000
     36  CGD       13.3590   16.8140   -6.4960 C.2   508  HEM508      0.0000
     37  O1D       12.2440   16.5940   -5.9460 O.co2 508  HEM508      0.0000
     38  O2D       14.2320   15.9110   -6.5970 O.co2 508  HEM508      0.0000
     39  NA        15.6910   21.1180  -12.1920 N.ar  508  HEM508      0.0000
     40  NB        16.2960   23.8500  -12.6850 N.2   508  HEM508      0.0000
     41  NC        15.9720   24.4620   -9.8160 N.ar  508  HEM508      0.0000
     42  ND        15.3580   21.7340   -9.2810 N.2   508  HEM508      0.0000
     43 FE         15.7430   22.8260  -10.9970 Fe    508  HEM508      0.0000
@<TRIPOS>BOND
     1    19    16    1
     2     9     7    1
     3    16    17    2
     4    16    15    1
     5    20    17    1
     6    20    21    2
     7     2    15    1
     8     2     8    2
     9    17    18    1
    10    15    40    2
    11     7     8   ar
    12     7     6   ar
    13    13    12   ar
    14     8    39   ar
    15    12    14   ar
    16    12    11    1
    17     6    10    1
    18     6     5   ar
    19    10    11    1
    20    18    40    1
    21    18     3    2
    22    40    43    1
    23    39     5   ar
    24    39    43    1
    25     5     1    2
    26     3    22    1
    27    43    41    1
    28    43    42    1
    29     1    32    1
    30    22    41   ar
    31    22    23   ar
    32    41    25   ar
    33    32    42    2
    34    32    31    1
    35    42    29    1
    36    26    23    1
    37    23    24   ar
    38    25    24   ar
    39    25     4    1
    40    24    27    1
    41    29     4    2
    42    29    30    1
    43    31    34    1
    44    31    30    2
    45    34    35    1
    46    35    36    1
    47    30    33    1
    48    27    28    2
    49    38    36   ar
    50    36    37   ar
