@<TRIPOS>MOLECULE
3ua1_08Y_A_1.pdb
 43 49 0 0 0
SMALL
GASTEIGER

@<TRIPOS>ATOM
      1  O5        23.0520   15.0830  -11.6510 O.2   600  08Y600     -0.2729
      2  C15       22.4240   14.7890  -12.6700 C.2   600  08Y600      0.2487
      3  C16       22.7830   13.5900  -13.5080 C.3   600  08Y600      0.1158
      4  C18       23.6580   14.1470  -14.6410 C.3   600  08Y600      0.0860
      5  N4        24.2580   13.0230  -15.3440 N.3   600  08Y600     -0.2681
      6  C27       24.4360   13.1960  -16.7820 C.3   600  08Y600      0.0899
      7  C22       23.5340   12.5730  -12.6700 C.2   600  08Y600     -0.0189
      8  C21       24.6680   11.9970  -13.0990 C.2   600  08Y600     -0.0111
      9  C24       25.4020   11.0350  -12.2030 C.ar  600  08Y600     -0.0007
     10  C30       25.3080   10.8480  -10.8220 C.ar  600  08Y600     -0.0001
     11  C32       26.1410    9.8830  -10.2050 C.ar  600  08Y600      0.0026
     12  C31       27.0950    9.0960  -10.8940 C.ar  600  08Y600      0.0321
     13  C28       27.2610    9.2400  -12.2830 C.ar  600  08Y600      0.1318
     14  C26       26.3860   10.2450  -12.9280 C.ar  600  08Y600      0.0284
     15  C25       26.6530   10.2960  -14.3530 C.2   600  08Y600      0.0180
     16  C23       25.9120   11.2160  -15.2920 C.3   600  08Y600      0.0500
     17  C17       25.2550   12.3650  -14.4780 C.3   600  08Y600      0.0843
     18  C29       27.7130    9.2700  -14.4470 C.2   600  08Y600      0.1613
     19  N5        28.0370    8.6860  -13.2580 N.2   600  08Y600     -0.3956
     20 BR         28.5630    8.8250  -16.2020 Br    600  08Y600     -0.0142
     21  N3        21.4180   15.5190  -13.1710 N.am  600  08Y600     -0.1729
     22  C5        20.3830   16.2530  -12.4480 C.3   600  08Y600      0.2431
     23  O1        20.6370   17.6620  -12.6000 O.3   600  08Y600     -0.2940
     24  C11       19.0130   15.8450  -13.0240 C.3   600  08Y600      0.0533
     25  C14       18.8360   14.3270  -13.1660 C.3   600  08Y600      0.0048
     26  C13       18.7650   16.4840  -14.3740 C.3   600  08Y600      0.0048
     27  C8        20.3700   16.1150  -10.9350 C.2   600  08Y600      0.2736
     28  O3        20.1720   15.0440  -10.3690 O.2   600  08Y600     -0.2703
     29  N1        20.5950   17.2990  -10.3620 N.am  600  08Y600     -0.2250
     30  C3        20.3390   17.6500   -8.9570 C.3   600  08Y600      0.1562
     31  C10       21.7340   17.6470   -8.3430 C.3   600  08Y600      0.0294
     32  C12       22.1160   16.3630   -7.6270 C.3   600  08Y600      0.0021
     33  C20       22.1350   16.6550   -6.1380 C.3   600  08Y600      0.0001
     34  C19       23.4810   15.8600   -8.0790 C.3   600  08Y600      0.0001
     35  C9        19.7960   19.0660   -8.7590 C.2   600  08Y600      0.2440
     36  O4        19.5360   19.4740   -7.6290 O.2   600  08Y600     -0.2731
     37  N2        19.6370   19.8760   -9.8230 N.am  600  08Y600     -0.2733
     38  C6        19.3510   21.3100   -9.7900 C.3   600  08Y600      0.0937
     39  C7        19.2300   21.7660  -11.2450 C.3   600  08Y600      0.0234
     40  C4        19.8260   20.6360  -12.0780 C.3   600  08Y600      0.0286
     41  C1        19.6690   19.3880  -11.2050 C.3   600  08Y600      0.1492
     42  C2        20.7850   18.3540  -11.3450 C.3   600  08Y600      0.3069
     43  O2        22.0760   18.9570  -11.1260 O.3   600  08Y600     -0.1717
@<TRIPOS>BOND
     1     6     5    1
     2    20    18    1
     3     5     4    1
     4     5    17    1
     5    16    17    1
     6    16    15    1
     7     4     3    1
     8    17     8    1
     9    18    15    1
    10    18    19    2
    11    26    24    1
    12    15    14    2
    13     3     7    1
    14     3     2    1
    15    19    13    2
    16    21     2   am
    17    21    22    1
    18    25    24    1
    19     8     7    2
    20     8     9    1
    21    24    22    1
    22    14    13   ar
    23    14     9   ar
    24     2     1    2
    25    23    22    1
    26    23    42    1
    27    22    27    1
    28    13    12   ar
    29     9    10   ar
    30    40    39    1
    31    40    41    1
    32    42    41    1
    33    42    43    1
    34    42    29    1
    35    39    38    1
    36    41    37    1
    37    27    28    2
    38    27    29   am
    39    12    11   ar
    40    10    11   ar
    41    29    30    1
    42    37    38    1
    43    37    35   am
    44    30    35    1
    45    30    31    1
    46    35    36    2
    47    31    32    1
    48    34    32    1
    49    32    33    1
