@<TRIPOS>MOLECULE
3ua3_SAH_A_1.pdb
 26 28 0 0 0
SMALL
GASTEIGER

@<TRIPOS>ATOM
      1  N         15.0200   24.7240   26.9730 N.3   743  SAH743     -0.1208
      2  CA        16.0730   24.7420   25.9660 C.3   743  SAH743      0.1952
      3  CB        17.4180   24.6220   26.6650 C.3   743  SAH743      0.0422
      4  CG        17.4220   23.5270   27.7250 C.3   743  SAH743      0.0597
      5  SD        19.0890   22.9530   28.1300 S.3   743  SAH743     -0.1375
      6  C         15.9170   23.6190   24.9400 C.2   743  SAH743      0.3819
      7  O         15.3480   22.5630   25.2210 O.co2 743  SAH743     -0.2441
      8  OXT       16.3650   23.7380   23.8010 O.co2 743  SAH743     -0.2441
      9  C5'       18.8820   23.5860   29.8130 C.3   743  SAH743      0.0899
     10  C4'       18.9460   25.1090   29.8580 C.3   743  SAH743      0.1630
     11  O4'       18.5250   25.5680   31.1250 O.3   743  SAH743     -0.3153
     12  C3'       20.3540   25.6360   29.6180 C.3   743  SAH743      0.2168
     13  O3'       20.3410   26.5590   28.5520 O.3   743  SAH743     -0.2175
     14  C2'       20.7410   26.3470   30.8990 C.3   743  SAH743      0.2569
     15  O2'       21.3280   27.5940   30.6130 O.3   743  SAH743     -0.2130
     16  C1'       19.4240   26.5300   31.6320 C.3   743  SAH743      0.3185
     17  N9        19.5360   26.3160   33.0830 N.pl3 743  SAH743     -0.1439
     18  C8        19.9390   25.1710   33.7210 C.3   743  SAH743      0.3377
     19  N7        19.8850   25.3860   35.0560 N.2   743  SAH743     -0.2095
     20  C5        19.4460   26.6500   35.2750 C.2   743  SAH743      0.2526
     21  C6        19.2110   27.3830   36.4330 C.2   743  SAH743      0.4393
     22  N6        19.4220   26.8410   37.6290 N.pl3 743  SAH743      0.2180
     23  N1        18.7570   28.6810   36.3340 N.2   743  SAH743      0.0021
     24  C2        18.5440   29.2490   35.0940 C.3   743  SAH743      0.5254
     25  N3        18.7790   28.5180   33.9510 N.2   743  SAH743     -0.0055
     26  C4        19.2210   27.2420   34.0400 C.2   743  SAH743      0.3518
@<TRIPOS>BOND
     1     8     6   ar
     2     6     7   ar
     3     6     2    1
     4     2     3    1
     5     2     1    1
     6     3     4    1
     7     4     5    1
     8     5     9    1
     9    13    12    1
    10    12    10    1
    11    12    14    1
    12     9    10    1
    13    10    11    1
    14    15    14    1
    15    14    16    1
    16    11    16    1
    17    16    17    1
    18    17    18    1
    19    17    26    1
    20    18    19    1
    21    25    26    2
    22    25    24    1
    23    26    20    1
    24    19    20    2
    25    24    23    1
    26    20    21    1
    27    23    21    2
    28    21    22    1
