@<TRIPOS>MOLECULE
3ua5_06X_A_1.pdb
 28 29 0 0 0
SMALL
GASTEIGER

@<TRIPOS>ATOM
      1 CLAG       16.5140    6.1060   40.9690 Cl    501  06X501     -0.0826
      2  CAZ       16.5350    5.7090   39.2910 C.ar  501  06X501      0.0537
      3  CAJ       15.9400    6.5620   38.3680 C.ar  501  06X501      0.0111
      4  CAH       15.9560    6.2420   37.0160 C.ar  501  06X501      0.0008
      5  CAI       16.5660    5.0700   36.5850 C.ar  501  06X501     -0.0003
      6  CAK       17.1610    4.2170   37.5080 C.ar  501  06X501     -0.0034
      7  CBA       17.1450    4.5370   38.8610 C.ar  501  06X501     -0.0100
      8  CBB       17.7400    3.6850   39.7830 C.3   501  06X501      0.0571
      9  CAY       17.1470    2.4230   39.7410 C.3   501  06X501      0.1542
     10  CAV       15.8390    2.2370   39.2960 C.2   501  06X501      0.3233
     11  OAF       15.3450    1.1110   39.2670 O.2   501  06X501     -0.2497
     12  OAS       15.1720    3.3590   38.9140 O.3   501  06X501     -0.4482
     13  CAL       13.9700    2.9910   38.2340 C.3   501  06X501      0.2086
     14  CAA       12.8540    3.9710   38.6030 C.3   501  06X501      0.0513
     15  CAX       19.0850    3.5490   39.4680 C.3   501  06X501      0.1517
     16  CAU       19.7390    4.5310   38.7320 C.2   501  06X501      0.3234
     17  OAE       19.1500    5.5430   38.3560 O.2   501  06X501     -0.2497
     18  OAQ       21.0510    4.2800   38.4810 O.3   501  06X501     -0.4441
     19  CAB       21.5590    5.2590   37.5690 C.3   501  06X501      0.2556
     20  CAT       19.7780    2.4120   39.8670 C.2   501  06X501      0.0970
     21  CAC       21.1230    2.1910   39.5980 C.3   501  06X501      0.0620
     22  NAP       19.1280    1.4920   40.5760 N.2   501  06X501     -0.4155
     23  CAW       17.8810    1.3120   40.1400 C.2   501  06X501      0.1262
     24  CAO       17.3810    0.0160   40.1380 C.3   501  06X501      0.1965
     25  OAR       17.1850   -0.4230   41.4860 O.3   501  06X501     -0.3450
     26  CAN       16.0910    0.2930   42.0660 C.3   501  06X501      0.1632
     27  CAM       14.8870   -0.6400   42.2060 C.3   501  06X501      0.1413
     28  NAD       14.8880   -1.3080   43.5150 N.3   501  06X501     -0.1286
@<TRIPOS>BOND
     1     5     4   ar
     2     5     6   ar
     3     4     3   ar
     4     6     7   ar
     5    19    18    1
     6    13    14    1
     7    13    12    1
     8    17    16    2
     9     3     2   ar
    10    18    16    1
    11    16    15    1
    12     7     2   ar
    13     7     8    1
    14    12    10    1
    15    11    10    2
    16     2     1    1
    17    10     9    1
    18    15     8    1
    19    15    20    1
    20    21    20    1
    21     9     8    1
    22     9    23    1
    23    20    22    2
    24    24    23    1
    25    24    25    1
    26    23    22    2
    27    25    26    1
    28    26    27    1
    29    27    28    1
