@<TRIPOS>MOLECULE
3ua5_HEM_A_1.pdb
 43 50 0 0 0
SMALL
GASTEIGER

@<TRIPOS>ATOM
      1  CHA       11.5330   -0.5170   45.0620 C.2   500  HEM500      0.0000
      2  CHB       15.6530   -1.0400   47.3190 C.2   500  HEM500      0.0000
      3  CHC       16.5950   -4.8920   44.8170 C.2   500  HEM500      0.0000
      4  CHD       12.3800   -4.5620   42.8070 C.2   500  HEM500      0.0000
      5  C1A       12.6370   -0.3600   45.7960 C.2   500  HEM500      0.0000
      6  C2A       12.8660    0.8400   46.5070 C.2   500  HEM500      0.0000
      7  C3A       13.9920    0.7060   47.1350 C.2   500  HEM500      0.0000
      8  C4A       14.4950   -0.5880   46.8420 C.2   500  HEM500      0.0000
      9  CMA       14.6420    1.7580   48.0180 C.3   500  HEM500      0.0000
     10  CAA       11.9440    2.0550   46.5080 C.3   500  HEM500      0.0000
     11  CBA       10.9220    1.9730   47.6140 C.3   500  HEM500      0.0000
     12  CGA       10.5090    3.3370   47.9700 C.2   500  HEM500      0.0000
     13  O1A        9.8180    3.9120   47.1640 O.co2 500  HEM500      0.0000
     14  O2A       10.8570    3.8360   49.0390 O.co2 500  HEM500      0.0000
     15  C1B       16.2200   -2.1210   46.7650 C.ar  500  HEM500      0.0000
     16  C2B       17.5200   -2.5640   47.1020 C.ar  500  HEM500      0.0000
     17  C3B       17.7670   -3.6170   46.4050 C.ar  500  HEM500      0.0000
     18  C4B       16.6330   -3.8560   45.6290 C.ar  500  HEM500      0.0000
     19  CMB       18.4580   -1.9040   48.0960 C.3   500  HEM500      0.0000
     20  CAB       19.0180   -4.4980   46.3520 C.2   500  HEM500      0.0000
     21  CBB       19.9070   -4.5640   47.3330 C.2   500  HEM500      0.0000
     22  C1C       15.4970   -5.0750   44.1120 C.2   500  HEM500      0.0000
     23  C2C       15.3550   -6.1990   43.2680 C.2   500  HEM500      0.0000
     24  C3C       14.2050   -6.0990   42.7300 C.2   500  HEM500      0.0000
     25  C4C       13.6010   -4.9080   43.2180 C.2   500  HEM500      0.0000
     26  CMC       16.3440   -7.3260   43.0070 C.3   500  HEM500      0.0000
     27  CAC       13.6320   -7.0770   41.7120 C.2   500  HEM500      0.0000
     28  CBC       12.5770   -7.8070   42.0060 C.2   500  HEM500      0.0000
     29  C1D       11.8100   -3.4560   43.2430 C.ar  500  HEM500      0.0000
     30  C2D       10.5270   -3.0880   42.8320 C.ar  500  HEM500      0.0000
     31  C3D       10.2360   -1.8240   43.5460 C.ar  500  HEM500      0.0000
     32  C4D       11.3980   -1.5880   44.2930 C.ar  500  HEM500      0.0000
     33  CMD        9.6170   -3.8320   41.8620 C.3   500  HEM500      0.0000
     34  CAD        8.9750   -0.9780   43.4450 C.3   500  HEM500      0.0000
     35  CBD        7.8130   -1.7960   43.9300 C.3   500  HEM500      0.0000
     36  CGD        6.8680   -0.7540   44.3290 C.2   500  HEM500      0.0000
     37  O1D        5.7650   -1.0240   44.7480 O.co2 500  HEM500      0.0000
     38  O2D        7.2520    0.3800   44.1790 O.co2 500  HEM500      0.0000
     39  NA        13.6560   -1.2760   45.9860 N.2   500  HEM500      0.0000
     40  NB        15.6440   -2.9370   45.8190 N.ar  500  HEM500      0.0000
     41  NC        14.4110   -4.2350   44.1110 N.2   500  HEM500      0.0000
     42  ND        12.3500   -2.5670   44.1280 N.ar  500  HEM500      0.0000
     43 FE         14.0370   -2.6170   45.0850 Fe    500  HEM500      0.0000
@<TRIPOS>BOND
     1    27    28    2
     2    27    24    1
     3    33    30    1
     4    24    25    1
     5    24    23    2
     6     4    25    1
     7     4    29    2
     8    30    29   ar
     9    30    31   ar
    10    26    23    1
    11    25    41    2
    12    29    42   ar
    13    23    22    1
    14    34    31    1
    15    34    35    1
    16    31    32   ar
    17    35    36    1
    18    41    22    1
    19    41    43    1
    20    22     3    2
    21    42    32   ar
    22    42    43    1
    23    38    36   ar
    24    32     1    2
    25    36    37   ar
    26     3    18    1
    27     1     5    1
    28    43    40    1
    29    43    39    1
    30    18    40   ar
    31    18    17   ar
    32     5    39    2
    33     5     6    1
    34    40    15   ar
    35    39     8    1
    36    20    17    1
    37    20    21    2
    38    17    16   ar
    39     6    10    1
    40     6     7    2
    41    10    11    1
    42    15    16   ar
    43    15     2    1
    44     8     7    1
    45     8     2    2
    46    16    19    1
    47     7     9    1
    48    13    12   ar
    49    11    12    1
    50    12    14   ar
