@<TRIPOS>MOLECULE
3ua8_08W_A_1.pdb
 30 32 0 0 0
SMALL
GASTEIGER

@<TRIPOS>ATOM
      1  O37       42.8510   31.9680   13.9670 O.2   264  08W264     -0.2670
      2  C36       42.4040   32.9360   13.3520 C.2   264  08W264      0.2798
      3  N38       41.0920   33.0300   13.0160 N.am  264  08W264     -0.1987
      4  C40       40.1240   32.0010   13.4080 C.3   264  08W264      0.1389
      5  C33       43.3480   34.0060   12.9370 C.2   264  08W264      0.1304
      6  N32       44.5060   34.4820   13.6450 N.2   264  08W264     -0.2461
      7  C30       45.0910   35.3980   12.9890 C.3   264  08W264      0.2200
      8  C34       43.3980   34.7820   11.8190 C.3   264  08W264      0.1430
      9  N29       44.4240   35.6180   11.8870 N.pl3 264  08W264     -0.2818
     10  C6        44.7440   36.4420   10.8530 C.2   264  08W264      0.0500
     11  C7        45.7690   35.9440   10.0430 C.2   264  08W264      0.0043
     12  C9        46.2120   36.6690    8.9320 C.3   264  08W264      0.1552
     13  C17       47.3090   36.1880    8.0330 C.2   264  08W264      0.2659
     14  O18       47.8430   35.1180    8.2820 O.2   264  08W264     -0.2716
     15  N16       47.6720   36.9510    6.9750 N.am  264  08W264     -0.0767
     16  N19       48.7500   36.4480    6.1540 N.3   264  08W264      0.0320
     17  S21       50.2720   37.0130    6.5610 S.O2  264  08W264      0.0770
     18  O23       50.2880   38.3970    7.0000 O.2   264  08W264     -0.1546
     19  C24       50.7460   36.1130    8.0640 C.3   264  08W264      0.1994
     20  O22       51.2560   36.7010    5.5420 O.2   264  08W264     -0.1546
     21  C15       47.0820   38.1490    6.6810 C.1   264  08W264      0.2909
     22  O28       47.4320   38.8080    5.7140 O.2   264  08W264     -0.1912
     23  N13       46.0920   38.6150    7.4680 N.2   264  08W264     -0.3236
     24  C10       45.6330   37.8920    8.6060 C.2   264  08W264      0.1357
     25  C11       44.6060   38.3950    9.4060 C.2   264  08W264      0.0345
     26  C5        44.1410   37.6740   10.5280 C.2   264  08W264      0.0867
     27  C2        43.0380   38.2480   11.4200 C.3   264  08W264      0.4198
     28  F1        42.0440   37.3620   11.5720 F     264  08W264     -0.1658
     29  F3        43.5390   38.5540   12.6630 F     264  08W264     -0.1658
     30  F4        42.5230   39.3810   10.8740 F     264  08W264     -0.1658
@<TRIPOS>BOND
     1    20    17    2
     2    22    21    2
     3    16    17    1
     4    16    15    1
     5    17    18    2
     6    17    19    1
     7    21    15   am
     8    21    23    2
     9    15    13   am
    10    23    24    2
    11    13    14    2
    12    13    12    1
    13    24    12    1
    14    24    25    1
    15    12    11    1
    16    25    26    2
    17    11    10    2
    18    26    10    1
    19    26    27    1
    20    10     9    1
    21    30    27    1
    22    27    28    1
    23    27    29    1
    24     8     9    1
    25     8     5    1
    26     9     7    1
    27     5     2    1
    28     5     6    2
    29     7     6    1
    30     3     2   am
    31     3     4    1
    32     2     1    2
