@<TRIPOS>MOLECULE
3ua9_IWR_A_1.pdb
 31 36 0 0 0
SMALL
GASTEIGER

@<TRIPOS>ATOM
      1  CAF        5.9360   -1.8780    5.3260 C.ar    2  IWR2        0.0966
      2  NAG        6.2830   -3.0610    4.7580 N.ar    2  IWR2       -0.2425
      3  CAH        6.7880   -3.1290    3.5290 C.ar    2  IWR2        0.0989
      4  CAI        6.9990   -1.9520    2.7920 C.ar    2  IWR2        0.0207
      5  CAJ        6.6600   -0.7070    3.3360 C.ar    2  IWR2        0.0031
      6  CAA        6.1190   -0.6700    4.6220 C.ar    2  IWR2        0.0190
      7  CAB        5.7730    0.5450    5.2010 C.ar    2  IWR2        0.0016
      8  CAC        5.2350    0.5790    6.4760 C.ar    2  IWR2        0.0014
      9  CAD        5.0690   -0.6160    7.1760 C.ar    2  IWR2        0.0181
     10  CAE        5.4270   -1.8550    6.6230 C.ar    2  IWR2        0.0912
     11  NAK        5.2340   -3.0360    7.2450 N.am    2  IWR2       -0.1739
     12  CAL        4.4890   -3.2080    8.3470 C.2     2  IWR2        0.2690
     13  OAM        3.9460   -2.3050    8.9480 O.2     2  IWR2       -0.2680
     14  CAN        4.2950   -4.6510    8.7750 C.ar    2  IWR2        0.0555
     15  CAS        5.3730   -5.5170    8.8170 C.ar    2  IWR2        0.0059
     16  CAO        5.2170   -6.8560    9.1690 C.ar    2  IWR2        0.0155
     17  CAR        3.0400   -5.1480    9.0690 C.ar    2  IWR2        0.0059
     18  CAQ        2.8700   -6.4870    9.4340 C.ar    2  IWR2        0.0155
     19  CAP        3.9580   -7.3380    9.4890 C.ar    2  IWR2        0.0606
     20  NAT        3.8030   -8.6110    9.8060 N.am    2  IWR2       -0.2081
     21  CAW        3.7340   -9.1130   11.0270 C.2     2  IWR2        0.2351
     22  OBE        3.7980   -8.4520   12.0440 O.2     2  IWR2       -0.2741
     23  CAV        3.5570  -10.6140   11.0050 C.3     2  IWR2        0.0860
     24  CBB        4.8260  -11.3500   11.4390 C.3     2  IWR2        0.0091
     25  CBC        4.6380  -12.6430   10.6500 C.3     2  IWR2        0.0010
     26  CBA        6.1000  -10.8200   10.7610 C.3     2  IWR2        0.0005
     27  CAZ        5.9750  -11.3140    9.3150 C.3     2  IWR2        0.0005
     28  CAY        4.6120  -11.9850    9.2970 C.3     2  IWR2        0.0091
     29  CAU        3.4870  -10.9520    9.5200 C.3     2  IWR2        0.0860
     30  CAX        3.7610   -9.5900    8.8850 C.2     2  IWR2        0.2351
     31  OBD        3.7980   -9.4200    7.6710 O.2     2  IWR2       -0.2741
@<TRIPOS>BOND
     1     4     5   ar
     2     4     3   ar
     3     5     6   ar
     4     3     2   ar
     5     6     7   ar
     6     6     1   ar
     7     2     1   ar
     8     7     8   ar
     9     1    10   ar
    10     8     9   ar
    11    10     9   ar
    12    10    11    1
    13    11    12   am
    14    31    30    2
    15    12    14    1
    16    12    13    2
    17    14    15   ar
    18    14    17   ar
    19    15    16   ar
    20    30    29    1
    21    30    20   am
    22    17    18   ar
    23    16    19   ar
    24    28    27    1
    25    28    29    1
    26    28    25    1
    27    27    26    1
    28    18    19   ar
    29    19    20    1
    30    29    23    1
    31    20    21   am
    32    25    24    1
    33    26    24    1
    34    23    21    1
    35    23    24    1
    36    21    22    2
