@<TRIPOS>MOLECULE
3uag_UMA_A_1.pdb
 49 51 0 0 0
SMALL
GASTEIGER

@<TRIPOS>ATOM
      1  N1        50.0480    0.9170   11.2880 N.am  450  UMA450     -0.1766
      2  C2        50.8700    0.9790   10.1740 C.1   450  UMA450      0.2845
      3  N3        52.2570    1.0360   10.4200 N.2   450  UMA450     -0.2452
      4  C4        52.8700    1.2090   11.6930 C.1   450  UMA450      0.2182
      5  C5        51.9420    1.0190   12.8030 C.2   450  UMA450      0.1242
      6  C6        50.6000    0.8970   12.5650 C.2   450  UMA450      0.0929
      7  O2        50.4110    0.9740    9.0400 O.2   450  UMA450     -0.1918
      8  O4        54.0600    1.5200   11.8170 O.2   450  UMA450     -0.2085
      9  C1B       48.6050    0.8980   11.0440 C.3   450  UMA450      0.2401
     10  C2B       48.2710   -0.4180   11.5920 C.3   450  UMA450      0.2319
     11  O2'       48.4620   -1.5340   10.7670 O.3   450  UMA450     -0.2157
     12  C3B       47.0220   -0.4640   12.2990 C.3   450  UMA450      0.2158
     13  C4B       46.8410    0.9900   12.5140 C.3   450  UMA450      0.1799
     14  O4B       48.0200    1.6820   12.0090 O.3   450  UMA450     -0.3320
     15  O3B       46.0500   -1.1140   11.5650 O.3   450  UMA450     -0.2175
     16  C5B       46.7330    1.1160   14.0530 C.3   450  UMA450      0.1813
     17  O5B       47.8000    0.4140   14.7270 O.3   450  UMA450     -0.3112
     18  PA        48.3360    0.9120   16.1340 P.3   450  UMA450      0.2189
     19  O1A       49.1740   -0.2060   16.6280 O.3   450  UMA450     -0.4371
     20  O2A       48.9060    2.2310   15.9950 O.2   450  UMA450     -0.5170
     21  O3A       46.9150    0.9700   16.8590 O.3   450  UMA450     -0.2703
     22  PB        46.5550    1.9410   18.1100 P.3   450  UMA450      0.2208
     23  O1B       45.9960    3.2740   17.7440 O.2   450  UMA450     -0.5170
     24  O2B       47.6030    1.9870   19.1030 O.3   450  UMA450     -0.4371
     25  O1'       45.3900    1.0290   18.7350 O.3   450  UMA450     -0.2864
     26  C1'       45.7560   -0.2390   19.2600 C.3   450  UMA450      0.2632
     27  C2'       44.6710   -1.2560   18.9320 C.3   450  UMA450      0.1813
     28  N2'       44.5780   -1.4120   17.4860 N.am  450  UMA450     -0.1994
     29  C7'       45.1770   -2.4390   16.8830 C.2   450  UMA450      0.2420
     30  O7'       45.7300   -3.3430   17.5150 O.2   450  UMA450     -0.2733
     31  C8'       45.1550   -2.4720   15.3530 C.3   450  UMA450      0.0964
     32  C3'       43.3670   -0.7200   19.5520 C.3   450  UMA450      0.1733
     33  O3'       42.2750   -1.6270   19.3350 O.3   450  UMA450     -0.3449
     34  C4'       43.5520   -0.6040   21.0500 C.3   450  UMA450      0.2103
     35  O4'       42.3410   -0.1540   21.6520 O.3   450  UMA450     -0.2178
     36  C5'       44.7060    0.3480   21.3660 C.3   450  UMA450      0.1833
     37  O5'       45.9140   -0.1020   20.6760 O.3   450  UMA450     -0.3260
     38  C6'       45.0340    0.3410   22.8630 C.3   450  UMA450      0.2142
     39  O6'       45.5100   -0.9450   23.2730 O.3   450  UMA450     -0.2176
     40  C18       41.3290   -1.6250   18.2450 C.3   450  UMA450      0.1926
     41  C19       41.5080   -2.7130   17.2510 C.2   450  UMA450      0.2690
     42  O18       40.9470   -2.6580   16.1770 O.2   450  UMA450     -0.2707
     43  C20       39.9320   -1.1290   18.6620 C.3   450  UMA450      0.0421
     44  N4        42.1900   -3.7740   17.6750 N.am  450  UMA450     -0.1936
     45  C21       42.1580   -5.0260   16.9450 C.3   450  UMA450      0.1979
     46  C22       40.8830   -5.8430   17.1690 C.2   450  UMA450      0.3842
     47  O19       40.2280   -5.6360   18.2270 O.co2 450  UMA450     -0.2437
     48  O20       40.5930   -6.7500   16.3380 O.co2 450  UMA450     -0.2437
     49  C23       43.4000   -5.8670   17.2330 C.3   450  UMA450      0.0356
@<TRIPOS>BOND
     1     7     2    2
     2     2     3    2
     3     2     1   am
     4     3     4    2
     5    11    10    1
     6     9     1    1
     7     9    10    1
     8     9    14    1
     9     1     6    1
    10    15    12    1
    11    10    12    1
    12     4     8    2
    13     4     5    1
    14    14    13    1
    15    12    13    1
    16    13    16    1
    17     6     5    2
    18    16    17    1
    19    17    18    1
    20    31    29    1
    21    20    18    2
    22    18    19    1
    23    18    21    1
    24    42    41    2
    25    48    46   ar
    26    21    22    1
    27    29    28   am
    28    29    30    2
    29    45    46    1
    30    45    49    1
    31    45    44    1
    32    46    47   ar
    33    41    44   am
    34    41    40    1
    35    28    27    1
    36    23    22    2
    37    22    25    1
    38    22    24    1
    39    40    43    1
    40    40    33    1
    41    25    26    1
    42    27    26    1
    43    27    32    1
    44    26    37    1
    45    33    32    1
    46    32    34    1
    47    37    36    1
    48    34    36    1
    49    34    35    1
    50    36    38    1
    51    38    39    1
