@<TRIPOS>MOLECULE
3uag_ADP_A_1.pdb
 27 29 0 0 0
SMALL
GASTEIGER

@<TRIPOS>ATOM
      1  PB        35.7170   -7.9950   21.0080 P.3   451  ADP451      0.5373
      2  O1B       36.2310   -6.8690   21.9560 O.3   451  ADP451     -0.1143
      3  O2B       36.4030   -9.2360   21.1060 O.3   451  ADP451     -0.1143
      4  O3B       35.5170   -7.6370   19.5900 O.2   451  ADP451     -0.2221
      5  PA        32.9960   -7.3490   21.9610 P.3   451  ADP451      0.2231
      6  O1A       33.3730   -5.9550   21.7860 O.2   451  ADP451     -0.5169
      7  O2A       32.4400   -7.6150   23.3140 O.3   451  ADP451     -0.4370
      8  O3A       34.2130   -8.3370   21.6360 O.3   451  ADP451     -0.2261
      9  O5'       31.9760   -7.8110   20.8570 O.3   451  ADP451     -0.3111
     10  C5'       32.2080   -7.5030   19.3930 C.3   451  ADP451      0.1813
     11  C4'       31.2250   -8.3650   18.5710 C.3   451  ADP451      0.1821
     12  O4'       31.1660   -9.6550   19.1800 O.3   451  ADP451     -0.3135
     13  C3'       29.8670   -7.6640   18.6870 C.3   451  ADP451      0.2184
     14  O3'       29.2350   -7.7460   17.3920 O.3   451  ADP451     -0.2174
     15  C2'       29.0620   -8.6720   19.6400 C.3   451  ADP451      0.2570
     16  O2'       27.6410   -8.8610   19.5620 O.3   451  ADP451     -0.2130
     17  C1'       29.7660   -9.9990   19.3590 C.3   451  ADP451      0.3186
     18  N9        29.7950  -11.0520   20.3850 N.pl3 451  ADP451     -0.1439
     19  C8        29.9040  -10.8260   21.7280 C.3   451  ADP451      0.3377
     20  N7        30.2460  -11.8670   22.4520 N.2   451  ADP451     -0.2095
     21  C5        30.3710  -12.8520   21.5000 C.2   451  ADP451      0.2526
     22  C6        30.7430  -14.2570   21.6150 C.2   451  ADP451      0.4393
     23  N6        31.0480  -14.7890   22.8250 N.pl3 451  ADP451      0.2180
     24  N1        30.7430  -14.9410   20.4380 N.2   451  ADP451      0.0021
     25  C2        30.4450  -14.3880   19.2500 C.3   451  ADP451      0.5254
     26  N3        30.1210  -13.0940   19.0700 N.2   451  ADP451     -0.0055
     27  C4        30.0990  -12.3890   20.2300 C.2   451  ADP451      0.3518
@<TRIPOS>BOND
     1    14    13    1
     2    11    13    1
     3    11    12    1
     4    11    10    1
     5    13    15    1
     6    26    25    1
     7    26    27    2
     8    12    17    1
     9    25    24    1
    10    17    15    1
    11    17    18    1
    12    10     9    1
    13    16    15    1
    14     4     1    2
    15    27    18    1
    16    27    21    1
    17    18    19    1
    18    24    22    2
    19     9     5    1
    20     1     3    1
    21     1     8    1
    22     1     2    1
    23    21    22    1
    24    21    20    2
    25    22    23    1
    26     8     5    1
    27    19    20    1
    28     6     5    2
    29     5     7    1
