@<TRIPOS>MOLECULE
3uan_IDS_A_1.pdb
 16 16 0 0 0
SMALL
GASTEIGER

@<TRIPOS>ATOM
      1  C1         6.6050   11.5090   48.2770 C.3     4  IDS4        0.1774
      2  C2         6.5730   11.3780   46.7850 C.3     4  IDS4        0.2054
      3  C3         7.7460   12.0630   46.1180 C.3     4  IDS4        0.2169
      4  C4         9.0500   11.9610   46.8590 C.3     4  IDS4        0.2227
      5  C5         8.8160   12.0040   48.3450 C.3     4  IDS4        0.2512
      6  C6        10.0800   11.6500   49.0630 C.2     4  IDS4        0.3940
      7  O2         6.5060   10.0450   46.4190 O.3     4  IDS4       -0.2384
      8  O3         7.4250   13.4000   45.9850 O.3     4  IDS4       -0.2175
      9  O4         9.7880   10.8350   46.4850 O.3     4  IDS4       -0.2171
     10  O5         7.8400   11.1170   48.7370 O.3     4  IDS4       -0.3403
     11  O61       10.9740   12.5170   49.2420 O.co2   4  IDS4       -0.2429
     12  O62       10.2540   10.4740   49.4810 O.co2   4  IDS4       -0.2429
     13  S          5.2070    9.4940   45.9900 S.3     4  IDS4       -0.0001
     14  O1S        4.8020   10.0980   44.7460 O.2     4  IDS4       -0.3452
     15  O2S        5.4060    8.0470   45.8350 O.2     4  IDS4       -0.3452
     16  O3S        4.1930    9.7420   46.9860 O.3     4  IDS4       -0.2682
@<TRIPOS>BOND
     1    14    13    2
     2    15    13    2
     3     8     3    1
     4    13     7    1
     5    13    16    1
     6     3     2    1
     7     3     4    1
     8     7     2    1
     9     9     4    1
    10     2     1    1
    11     4     5    1
    12     1    10    1
    13     5    10    1
    14     5     6    1
    15     6    11   ar
    16     6    12   ar
