@<TRIPOS>MOLECULE
3uan_NGY_A_1.pdb
 18 18 0 0 0
SMALL
GASTEIGER

@<TRIPOS>ATOM
      1  C1        20.6530   11.4490   47.4270 C.3     1  NGY1        0.1665
      2  C2        21.4020   12.7390   47.3680 C.3     1  NGY1        0.1576
      3  C3        21.9800   12.8860   46.0040 C.3     1  NGY1        0.2069
      4  C4        22.8860   11.7330   45.7490 C.3     1  NGY1        0.2134
      5  C5        22.0690   10.4870   45.8570 C.3     1  NGY1        0.1800
      6  C6        22.8880    9.2680   45.5670 C.3     1  NGY1        0.2045
      7  O3        22.6750   14.0720   45.9040 O.3     1  NGY1       -0.2184
      8  O4        23.4180   11.8400   44.4840 O.3     1  NGY1       -0.2176
      9  O5        21.5210   10.4180   47.1210 O.3     1  NGY1       -0.3490
     10  O6        24.0590    9.2470   46.3010 O.3     1  NGY1       -0.2384
     11  N         20.5010   13.8240   47.6100 N.am    1  NGY1       -0.2019
     12  C         20.8950   14.9200   48.4370 C.2     1  NGY1        0.2420
     13  O         22.0070   14.9380   48.9460 O.2     1  NGY1       -0.2733
     14  CH3       19.9360   16.0390   48.6730 C.3     1  NGY1        0.0964
     15  S         24.7990    7.9770   46.4750 S.3     1  NGY1       -0.0001
     16  O7        25.2460    7.4770   45.2010 O.2     1  NGY1       -0.3452
     17  O8        23.8490    7.0510   47.0900 O.2     1  NGY1       -0.3452
     18  O9        25.9390    8.2080   47.3300 O.3     1  NGY1       -0.2682
@<TRIPOS>BOND
     1     8     4    1
     2    16    15    2
     3     6     5    1
     4     6    10    1
     5     4     5    1
     6     4     3    1
     7     5     9    1
     8     7     3    1
     9     3     2    1
    10    10    15    1
    11    15    17    2
    12    15    18    1
    13     9     1    1
    14     2     1    1
    15     2    11    1
    16    11    12   am
    17    12    14    1
    18    12    13    2
