@<TRIPOS>MOLECULE
3uan_SGN_A_1.pdb
 19 19 0 0 0
SMALL
GASTEIGER

@<TRIPOS>ATOM
      1  C1        10.5200   11.0710   45.2550 C.3     3  SGN3        0.1640
      2  C2        11.2950    9.8300   44.8010 C.3     3  SGN3        0.1563
      3  C3        12.4280    9.4880   45.7640 C.3     3  SGN3        0.2047
      4  C4        13.3240   10.6980   45.9780 C.3     3  SGN3        0.2131
      5  C5        12.4400   11.8900   46.3470 C.3     3  SGN3        0.1800
      6  C6        13.2460   13.1710   46.5220 C.3     3  SGN3        0.2045
      7  N         10.4190    8.6820   44.6500 N.3     3  SGN3       -0.1156
      8  O3        13.1820    8.4100   45.2440 O.3     3  SGN3       -0.2187
      9  O4        14.2070   10.3940   47.0480 O.3     3  SGN3       -0.2176
     10  O5        11.4480   12.1320   45.3670 O.3     3  SGN3       -0.3493
     11  O6        13.9300   13.4910   45.3310 O.3     3  SGN3       -0.2384
     12  S1         9.5460    8.5990   43.3150 S.3     3  SGN3       -0.1289
     13  O1S        8.6360    9.7300   43.2950 O.3     3  SGN3       -0.2919
     14  O2S       10.4600    8.6590   42.1790 O.3     3  SGN3       -0.2919
     15  O3S        8.8480    7.3180   43.3920 O.3     3  SGN3       -0.2919
     16  S2        14.8500   14.7630   45.3270 S.3     3  SGN3       -0.0001
     17  O4S       15.3640   14.9310   43.9740 O.2     3  SGN3       -0.3452
     18  O5S       14.0030   15.8660   45.7570 O.2     3  SGN3       -0.3452
     19  O6S       15.9140   14.5260   46.2950 O.3     3  SGN3       -0.2682
@<TRIPOS>BOND
     1    14    12    1
     2    13    12    1
     3    12    15    1
     4    12     7    1
     5    17    16    2
     6     7     2    1
     7     2     1    1
     8     2     3    1
     9     8     3    1
    10     1    10    1
    11    16    11    1
    12    16    18    2
    13    16    19    1
    14    11     6    1
    15    10     5    1
    16     3     4    1
    17     4     5    1
    18     4     9    1
    19     5     6    1
