@<TRIPOS>MOLECULE
3uan_A3P_A_1.pdb
 27 29 0 0 0
SMALL
GASTEIGER

@<TRIPOS>ATOM
      1  P1        15.9000    1.4110   53.3760 P.3   603  A3P603      0.5327
      2  O1P       16.4150    2.7930   53.6760 O.2   603  A3P603     -0.2224
      3  O2P       14.4960    1.2690   53.8870 O.3   603  A3P603     -0.1145
      4  O3P       16.7660    0.3820   54.0560 O.3   603  A3P603     -0.1145
      5  P2        15.6940    3.6510   46.7850 P.3   603  A3P603      0.5327
      6  O4P       14.8910    3.1320   45.6290 O.2   603  A3P603     -0.2224
      7  O5P       17.0410    4.1620   46.3220 O.3   603  A3P603     -0.1145
      8  O6P       14.9340    4.7250   47.5170 O.3   603  A3P603     -0.1145
      9  O5'       15.8640    2.4160   47.7330 O.3   603  A3P603     -0.2675
     10  C5'       16.3280    2.5500   49.0160 C.3   603  A3P603      0.1859
     11  C4'       16.7260    1.2130   49.6400 C.3   603  A3P603      0.1796
     12  O4'       17.8490    0.7260   48.9900 O.3   603  A3P603     -0.3136
     13  C3'       17.0950    1.1980   51.0920 C.3   603  A3P603      0.1928
     14  O3'       15.9480    1.1390   51.8310 O.3   603  A3P603     -0.2673
     15  C2'       17.9040   -0.0110   51.2170 C.3   603  A3P603      0.2543
     16  O2'       17.2260   -1.0680   51.7880 O.3   603  A3P603     -0.2131
     17  C1'       18.2590   -0.4010   49.8140 C.3   603  A3P603      0.3185
     18  N9        19.6370   -0.8100   49.5000 N.pl3 603  A3P603     -0.1439
     19  C8        19.9800   -1.8160   48.6760 C.3   603  A3P603      0.3377
     20  N7        21.3210   -1.9000   48.6220 N.2   603  A3P603     -0.2095
     21  C5        21.8360   -0.9370   49.4140 C.2   603  A3P603      0.2526
     22  C6        23.1390   -0.5670   49.7370 C.2   603  A3P603      0.4393
     23  N6        24.2450   -1.2350   49.2030 N.pl3 603  A3P603      0.2180
     24  N1        23.3260    0.4690   50.5760 N.2   603  A3P603      0.0021
     25  C2        22.2910    1.1360   51.1060 C.3   603  A3P603      0.5254
     26  N3        21.0310    0.7870   50.8030 N.2   603  A3P603     -0.0055
     27  C4        20.7710   -0.2430   49.9590 C.2   603  A3P603      0.3518
@<TRIPOS>BOND
     1     6     5    2
     2     7     5    1
     3     5     8    1
     4     5     9    1
     5     9    10    1
     6    20    19    1
     7    20    21    2
     8    19    18    1
     9    12    11    1
    10    12    17    1
    11    10    11    1
    12    23    22    1
    13    21    22    1
    14    21    27    1
    15    18    17    1
    16    18    27    1
    17    11    13    1
    18    22    24    2
    19    17    15    1
    20    27    26    2
    21    24    25    1
    22    26    25    1
    23    13    15    1
    24    13    14    1
    25    15    16    1
    26    14     1    1
    27     1     2    2
    28     1     3    1
    29     1     4    1
