@<TRIPOS>MOLECULE
3uan_BDP_A_1.pdb
 12 12 0 0 0
SMALL
GASTEIGER

@<TRIPOS>ATOM
      1  C1        15.5630   10.8400   46.8350 C.3     2  BDP2        0.1783
      2  C2        16.2530   11.0410   48.1500 C.3     2  BDP2        0.2141
      3  C3        17.6170   11.6030   47.9520 C.3     2  BDP2        0.2178
      4  C4        18.4040   10.8040   46.9680 C.3     2  BDP2        0.2227
      5  C5        17.5590   10.5000   45.7510 C.3     2  BDP2        0.2512
      6  C6        18.2560    9.6150   44.7620 C.2     2  BDP2        0.3940
      7  O2        15.5350   11.9140   48.9540 O.3     2  BDP2       -0.2176
      8  O3        18.2540   11.6040   49.1790 O.3     2  BDP2       -0.2175
      9  O4        19.5100   11.5410   46.5450 O.3     2  BDP2       -0.2171
     10  O5        16.3250    9.9460   46.1000 O.3     2  BDP2       -0.3403
     11  O6A       18.5280   10.0550   43.6170 O.co2   2  BDP2       -0.2429
     12  O6B       18.5540    8.4300   45.0620 O.co2   2  BDP2       -0.2429
@<TRIPOS>BOND
     1    11     6   ar
     2     6    12   ar
     3     6     5    1
     4     5    10    1
     5     5     4    1
     6    10     1    1
     7     9     4    1
     8     1     2    1
     9     4     3    1
    10     3     2    1
    11     3     8    1
    12     2     7    1
