@<TRIPOS>MOLECULE
3uar_GSH_A_1.pdb
 20 19 0 0 0
SMALL
GASTEIGER

@<TRIPOS>ATOM
      1  N1       -10.4930   29.2370   -6.1270 N.3   226  GSH226     -0.1208
      2  CA1       -9.0420   29.2020   -6.1520 C.3   226  GSH226      0.1948
      3  C1        -8.5720   27.7750   -6.2710 C.2   226  GSH226      0.3819
      4  O11       -9.2060   26.8610   -5.6970 O.co2 226  GSH226     -0.2441
      5  O12       -7.5470   27.4730   -6.9370 O.co2 226  GSH226     -0.2441
      6  CB1       -8.5280   29.7940   -4.8470 C.3   226  GSH226      0.0402
      7  CG1       -7.0090   29.7380   -4.7970 C.3   226  GSH226      0.0889
      8  CD1       -6.5430   30.2220   -3.4480 C.2   226  GSH226      0.2418
      9  OE1       -7.4530   30.7840   -2.5250 O.2   226  GSH226     -0.2733
     10  N2        -5.2460   30.0670   -3.2110 N.am  226  GSH226     -0.1968
     11  CA2       -4.5780   30.5940   -2.0440 C.3   226  GSH226      0.1843
     12  C2        -3.6590   31.6870   -2.4650 C.2   226  GSH226      0.2627
     13  O2        -2.5570   31.3780   -3.2890 O.2   226  GSH226     -0.2714
     14  CB2       -3.7270   29.5180   -1.3800 C.3   226  GSH226      0.0997
     15  SG2       -4.6770   28.4890   -0.2350 S.3   226  GSH226     -0.0797
     16  N3        -3.9470   32.9120   -2.0290 N.am  226  GSH226     -0.1917
     17  CA3       -3.0470   34.0310   -2.2400 C.3   226  GSH226      0.2285
     18  C3        -3.6920   35.1320   -3.0540 C.2   226  GSH226      0.3865
     19  O31       -3.0390   36.1550   -3.3670 O.co2 226  GSH226     -0.2437
     20  O32       -4.8850   35.0360   -3.4270 O.co2 226  GSH226     -0.2437
@<TRIPOS>BOND
     1     5     3   ar
     2     3     2    1
     3     3     4   ar
     4     2     1    1
     5     2     6    1
     6     6     7    1
     7     7     8    1
     8     8    10   am
     9     8     9    2
    10    20    18   ar
    11    19    18   ar
    12    13    12    2
    13    10    11    1
    14    18    17    1
    15    12    11    1
    16    12    16   am
    17    17    16    1
    18    11    14    1
    19    14    15    1
