@<TRIPOS>MOLECULE
3uas_0BV_A_1.pdb
 17 19 0 0 0
SMALL
GASTEIGER

@<TRIPOS>ATOM
      1  OAA      -24.5120   30.4720   -6.7720 O.2   501  0BV501     -0.2879
      2  CAB      -24.3120   29.9710   -5.6650 C.2   501  0BV501      0.2121
      3  CAL      -23.5570   28.6900   -5.4720 C.3   501  0BV501      0.0985
      4  CAM      -22.3330   28.4880   -6.3220 C.ar  501  0BV501     -0.0143
      5  CAO      -21.4750   27.4130   -6.0570 C.ar  501  0BV501     -0.0035
      6  CAH      -21.7410   26.5340   -5.0060 C.ar  501  0BV501     -0.0003
      7  CAD      -20.8900   25.4670   -4.7410 C.ar  501  0BV501     -0.0000
      8  CAF      -19.7630   25.2670   -5.5300 C.ar  501  0BV501     -0.0000
      9  CAJ      -19.4870   26.1340   -6.5770 C.ar  501  0BV501     -0.0000
     10  CAQ      -20.3380   27.2070   -6.8490 C.ar  501  0BV501     -0.0003
     11  CAP      -20.0610   28.0780   -7.9090 C.ar  501  0BV501     -0.0000
     12  CAI      -18.9360   27.8920   -8.7100 C.ar  501  0BV501     -0.0000
     13  CAE      -18.6820   28.7720   -9.7570 C.ar  501  0BV501     -0.0000
     14  CAC      -19.5400   29.8370  -10.0130 C.ar  501  0BV501     -0.0000
     15  CAG      -20.6620   30.0250   -9.2160 C.ar  501  0BV501     -0.0000
     16  CAN      -20.9200   29.1470   -8.1700 C.ar  501  0BV501     -0.0003
     17  CAK      -22.0430   29.3440   -7.3820 C.ar  501  0BV501     -0.0038
@<TRIPOS>BOND
     1    14    13   ar
     2    14    15   ar
     3    13    12   ar
     4    15    16   ar
     5    12    11   ar
     6    16    11   ar
     7    16    17   ar
     8    11    10   ar
     9    17     4   ar
    10    10     9   ar
    11    10     5   ar
    12     1     2    2
    13     9     8   ar
    14     4     5   ar
    15     4     3    1
    16     5     6   ar
    17     2     3    1
    18     8     7   ar
    19     6     7   ar
