@<TRIPOS>MOLECULE
3uas_HEM_A_1.pdb
 43 50 0 0 0
SMALL
GASTEIGER

@<TRIPOS>ATOM
      1  CHA      -19.7170   33.5110  -10.8130 C.2   500  HEM500      0.0000
      2  CHB      -22.0670   34.8930   -6.8200 C.2   500  HEM500      0.0000
      3  CHC      -26.2880   34.3240   -9.1190 C.2   500  HEM500      0.0000
      4  CHD      -23.9550   33.2580  -13.2230 C.2   500  HEM500      0.0000
      5  C1A      -19.9860   33.8950   -9.5230 C.2   500  HEM500      0.0000
      6  C2A      -19.0100   34.0540   -8.4690 C.2   500  HEM500      0.0000
      7  C3A      -19.6500   34.4310   -7.3610 C.2   500  HEM500      0.0000
      8  C4A      -21.0590   34.5300   -7.6820 C.2   500  HEM500      0.0000
      9  CMA      -19.0040   34.7230   -5.9860 C.3   500  HEM500      0.0000
     10  CAA      -17.4920   33.8150   -8.6160 C.3   500  HEM500      0.0000
     11  CBA      -16.8330   34.9670   -9.3600 C.3   500  HEM500      0.0000
     12  CGA      -15.3470   34.8150   -9.1930 C.2   500  HEM500      0.0000
     13  O1A      -14.7130   34.0320   -9.9460 O.co2 500  HEM500      0.0000
     14  O2A      -14.7880   35.4710   -8.2850 O.co2 500  HEM500      0.0000
     15  C1B      -23.4120   34.9120   -7.1020 C.ar  500  HEM500      0.0000
     16  C2B      -24.4590   35.4150   -6.2330 C.ar  500  HEM500      0.0000
     17  C3B      -25.6330   35.2540   -6.8680 C.ar  500  HEM500      0.0000
     18  C4B      -25.3540   34.6520   -8.1590 C.ar  500  HEM500      0.0000
     19  CMB      -24.2170   36.0210   -4.8300 C.3   500  HEM500      0.0000
     20  CAB      -27.0520   35.6370   -6.3730 C.2   500  HEM500      0.0000
     21  CBB      -27.4900   35.3820   -5.1340 C.2   500  HEM500      0.0000
     22  C1C      -26.0290   34.1000  -10.4540 C.2   500  HEM500      0.0000
     23  C2C      -26.9750   34.2050  -11.5490 C.2   500  HEM500      0.0000
     24  C3C      -26.3220   33.9060  -12.6770 C.2   500  HEM500      0.0000
     25  C4C      -24.9460   33.6100  -12.3350 C.2   500  HEM500      0.0000
     26  CMC      -28.4700   34.5910  -11.4260 C.3   500  HEM500      0.0000
     27  CAC      -26.8980   33.8820  -14.1120 C.2   500  HEM500      0.0000
     28  CBC      -27.9490   33.0960  -14.4110 C.2   500  HEM500      0.0000
     29  C1D      -22.6050   33.1910  -12.9660 C.ar  500  HEM500      0.0000
     30  C2D      -21.5960   32.8090  -13.9280 C.ar  500  HEM500      0.0000
     31  C3D      -20.2670   32.8880  -13.1670 C.ar  500  HEM500      0.0000
     32  C4D      -20.6140   33.3110  -11.8300 C.ar  500  HEM500      0.0000
     33  CMD      -21.8170   32.4010  -15.4020 C.3   500  HEM500      0.0000
     34  CAD      -18.8560   32.5810  -13.7070 C.3   500  HEM500      0.0000
     35  CBD      -18.3820   33.7840  -14.5100 C.3   500  HEM500      0.0000
     36  CGD      -16.9460   33.6210  -14.9380 C.2   500  HEM500      0.0000
     37  O1D      -16.5050   34.4010  -15.8150 O.co2 500  HEM500      0.0000
     38  O2D      -16.2370   32.7250  -14.4120 O.co2 500  HEM500      0.0000
     39  NA       -21.2230   34.1920   -9.0070 N.2   500  HEM500      0.0000
     40  NB       -23.9910   34.4500   -8.2630 N.ar  500  HEM500      0.0000
     41  NC       -24.8020   33.7330  -10.9690 N.2   500  HEM500      0.0000
     42  ND       -21.9890   33.4760  -11.7500 N.ar  500  HEM500      0.0000
     43 FE        -22.9590   33.9890   -9.9760 Fe    500  HEM500      0.0000
@<TRIPOS>BOND
     1    37    36   ar
     2    33    30    1
     3    36    35    1
     4    36    38   ar
     5    35    34    1
     6    28    27    2
     7    27    24    1
     8    30    31   ar
     9    30    29   ar
    10    34    31    1
    11     4    29    2
    12     4    25    1
    13    31    32   ar
    14    29    42   ar
    15    24    25    1
    16    24    23    2
    17    25    41    2
    18    32    42   ar
    19    32     1    2
    20    42    43    1
    21    23    26    1
    22    23    22    1
    23    41    22    1
    24    41    43    1
    25     1     5    1
    26    22     3    2
    27    43    39    1
    28    43    40    1
    29    13    12   ar
    30     5    39    2
    31     5     6    1
    32    11    12    1
    33    11    10    1
    34    12    14   ar
    35     3    18    1
    36    39     8    1
    37    10     6    1
    38     6     7    2
    39    40    18   ar
    40    40    15   ar
    41    18    17   ar
    42     8     7    1
    43     8     2    2
    44     7     9    1
    45    15     2    1
    46    15    16   ar
    47    17    20    1
    48    17    16   ar
    49    20    21    2
    50    16    19    1
