@<TRIPOS>MOLECULE
3uas_CM5_A_1.pdb
 34 36 0 0 0
SMALL
GASTEIGER

@<TRIPOS>ATOM
      1  C7       -34.5820   22.2020  -13.3690 C.3   502  CM5502      0.0000
      2  C8       -33.6180   22.1500  -12.1820 C.3   502  CM5502      0.0000
      3  C9       -32.1800   21.8280  -12.6020 C.3   502  CM5502      0.0000
      4  C10      -31.9280   22.0540  -14.0930 C.3   502  CM5502      0.0000
      5  C11      -32.8830   21.2650  -14.9900 C.3   502  CM5502      0.0000
      6  C6       -34.2910   21.1140  -14.4050 C.3   502  CM5502      0.0000
      7  C5       -35.3150   21.2080  -15.5290 C.3   502  CM5502      0.0000
      8  C4       -35.8380   19.8220  -15.8860 C.3   502  CM5502      0.0001
      9  C3       -37.3290   19.7020  -15.6000 C.3   502  CM5502      0.0026
     10  C2       -37.9410   18.4420  -16.2080 C.3   502  CM5502      0.0322
     11  C1       -38.7210   18.8310  -17.4610 C.3   502  CM5502      0.1449
     12  O12      -39.5060   17.7450  -17.9660 O.3   502  CM5502     -0.3286
     13  C13      -40.3490   18.2320  -19.0110 C.3   502  CM5502      0.2695
     14  C18      -39.9040   17.6790  -20.3730 C.3   502  CM5502      0.2404
     15  O22      -39.2580   18.7380  -21.0900 O.3   502  CM5502     -0.2149
     16  C17      -41.0230   17.1030  -21.2560 C.3   502  CM5502      0.2167
     17  O21      -41.0330   15.6730  -21.1410 O.3   502  CM5502     -0.2175
     18  O14      -41.7200   17.9390  -18.7260 O.3   502  CM5502     -0.3257
     19  C15      -42.5650   18.4980  -19.7300 C.3   502  CM5502      0.1803
     20  C19      -43.9930   18.5900  -19.1950 C.3   502  CM5502      0.2141
     21  O20      -44.3950   19.9660  -19.1150 O.3   502  CM5502     -0.2176
     22  C16      -42.4460   17.6380  -20.9960 C.3   502  CM5502      0.1804
     23  O23      -42.9010   18.3450  -22.1590 O.3   502  CM5502     -0.3257
     24  C24      -44.0360   17.7020  -22.7530 C.3   502  CM5502      0.2695
     25  O25      -45.0320   18.6510  -23.1530 O.3   502  CM5502     -0.3256
     26  C26      -46.2900   18.0660  -23.5440 C.3   502  CM5502      0.1835
     27  C30      -47.3510   18.3540  -22.4750 C.3   502  CM5502      0.2142
     28  O31      -47.4380   19.7600  -22.2100 O.3   502  CM5502     -0.2176
     29  C27      -46.2080   16.5520  -23.8280 C.3   502  CM5502      0.2144
     30  O32      -47.2700   16.1950  -24.7240 O.3   502  CM5502     -0.2176
     31  C28      -44.8750   16.0400  -24.4020 C.3   502  CM5502      0.2198
     32  O33      -44.6840   14.6750  -24.0060 O.3   502  CM5502     -0.2174
     33  C29      -43.6520   16.8330  -23.9500 C.3   502  CM5502      0.2406
     34  O34      -43.1550   17.6390  -25.0280 O.3   502  CM5502     -0.2149
@<TRIPOS>BOND
     1    34    33    1
     2    30    29    1
     3    31    32    1
     4    31    33    1
     5    31    29    1
     6    33    24    1
     7    29    26    1
     8    26    25    1
     9    26    27    1
    10    25    24    1
    11    24    23    1
    12    27    28    1
    13    23    22    1
    14    16    17    1
    15    16    22    1
    16    16    14    1
    17    15    14    1
    18    22    19    1
    19    14    13    1
    20    19    20    1
    21    19    18    1
    22    20    21    1
    23    13    18    1
    24    13    12    1
    25    12    11    1
    26    11    10    1
    27    10     9    1
    28     8     9    1
    29     8     7    1
    30     7     6    1
    31     5     6    1
    32     5     4    1
    33     6     1    1
    34     4     3    1
    35     1     2    1
    36     3     2    1
