@<TRIPOS>MOLECULE
3uaw_ADN_A_1.pdb
 19 21 0 0 0
SMALL
GASTEIGER

@<TRIPOS>ATOM
      1  O5'       40.2800   17.6620   41.1050 O.3   236  ADN236     -0.2176
      2  C5'       41.1440   17.9910   42.1510 C.3   236  ADN236      0.2143
      3  C4'       41.2020   16.8930   43.1680 C.3   236  ADN236      0.1851
      4  O4'       41.6040   15.6650   42.5270 O.3   236  ADN236     -0.3134
      5  C3'       42.2090   17.1410   44.2480 C.3   236  ADN236      0.2186
      6  O3'       41.7920   16.5350   45.4600 O.3   236  ADN236     -0.2174
      7  C2'       43.4910   16.4880   43.7120 C.3   236  ADN236      0.2570
      8  O2'       44.2340   15.8270   44.6900 O.3   236  ADN236     -0.2130
      9  C1'       43.0050   15.5010   42.6330 C.3   236  ADN236      0.3186
     10  N9        43.5670   15.7360   41.2980 N.pl3 236  ADN236     -0.1439
     11  C8        43.3750   14.8630   40.2660 C.3   236  ADN236      0.3377
     12  N7        43.9190   15.3460   39.1290 N.2   236  ADN236     -0.2095
     13  C5        44.4280   16.5420   39.4350 C.2   236  ADN236      0.2526
     14  C6        45.1030   17.5480   38.6750 C.2   236  ADN236      0.4393
     15  N6        45.3420   17.3670   37.3730 N.pl3 236  ADN236      0.2180
     16  N1        45.5050   18.6430   39.2890 N.2   236  ADN236      0.0021
     17  C2        45.2820   18.8090   40.5880 C.3   236  ADN236      0.5254
     18  N3        44.6490   17.9340   41.3810 N.2   236  ADN236     -0.0055
     19  C4        44.1990   16.8000   40.8370 C.2   236  ADN236      0.3518
@<TRIPOS>BOND
     1    15    14    1
     2    14    16    2
     3    14    13    1
     4    12    13    2
     5    12    11    1
     6    16    17    1
     7    13    19    1
     8    11    10    1
     9    17    18    1
    10    19    10    1
    11    19    18    2
    12     1     2    1
    13    10     9    1
    14     2     3    1
    15     4     9    1
    16     4     3    1
    17     9     7    1
    18     3     5    1
    19     7     5    1
    20     7     8    1
    21     5     6    1
