@<TRIPOS>MOLECULE
3uax_NOS_A_1.pdb
 19 21 0 0 0
SMALL
GASTEIGER

@<TRIPOS>ATOM
      1  N9        44.1730   15.9790   42.0310 N.pl3 236  NOS236     -0.1435
      2  C4        44.7920   17.0460   41.5250 C.2   236  NOS236      0.3528
      3  N3        45.1940   18.2450   42.0320 N.2   236  NOS236     -0.0334
      4  C2        45.8230   19.1050   41.2130 C.3   236  NOS236      0.4017
      5  N1        46.0870   18.8720   39.9200 N.2   236  NOS236     -0.1458
      6  C6        45.7440   17.7190   39.3380 C.1   236  NOS236      0.1792
      7  O6        46.0200   17.4730   38.0530 O.2   236  NOS236     -0.2203
      8  C5        45.0650   16.7140   40.1350 C.2   236  NOS236      0.2446
      9  N7        44.5800   15.4830   39.8880 N.2   236  NOS236     -0.2054
     10  C8        44.0250   15.0550   41.0460 C.3   236  NOS236      0.3382
     11  C5'       41.7030   18.2900   42.8760 C.3   236  NOS236      0.2143
     12  O5'       40.8240   17.9560   41.8220 O.3   236  NOS236     -0.2176
     13  C4'       41.7730   17.1860   43.9010 C.3   236  NOS236      0.1851
     14  O4'       42.1820   15.9540   43.2540 O.3   236  NOS236     -0.3134
     15  C1'       43.5890   15.7890   43.3710 C.3   236  NOS236      0.3186
     16  C2'       44.0810   16.7850   44.4420 C.3   236  NOS236      0.2570
     17  O2'       44.8570   16.1320   45.4090 O.3   236  NOS236     -0.2130
     18  C3'       42.7870   17.4260   44.9960 C.3   236  NOS236      0.2186
     19  O3'       42.3790   16.7710   46.1900 O.3   236  NOS236     -0.2174
@<TRIPOS>BOND
     1     7     6    2
     2     6     5    2
     3     6     8    1
     4     9     8    2
     5     9    10    1
     6     5     4    1
     7     8     2    1
     8    10     1    1
     9     4     3    1
    10     2     1    1
    11     2     3    2
    12    12    11    1
    13     1    15    1
    14    11    13    1
    15    14    15    1
    16    14    13    1
    17    15    16    1
    18    13    18    1
    19    16    18    1
    20    16    17    1
    21    18    19    1
