@<TRIPOS>MOLECULE
3uay_ADN_A_1.pdb
 19 21 0 0 0
SMALL
GASTEIGER

@<TRIPOS>ATOM
      1  O5'       40.5870   17.7780   41.8180 O.3   236  ADN236     -0.2176
      2  C5'       41.4690   18.1150   42.8670 C.3   236  ADN236      0.2143
      3  C4'       41.5560   17.0120   43.8760 C.3   236  ADN236      0.1851
      4  O4'       41.9750   15.7860   43.2210 O.3   236  ADN236     -0.3134
      5  C3'       42.5570   17.2590   44.9680 C.3   236  ADN236      0.2186
      6  O3'       42.1030   16.6860   46.1900 O.3   236  ADN236     -0.2174
      7  C2'       43.8440   16.5750   44.4720 C.3   236  ADN236      0.2570
      8  O2'       44.5810   15.9220   45.4660 O.3   236  ADN236     -0.2130
      9  C1'       43.3790   15.6020   43.3710 C.3   236  ADN236      0.3186
     10  N9        43.9790   15.8490   42.0530 N.pl3 236  ADN236     -0.1439
     11  C8        43.8090   14.9830   41.0030 C.3   236  ADN236      0.3377
     12  N7        44.3430   15.4700   39.8680 N.2   236  ADN236     -0.2095
     13  C5        44.8600   16.6820   40.1650 C.2   236  ADN236      0.2526
     14  C6        45.5480   17.6830   39.4020 C.2   236  ADN236      0.4393
     15  N6        45.7940   17.5080   38.0910 N.pl3 236  ADN236      0.2180
     16  N1        45.9510   18.7790   40.0390 N.2   236  ADN236      0.0021
     17  C2        45.7110   18.9420   41.3460 C.3   236  ADN236      0.5254
     18  N3        45.0710   18.0670   42.1410 N.2   236  ADN236     -0.0055
     19  C4        44.6170   16.9130   41.5830 C.2   236  ADN236      0.3518
@<TRIPOS>BOND
     1    15    14    1
     2    14    16    2
     3    14    13    1
     4    12    13    2
     5    12    11    1
     6    16    17    1
     7    13    19    1
     8    11    10    1
     9    17    18    1
    10    19    10    1
    11    19    18    2
    12     1     2    1
    13    10     9    1
    14     2     3    1
    15     4     9    1
    16     4     3    1
    17     9     7    1
    18     3     5    1
    19     7     5    1
    20     7     8    1
    21     5     6    1
