@<TRIPOS>MOLECULE
3uaz_NOS_A_1.pdb
 19 21 0 0 0
SMALL
GASTEIGER

@<TRIPOS>ATOM
      1  N9        44.0740   15.8860   41.9730 N.pl3 236  NOS236     -0.1435
      2  C4        44.6960   16.9160   41.4250 C.2   236  NOS236      0.3528
      3  N3        45.0880   18.1220   41.8990 N.2   236  NOS236     -0.0334
      4  C2        45.7270   18.9760   41.1070 C.3   236  NOS236      0.4017
      5  N1        46.0140   18.7170   39.8220 N.2   236  NOS236     -0.1458
      6  C6        45.6700   17.5660   39.2340 C.1   236  NOS236      0.1792
      7  O6        45.9490   17.2890   37.9410 O.2   236  NOS236     -0.2203
      8  C5        44.9880   16.5690   40.0370 C.2   236  NOS236      0.2446
      9  N7        44.4870   15.3450   39.8410 N.2   236  NOS236     -0.2054
     10  C8        43.9330   14.9380   40.9840 C.3   236  NOS236      0.3382
     11  C5'       41.6400   18.2860   42.8320 C.3   236  NOS236      0.2143
     12  O5'       40.6990   18.0050   41.8180 O.3   236  NOS236     -0.2176
     13  C4'       41.7020   17.1780   43.8350 C.3   236  NOS236      0.1851
     14  O4'       42.0920   15.9470   43.1690 O.3   236  NOS236     -0.3134
     15  C1'       43.4860   15.7320   43.3040 C.3   236  NOS236      0.3186
     16  C2'       43.9960   16.7290   44.3630 C.3   236  NOS236      0.2570
     17  O2'       44.7820   16.0940   45.3240 O.3   236  NOS236     -0.2130
     18  C3'       42.7260   17.4020   44.9150 C.3   236  NOS236      0.2186
     19  O3'       42.3060   16.7780   46.1210 O.3   236  NOS236     -0.2174
@<TRIPOS>BOND
     1     7     6    2
     2     6     5    2
     3     6     8    1
     4     5     4    1
     5     9     8    2
     6     9    10    1
     7     8     2    1
     8    10     1    1
     9     4     3    1
    10     2     3    2
    11     2     1    1
    12    12    11    1
    13     1    15    1
    14    11    13    1
    15    14    15    1
    16    14    13    1
    17    15    16    1
    18    13    18    1
    19    16    18    1
    20    16    17    1
    21    18    19    1
