@<TRIPOS>MOLECULE
3ub5_ATP_A_1.pdb
 31 33 0 0 0
SMALL
GASTEIGER

@<TRIPOS>ATOM
      1  PG        -8.4160  -15.4010   28.6980 P.3   376  ATP376      0.5373
      2  O1G       -9.6330  -16.2990   28.8630 O.3   376  ATP376     -0.1143
      3  O2G       -7.8270  -15.3090   27.2910 O.2   376  ATP376     -0.2221
      4  O3G       -8.6320  -14.0370   29.3250 O.3   376  ATP376     -0.1143
      5  PB        -5.6210  -15.9430   29.4880 P.3   376  ATP376      0.2277
      6  O1B       -5.2520  -14.5400   29.0670 O.2   376  ATP376     -0.5168
      7  O2B       -4.9730  -16.7280   30.6170 O.3   376  ATP376     -0.4368
      8  O3B       -7.2530  -16.0920   29.6260 O.3   376  ATP376     -0.2258
      9  PA        -3.8200  -16.9090   27.5610 P.3   376  ATP376      0.2189
     10  O1A       -3.9120  -16.5330   26.0770 O.2   376  ATP376     -0.5170
     11  O2A       -2.8990  -16.1360   28.4960 O.3   376  ATP376     -0.4371
     12  O3A       -5.3160  -16.8180   28.1710 O.3   376  ATP376     -0.2700
     13  O5'       -3.3700  -18.4750   27.7070 O.3   376  ATP376     -0.3112
     14  C5'       -4.1660  -19.5550   28.2200 C.3   376  ATP376      0.1813
     15  C4'       -4.6610  -20.4880   27.0940 C.3   376  ATP376      0.1821
     16  O4'       -3.8340  -20.5480   25.9210 O.3   376  ATP376     -0.3135
     17  C3'       -4.7440  -21.9220   27.5710 C.3   376  ATP376      0.2184
     18  O3'       -5.8960  -22.5070   26.9590 O.3   376  ATP376     -0.2174
     19  C2'       -3.4690  -22.5210   27.0250 C.3   376  ATP376      0.2570
     20  O2'       -3.4010  -23.9510   26.9610 O.3   376  ATP376     -0.2130
     21  C1'       -3.4560  -21.8950   25.6510 C.3   376  ATP376      0.3186
     22  N9        -2.0930  -22.0310   25.1190 N.pl3 376  ATP376     -0.1439
     23  C8        -0.9630  -21.4380   25.5700 C.3   376  ATP376      0.3377
     24  N7         0.1380  -21.8050   24.8300 N.2   376  ATP376     -0.2095
     25  C5        -0.3050  -22.6450   23.8840 C.2   376  ATP376      0.2526
     26  C6         0.3140  -23.4070   22.7940 C.2   376  ATP376      0.4393
     27  N6         1.6550  -23.3160   22.5460 N.pl3 376  ATP376      0.2180
     28  N1        -0.5250  -24.1690   22.0410 N.2   376  ATP376      0.0021
     29  C2        -1.8540  -24.2790   22.2770 C.3   376  ATP376      0.5254
     30  N3        -2.4890  -23.6260   23.2640 N.2   376  ATP376     -0.0055
     31  C4        -1.7740  -22.8060   24.0820 C.2   376  ATP376      0.3518
@<TRIPOS>BOND
     1    28    29    1
     2    28    26    2
     3    29    30    1
     4    27    26    1
     5    26    25    1
     6    30    31    2
     7    25    31    1
     8    25    24    2
     9    31    22    1
    10    24    23    1
    11    22    23    1
    12    22    21    1
    13    21    16    1
    14    21    19    1
    15    16    15    1
    16    10     9    2
    17    18    17    1
    18    20    19    1
    19    19    17    1
    20    15    17    1
    21    15    14    1
    22     3     1    2
    23     9    13    1
    24     9    12    1
    25     9    11    1
    26    13    14    1
    27    12     5    1
    28     1     2    1
    29     1     4    1
    30     1     8    1
    31     6     5    2
    32     5     8    1
    33     5     7    1
