@<TRIPOS>MOLECULE
3uba_HEM_A_1.pdb
 43 50 0 0 0
SMALL
GASTEIGER

@<TRIPOS>ATOM
      1  CHA        8.5360   -0.0140   28.4990 C.2   605  HEM605      0.0000
      2  CHB        8.6580    4.8290   28.0760 C.2   605  HEM605      0.0000
      3  CHC       10.7460    4.4170   23.7070 C.2   605  HEM605      0.0000
      4  CHD       10.7050   -0.4210   24.1110 C.2   605  HEM605      0.0000
      5  C1A        8.4040    1.3240   28.7700 C.2   605  HEM605      0.0000
      6  C2A        7.8430    1.9090   29.9920 C.2   605  HEM605      0.0000
      7  C3A        7.8880    3.2240   29.8760 C.2   605  HEM605      0.0000
      8  C4A        8.4590    3.5590   28.5860 C.2   605  HEM605      0.0000
      9  CMA        7.4080    4.2440   30.9310 C.3   605  HEM605      0.0000
     10  CAA        7.3270    1.1140   31.2010 C.3   605  HEM605      0.0000
     11  CBA        8.4790    0.7630   32.1330 C.3   605  HEM605      0.0000
     12  CGA        8.0670   -0.3410   33.0740 C.2   605  HEM605      0.0000
     13  O1A        8.2640   -1.5340   32.7260 O.co2 605  HEM605      0.0000
     14  O2A        7.5540   -0.0270   34.1770 O.co2 605  HEM605      0.0000
     15  C1B        9.2250    5.1380   26.8570 C.ar  605  HEM605      0.0000
     16  C2B        9.3850    6.4690   26.3170 C.ar  605  HEM605      0.0000
     17  C3B        9.9580    6.3510   25.1190 C.ar  605  HEM605      0.0000
     18  C4B       10.1880    4.9480   24.8470 C.ar  605  HEM605      0.0000
     19  CMB        8.9690    7.7870   26.9930 C.3   605  HEM605      0.0000
     20  CAB       10.3270    7.5230   24.1600 C.2   605  HEM605      0.0000
     21  CBB       10.0650    8.7890   24.5310 C.2   605  HEM605      0.0000
     22  C1C       10.9300    3.0790   23.4350 C.2   605  HEM605      0.0000
     23  C2C       11.5070    2.5150   22.2420 C.2   605  HEM605      0.0000
     24  C3C       11.4940    1.1830   22.3450 C.2   605  HEM605      0.0000
     25  C4C       10.8950    0.8530   23.6250 C.2   605  HEM605      0.0000
     26  CMC       12.0620    3.3140   21.0290 C.3   605  HEM605      0.0000
     27  CAC       12.0120    0.1830   21.3000 C.2   605  HEM605      0.0000
     28  CBC       12.5510    0.6330   20.1520 C.2   605  HEM605      0.0000
     29  C1D       10.0110   -0.7670   25.2630 C.ar  605  HEM605      0.0000
     30  C2D        9.5120   -2.0920   25.5680 C.ar  605  HEM605      0.0000
     31  C3D        8.8290   -1.9620   26.9310 C.ar  605  HEM605      0.0000
     32  C4D        8.9960   -0.5820   27.3170 C.ar  605  HEM605      0.0000
     33  CMD        9.6330   -3.3460   24.6900 C.3   605  HEM605      0.0000
     34  CAD        8.1340   -3.0910   27.7120 C.3   605  HEM605      0.0000
     35  CBD        6.7080   -3.2630   27.2040 C.3   605  HEM605      0.0000
     36  CGD        5.9970   -4.3290   27.9950 C.2   605  HEM605      0.0000
     37  O1D        5.7110   -4.0940   29.1980 O.co2 605  HEM605      0.0000
     38  O2D        5.7070   -5.4070   27.4220 O.co2 605  HEM605      0.0000
     39  NA         8.7610    2.3680   27.9360 N.2   605  HEM605      0.0000
     40  NB         9.7240    4.2360   25.9390 N.ar  605  HEM605      0.0000
     41  NC        10.5640    2.0300   24.2600 N.2   605  HEM605      0.0000
     42  ND         9.6870    0.0960   26.3230 N.ar  605  HEM605      0.0000
     43 FE          9.6890    2.1650   26.1180 Fe    605  HEM605      0.0000
@<TRIPOS>BOND
     1    28    27    2
     2    26    23    1
     3    27    24    1
     4    23    24    2
     5    23    22    1
     6    24    25    1
     7    22     3    2
     8    22    41    1
     9    25     4    1
    10    25    41    2
    11     3    18    1
    12     4    29    2
    13    20    21    2
    14    20    17    1
    15    41    43    1
    16    33    30    1
    17    18    17   ar
    18    18    40   ar
    19    17    16   ar
    20    29    30   ar
    21    29    42   ar
    22    30    31   ar
    23    40    43    1
    24    40    15   ar
    25    43    42    1
    26    43    39    1
    27    16    15   ar
    28    16    19    1
    29    42    32   ar
    30    15     2    1
    31    31    32   ar
    32    31    34    1
    33    35    34    1
    34    35    36    1
    35    32     1    2
    36    38    36   ar
    37    39     8    1
    38    39     5    2
    39    36    37   ar
    40     2     8    2
    41     1     5    1
    42     8     7    1
    43     5     6    1
    44     7     6    2
    45     7     9    1
    46     6    10    1
    47    10    11    1
    48    11    12    1
    49    13    12   ar
    50    12    14   ar
