@<TRIPOS>MOLECULE
3uba_HC4_A_1.pdb
 12 12 0 0 0
SMALL
GASTEIGER

@<TRIPOS>ATOM
      1  C1         0.3780    5.4090   29.8370 C.2   700  HC4700      0.3652
      2  O1        -0.3950    5.9750   29.0360 O.co2 700  HC4700     -0.2456
      3  O2         0.1520    5.3390   31.0610 O.co2 700  HC4700     -0.2456
      4  C2         1.5820    4.7910   29.2770 C.3   700  HC4700      0.1187
      5  C3         2.9750    4.7510   29.8480 C.3   700  HC4700      0.0382
      6  C1'        3.9370    4.0280   28.9870 C.ar  700  HC4700     -0.0214
      7  C2'        4.3580    2.7370   29.2700 C.ar  700  HC4700     -0.0010
      8  C3'        5.2380    2.1140   28.3860 C.ar  700  HC4700      0.0417
      9  C4'        5.6920    2.7610   27.2340 C.ar  700  HC4700      0.1957
     10  C5'        5.2590    4.0370   26.9500 C.ar  700  HC4700      0.0417
     11  C6'        4.3800    4.6470   27.8270 C.ar  700  HC4700     -0.0010
     12  O4'        6.5620    2.1440   26.3810 O.3   700  HC4700     -0.2866
@<TRIPOS>BOND
     1    12     9    1
     2    10     9   ar
     3    10    11   ar
     4     9     8   ar
     5    11     6   ar
     6     8     7   ar
     7     6     7   ar
     8     6     5    1
     9     2     1   ar
    10     4     1    1
    11     4     5    1
    12     1     3   ar
