@<TRIPOS>MOLECULE
3ubb_3UB_A_1.pdb
 19 19 0 0 0
SMALL
GASTEIGER

@<TRIPOS>ATOM
      1  O2P        1.6910   48.6920   33.5170 O.3   301  3UB301     -0.1756
      2  P          0.2590   48.1200   33.2900 P.3   301  3UB301      0.2406
      3  C1         0.5260   45.5990   32.6560 C.3   301  3UB301      0.1215
      4  C2        -0.6520   44.8320   33.1210 C.3   301  3UB301      0.0325
      5  C3         1.3480   44.9090   31.5910 C.3   301  3UB301      0.0325
      6  C4        -0.9290   49.4460   32.8000 C.3   301  3UB301      0.1702
      7  C5        -1.8700   48.9620   31.6600 C.3   301  3UB301      0.0334
      8  C6        -0.4540   51.8070   33.3320 C.2   301  3UB301      0.4219
      9  C7         0.0190   54.1480   33.7460 C.3   301  3UB301      0.2368
     10  NC        -0.3410   50.6820   32.3450 N.am  301  3UB301     -0.1612
     11  O1C       -0.9670   51.7180   34.4600 O.2   301  3UB301     -0.2245
     12  O1P        0.2040   46.8880   32.2740 O.3   301  3UB301     -0.3188
     13  O2C        0.0570   52.9870   32.9280 O.3   301  3UB301     -0.4285
     14  C71        0.0980   55.3690   32.8940 C.ar  301  3UB301      0.0213
     15  C72        0.6510   55.2580   31.6230 C.ar  301  3UB301     -0.0007
     16  C73        0.7430   56.3730   30.8180 C.ar  301  3UB301     -0.0002
     17  C74        0.2620   57.6200   31.2920 C.ar  301  3UB301     -0.0000
     18  C75       -0.2830   57.7280   32.5560 C.ar  301  3UB301     -0.0002
     19  C76       -0.3770   56.6090   33.3660 C.ar  301  3UB301     -0.0007
@<TRIPOS>BOND
     1    16    17   ar
     2    16    15   ar
     3    17    18   ar
     4     5     3    1
     5    15    14   ar
     6     7     6    1
     7    12     3    1
     8    12     2    1
     9    10     6    1
    10    10     8   am
    11    18    19   ar
    12     3     4    1
    13     6     2    1
    14    14    19   ar
    15    14     9    1
    16    13     8    1
    17    13     9    1
    18     2     1    1
    19     8    11    2
