@<TRIPOS>MOLECULE
3ubc_HEM_A_1.pdb
 43 50 0 0 0
SMALL
GASTEIGER

@<TRIPOS>ATOM
      1  CHA       11.3170   19.8340   22.2950 C.2   201  HEM201      0.0000
      2  CHB       10.6210   23.9110   24.6870 C.2   201  HEM201      0.0000
      3  CHC       15.2420   23.8630   26.0370 C.2   201  HEM201      0.0000
      4  CHD       16.1220   20.5370   22.6750 C.2   201  HEM201      0.0000
      5  C1A       10.7200   20.9120   22.9100 C.2   201  HEM201      0.0000
      6  C2A        9.2880   21.1020   22.9590 C.2   201  HEM201      0.0000
      7  C3A        9.1410   22.2430   23.6020 C.2   201  HEM201      0.0000
      8  C4A       10.4040   22.7390   23.9700 C.2   201  HEM201      0.0000
      9  CMA        7.8210   22.9430   23.9130 C.3   201  HEM201      0.0000
     10  CAA        8.1900   20.2460   22.3240 C.3   201  HEM201      0.0000
     11  CBA        8.0800   18.8810   22.9910 C.3   201  HEM201      0.0000
     12  CGA        7.6810   18.8590   24.4100 C.2   201  HEM201      0.0000
     13  O1A        8.2340   18.0100   25.1900 O.co2 201  HEM201      0.0000
     14  O2A        6.7560   19.6520   24.7480 O.co2 201  HEM201      0.0000
     15  C1B       11.7840   24.2810   25.3040 C.ar  201  HEM201      0.0000
     16  C2B       12.0090   25.3390   26.2370 C.ar  201  HEM201      0.0000
     17  C3B       13.2920   25.3130   26.6500 C.ar  201  HEM201      0.0000
     18  C4B       13.9400   24.1910   25.9250 C.ar  201  HEM201      0.0000
     19  CMB       10.9060   26.3740   26.7190 C.3   201  HEM201      0.0000
     20  CAB       14.1420   26.1900   27.5690 C.2   201  HEM201      0.0000
     21  CBB       13.5670   27.0550   28.4540 C.2   201  HEM201      0.0000
     22  C1C       15.8640   22.8840   25.2020 C.2   201  HEM201      0.0000
     23  C2C       17.2940   22.6920   25.2040 C.2   201  HEM201      0.0000
     24  C3C       17.5710   21.7970   24.2290 C.2   201  HEM201      0.0000
     25  C4C       16.2930   21.5070   23.6270 C.2   201  HEM201      0.0000
     26  CMC       18.2310   23.3400   26.1870 C.3   201  HEM201      0.0000
     27  CAC       18.9460   21.2560   23.9190 C.2   201  HEM201      0.0000
     28  CBC       19.2690   21.1390   22.5970 C.2   201  HEM201      0.0000
     29  C1D       14.9200   20.0240   22.3290 C.ar  201  HEM201      0.0000
     30  C2D       14.7340   18.8440   21.5110 C.ar  201  HEM201      0.0000
     31  C3D       13.3010   18.6200   21.3500 C.ar  201  HEM201      0.0000
     32  C4D       12.6680   19.7030   22.1230 C.ar  201  HEM201      0.0000
     33  CMD       15.7730   17.9110   20.8160 C.3   201  HEM201      0.0000
     34  CAD       12.5970   17.4970   20.5770 C.3   201  HEM201      0.0000
     35  CBD       12.6170   17.6980   19.0590 C.3   201  HEM201      0.0000
     36  CGD       11.9530   16.4770   18.4340 C.2   201  HEM201      0.0000
     37  O1D       10.7210   16.2970   18.6150 O.co2 201  HEM201      0.0000
     38  O2D       12.6330   15.6300   17.7610 O.co2 201  HEM201      0.0000
     39  NA        11.4430   21.8840   23.5540 N.2   201  HEM201      0.0000
     40  NB        12.9900   23.6540   25.1170 N.ar  201  HEM201      0.0000
     41  NC        15.1810   22.2120   24.1930 N.2   201  HEM201      0.0000
     42  ND        13.6680   20.4370   22.6890 N.ar  201  HEM201      0.0000
     43 FE         13.3150   22.0570   23.8580 Fe    201  HEM201      0.0000
@<TRIPOS>BOND
     1    38    36   ar
     2    36    37   ar
     3    36    35    1
     4    35    34    1
     5    34    31    1
     6    33    30    1
     7    31    30   ar
     8    31    32   ar
     9    30    29   ar
    10    32     1    2
    11    32    42   ar
    12     1     5    1
    13    10     6    1
    14    10    11    1
    15    29     4    2
    16    29    42   ar
    17    28    27    2
    18     4    25    1
    19    42    43    1
    20     5     6    1
    21     5    39    2
    22     6     7    2
    23    11    12    1
    24    39    43    1
    25    39     8    1
    26     7     9    1
    27     7     8    1
    28    25    41    2
    29    25    24    1
    30    43    41    1
    31    43    40    1
    32    27    24    1
    33     8     2    2
    34    41    22    1
    35    24    23    2
    36    12    14   ar
    37    12    13   ar
    38     2    15    1
    39    40    15   ar
    40    40    18   ar
    41    22    23    1
    42    22     3    2
    43    23    26    1
    44    15    16   ar
    45    18     3    1
    46    18    17   ar
    47    16    17   ar
    48    16    19    1
    49    17    20    1
    50    20    21    2
