@<TRIPOS>MOLECULE
3ube_SIA_A_1.pdb
 20 20 0 0 0
SMALL
GASTEIGER

@<TRIPOS>ATOM
      1  C1        19.3850   -3.7420  -15.2170 C.2   330  SIA330      0.3914
      2  C2        19.9270   -3.2620  -16.5480 C.3   330  SIA330      0.2203
      3  C3        20.1940   -1.7630  -16.5020 C.3   330  SIA330      0.0760
      4  C4        21.3810   -1.4080  -15.6300 C.3   330  SIA330      0.1773
      5  C5        22.5930   -2.2340  -16.0210 C.3   330  SIA330      0.1552
      6  C6        22.2510   -3.7180  -16.0510 C.3   330  SIA330      0.1710
      7  C7        23.4340   -4.5550  -16.5290 C.3   330  SIA330      0.2134
      8  C8        23.0920   -6.0410  -16.4930 C.3   330  SIA330      0.2173
      9  C9        24.3370   -6.8940  -16.7080 C.3   330  SIA330      0.2175
     10  C10       24.8800   -1.6880  -15.3690 C.2   330  SIA330      0.2420
     11  C11       25.8070   -1.4920  -14.2030 C.3   330  SIA330      0.0964
     12  N5        23.6320   -2.0040  -15.0420 N.am  330  SIA330     -0.2020
     13  O1A       18.5220   -3.0520  -14.6360 O.co2 330  SIA330     -0.2430
     14  O1B       19.8070   -4.8170  -14.7380 O.co2 330  SIA330     -0.2430
     15  O4        21.6590   -0.0110  -15.7830 O.3   330  SIA330     -0.2211
     16  O6        21.1130   -4.0000  -16.8670 O.3   330  SIA330     -0.3429
     17  O7        23.7710   -4.1890  -17.8730 O.3   330  SIA330     -0.2176
     18  O8        22.4700   -6.3690  -15.2430 O.3   330  SIA330     -0.2175
     19  O9        23.9690   -8.2780  -16.6910 O.3   330  SIA330     -0.2175
     20  O10       25.2450   -1.5620  -16.5270 O.2   330  SIA330     -0.2733
@<TRIPOS>BOND
     1    17     7    1
     2    16     2    1
     3    16     6    1
     4     9    19    1
     5     9     8    1
     6     2     3    1
     7     2     1    1
     8     7     8    1
     9     7     6    1
    10    20    10    2
    11     3     4    1
    12     8    18    1
    13     6     5    1
    14     5     4    1
    15     5    12    1
    16    15     4    1
    17    10    12   am
    18    10    11    1
    19     1    14   ar
    20     1    13   ar
