@<TRIPOS>MOLECULE
3ube_GAL_A_1.pdb
 11 11 0 0 0
SMALL
GASTEIGER

@<TRIPOS>ATOM
      1  C1        19.3910   -5.3000  -21.1520 C.3   333  GAL333      0.1777
      2  C2        18.7270   -6.6460  -21.4170 C.3   333  GAL333      0.2141
      3  C3        17.3470   -6.6990  -20.7680 C.3   333  GAL333      0.2173
      4  C4        17.4420   -6.3300  -19.2920 C.3   333  GAL333      0.2142
      5  C5        18.2520   -5.0530  -19.1060 C.3   333  GAL333      0.1810
      6  C6        18.4980   -4.7750  -17.6300 C.3   333  GAL333      0.2141
      7  O2        18.6300   -6.8750  -22.8060 O.3   333  GAL333     -0.2176
      8  O3        16.8110   -7.9970  -20.8890 O.3   333  GAL333     -0.2175
      9  O4        18.0430   -7.3810  -18.5690 O.3   333  GAL333     -0.2176
     10  O5        19.5070   -5.1510  -19.7540 O.3   333  GAL333     -0.3481
     11  O6        18.9010   -3.4320  -17.5350 O.3   333  GAL333     -0.2176
@<TRIPOS>BOND
     1     7     2    1
     2     2     1    1
     3     2     3    1
     4     1    10    1
     5     8     3    1
     6     3     4    1
     7    10     5    1
     8     4     5    1
     9     4     9    1
    10     5     6    1
    11     6    11    1
