@<TRIPOS>MOLECULE
3ube_NAG_A_1.pdb
 14 14 0 0 0
SMALL
GASTEIGER

@<TRIPOS>ATOM
      1  C1        11.0340   -7.6320   -1.8690 C.3   335  NAG335      0.1665
      2  C2        11.5800   -7.3780   -3.2740 C.3   335  NAG335      0.1576
      3  C3        10.4390   -7.1320   -4.2530 C.3   335  NAG335      0.2069
      4  C4         9.4680   -8.3020   -4.2060 C.3   335  NAG335      0.2134
      5  C5         9.0200   -8.5780   -2.7740 C.3   335  NAG335      0.1809
      6  C6         8.1800   -9.8510   -2.7430 C.3   335  NAG335      0.2141
      7  C7        13.8270   -6.5010   -3.4010 C.2   335  NAG335      0.2420
      8  C8        14.7140   -5.3240   -3.6710 C.3   335  NAG335      0.0964
      9  N2        12.5190   -6.2700   -3.2890 N.am  335  NAG335     -0.2019
     10  O3        10.9530   -7.0060   -5.5570 O.3   335  NAG335     -0.2184
     11  O4         8.3450   -8.0530   -5.0320 O.3   335  NAG335     -0.2176
     12  O5        10.1260   -8.7210   -1.8960 O.3   335  NAG335     -0.3489
     13  O6         7.6680  -10.0510   -1.4450 O.3   335  NAG335     -0.2176
     14  O7        14.3120   -7.6230   -3.2850 O.2   335  NAG335     -0.2733
@<TRIPOS>BOND
     1    10     3    1
     2    11     4    1
     3     3     4    1
     4     3     2    1
     5     4     5    1
     6     8     7    1
     7     7     9   am
     8     7    14    2
     9     9     2    1
    10     2     1    1
    11     5     6    1
    12     5    12    1
    13     6    13    1
    14    12     1    1
