@<TRIPOS>MOLECULE
3ubj_SIA_C_1.pdb
 20 20 0 0 0
SMALL
GASTEIGER

@<TRIPOS>ATOM
      1  C1         1.7570   62.6210  -59.0230 C.2   330  SIA330      0.3914
      2  C2         1.8710   63.2010  -60.4080 C.3   330  SIA330      0.2203
      3  C3         2.8690   64.3470  -60.3580 C.3   330  SIA330      0.0760
      4  C4         4.2110   63.8290  -59.8540 C.3   330  SIA330      0.1773
      5  C5         4.7210   62.6910  -60.7240 C.3   330  SIA330      0.1552
      6  C6         3.6580   61.6330  -61.0350 C.3   330  SIA330      0.1710
      7  C7         4.0940   60.7890  -62.2340 C.3   330  SIA330      0.2134
      8  C8         2.9540   59.9200  -62.7590 C.3   330  SIA330      0.2173
      9  C9         3.4660   58.9110  -63.7800 C.3   330  SIA330      0.2175
     10  C10        6.9140   61.6340  -60.6920 C.2   330  SIA330      0.2420
     11  C11        7.9610   60.9790  -59.8400 C.3   330  SIA330      0.0964
     12  N5         5.8320   62.0540  -60.0430 N.am  330  SIA330     -0.2020
     13  O1A        1.6780   61.3810  -58.9150 O.co2 330  SIA330     -0.2430
     14  O1B        1.7280   63.3950  -58.0410 O.co2 330  SIA330     -0.2430
     15  O4         5.1940   64.8740  -59.8350 O.3   330  SIA330     -0.2211
     16  O6         2.3360   62.1540  -61.2670 O.3   330  SIA330     -0.3429
     17  O7         4.5870   61.6360  -63.2810 O.3   330  SIA330     -0.2176
     18  O8         2.3200   59.2330  -61.6720 O.3   330  SIA330     -0.2175
     19  O9         2.4330   57.9630  -64.0690 O.3   330  SIA330     -0.2175
     20  O10        7.0440   61.7760  -61.8970 O.2   330  SIA330     -0.2733
@<TRIPOS>BOND
     1    19     9    1
     2     9     8    1
     3    17     7    1
     4     8     7    1
     5     8    18    1
     6     7     6    1
     7    20    10    2
     8    16     6    1
     9    16     2    1
    10     6     5    1
    11     5    12    1
    12     5     4    1
    13    10    12   am
    14    10    11    1
    15     2     3    1
    16     2     1    1
    17     3     4    1
    18     4    15    1
    19     1    13   ar
    20     1    14   ar
