@<TRIPOS>MOLECULE
3ubj_NAG_A_1.pdb
 14 14 0 0 0
SMALL
GASTEIGER

@<TRIPOS>ATOM
      1  C1       -24.9230   21.8230  -77.3380 C.3   330  NAG330      0.1665
      2  C2       -24.0890   22.3000  -78.5280 C.3   330  NAG330      0.1576
      3  C3       -24.3560   21.4870  -79.7950 C.3   330  NAG330      0.2069
      4  C4       -24.4740   19.9860  -79.5350 C.3   330  NAG330      0.2134
      5  C5       -25.2090   19.6820  -78.2330 C.3   330  NAG330      0.1809
      6  C6       -25.1280   18.1980  -77.8910 C.3   330  NAG330      0.2141
      7  C7       -23.4680   24.6380  -78.3940 C.2   330  NAG330      0.2420
      8  C8       -23.4530   25.9250  -79.1650 C.3   330  NAG330      0.0964
      9  N2       -24.3310   23.7060  -78.7920 N.am  330  NAG330     -0.2019
     10  O3       -23.3160   21.7310  -80.7170 O.3   330  NAG330     -0.2184
     11  O4       -25.2210   19.4020  -80.5800 O.3   330  NAG330     -0.2176
     12  O5       -24.6810   20.4420  -77.1680 O.3   330  NAG330     -0.3489
     13  O6       -25.8820   17.9430  -76.7260 O.3   330  NAG330     -0.2176
     14  O7       -22.7120   24.4790  -77.4360 O.2   330  NAG330     -0.2733
@<TRIPOS>BOND
     1    10     3    1
     2    11     4    1
     3     3     4    1
     4     3     2    1
     5     4     5    1
     6     8     7    1
     7     9     2    1
     8     9     7   am
     9     2     1    1
    10     7    14    2
    11     5     6    1
    12     5    12    1
    13     6    13    1
    14     1    12    1
