@<TRIPOS>MOLECULE
3ubl_GSH_A_1.pdb
 20 19 0 0 0
SMALL
GASTEIGER

@<TRIPOS>ATOM
      1  N1        57.4350   25.0400   23.3690 N.3   241  GSH241     -0.1208
      2  CA1       57.8840   26.2460   22.7310 C.3   241  GSH241      0.1948
      3  C1        56.7810   26.7610   21.8760 C.2   241  GSH241      0.3819
      4  O11       55.8550   26.0450   21.5610 O.co2 241  GSH241     -0.2441
      5  O12       56.7820   27.9030   21.4670 O.co2 241  GSH241     -0.2441
      6  CB1       59.0550   25.8860   21.8520 C.3   241  GSH241      0.0402
      7  CG1       59.6940   27.1440   21.3260 C.3   241  GSH241      0.0889
      8  CD1       61.1090   26.8680   20.9160 C.2   241  GSH241      0.2418
      9  OE1       61.7990   25.7590   21.3950 O.2   241  GSH241     -0.2733
     10  N2        61.6440   27.7280   20.0850 N.am  241  GSH241     -0.1968
     11  CA2       63.0140   27.6330   19.7170 C.3   241  GSH241      0.1843
     12  C2        63.8250   28.5640   20.5510 C.2   241  GSH241      0.2627
     13  O2        63.3930   29.8540   20.7170 O.2   241  GSH241     -0.2714
     14  CB2       63.1130   27.9390   18.2370 C.3   241  GSH241      0.0997
     15  SG2       64.7380   28.6230   17.8920 S.3   241  GSH241     -0.0797
     16  N3        64.9160   28.1160   21.1390 N.am  241  GSH241     -0.1917
     17  CA3       65.7670   28.9540   21.9360 C.3   241  GSH241      0.2285
     18  C3        66.0120   28.3500   23.2840 C.2   241  GSH241      0.3865
     19  O31       66.6840   28.9390   24.1440 O.co2 241  GSH241     -0.2437
     20  O32       65.5430   27.2420   23.5510 O.co2 241  GSH241     -0.2437
@<TRIPOS>BOND
     1    15    14    1
     2    14    11    1
     3    11    10    1
     4    11    12    1
     5    10     8   am
     6    12    13    2
     7    12    16   am
     8     8     7    1
     9     8     9    2
    10    16    17    1
    11     7     6    1
    12     5     3   ar
    13     4     3   ar
    14     6     2    1
    15     3     2    1
    16    17    18    1
    17     2     1    1
    18    18    20   ar
    19    18    19   ar
