@<TRIPOS>MOLECULE
3ubm_COA_A_1.pdb
 48 50 0 0 0
SMALL
GASTEIGER

@<TRIPOS>ATOM
      1  N1A        1.5400   20.4160   83.0800 N.2   2001  COA2001     0.0021
      2  C2A        1.2160   19.9160   84.2760 C.3   2001  COA2001     0.5254
      3  N3A        1.6460   18.7090   84.6750 N.2   2001  COA2001    -0.0055
      4  C4A        2.4270   17.9490   83.8660 C.2   2001  COA2001     0.3518
      5  C5A        2.7900   18.4330   82.6110 C.2   2001  COA2001     0.2526
      6  C6A        2.3140   19.6970   82.2330 C.2   2001  COA2001     0.4393
      7  N6A        2.6510   20.2300   80.9330 N.pl3 2001  COA2001     0.2180
      8  N7A        3.5600   17.4860   82.0190 N.2   2001  COA2001    -0.2095
      9  C8A        3.6850   16.4500   82.8660 C.3   2001  COA2001     0.3377
     10  N9A        2.9910   16.7260   83.9850 N.pl3 2001  COA2001    -0.1439
     11  C1B        2.8220   15.9320   85.1640 C.3   2001  COA2001     0.3185
     12  C2B        2.7560   14.4610   84.9160 C.3   2001  COA2001     0.2543
     13  O2B        1.4930   14.1140   84.4400 O.3   2001  COA2001    -0.2131
     14  C3B        2.9900   13.9400   86.2210 C.3   2001  COA2001     0.1928
     15  O3B        1.7380   13.8950   86.8980 O.3   2001  COA2001    -0.2673
     16  P3B        1.4000   12.9370   88.1610 P.3   2001  COA2001     0.5327
     17  O7A       -0.0490   12.5570   88.0790 O.2   2001  COA2001    -0.2224
     18  O8A        1.6710   13.6960   89.4460 O.3   2001  COA2001    -0.1145
     19  O9A        2.2050   11.6510   88.1020 O.3   2001  COA2001    -0.1145
     20  C4B        3.8390   14.9520   86.8940 C.3   2001  COA2001     0.1795
     21  O4B        3.8920   16.0640   86.0290 O.3   2001  COA2001    -0.3136
     22  C5B        5.2270   14.4900   87.1570 C.3   2001  COA2001     0.1812
     23  O5B        5.8020   13.6420   86.1560 O.3   2001  COA2001    -0.3112
     24  P1A        7.3420   13.2060   86.1060 P.3   2001  COA2001     0.2189
     25  O1A        8.2150   14.3520   85.5960 O.3   2001  COA2001    -0.4371
     26  O2A        7.4570   12.0400   85.1520 O.2   2001  COA2001    -0.5170
     27  O3A        7.6870   12.7670   87.5870 O.3   2001  COA2001    -0.2703
     28  P2A        9.1260   12.6790   88.2180 P.3   2001  COA2001     0.2188
     29  O4A        8.9280   12.4140   89.6950 O.3   2001  COA2001    -0.4371
     30  O5A        9.8760   13.9680   88.0210 O.2   2001  COA2001    -0.5170
     31  O6A        9.9520   11.4740   87.6480 O.3   2001  COA2001    -0.3138
     32  CBP       11.1940   10.3720   85.7890 C.3   2001  COA2001     0.0645
     33  CCP       10.7910   11.6550   86.5770 C.3   2001  COA2001     0.1519
     34  CDP       11.8490    9.3290   86.7250 C.3   2001  COA2001     0.0056
     35  CEP       12.1640   10.7260   84.6820 C.3   2001  COA2001     0.0056
     36  CAP        9.8880    9.8050   85.2230 C.3   2001  COA2001     0.2312
     37  OAP        9.3210   10.7600   84.3650 O.3   2001  COA2001    -0.2131
     38  C9P        9.9780    8.4490   84.5230 C.2   2001  COA2001     0.2719
     39  O9P       10.0300    7.4040   85.1940 O.2   2001  COA2001    -0.2706
     40  N8P        9.6550    8.3450   83.1150 N.am  2001  COA2001    -0.2028
     41  C7P        9.6340    7.0190   82.5080 C.3   2001  COA2001     0.1248
     42  C6P       10.9470    6.4660   81.9530 C.3   2001  COA2001     0.1102
     43  C5P       11.9660    7.5320   81.5330 C.2   2001  COA2001     0.2432
     44  O5P       12.1540    7.8180   80.3690 O.2   2001  COA2001    -0.2733
     45  N4P       12.8480    8.0960   82.5160 N.am  2001  COA2001    -0.2044
     46  C3P       13.8510    9.0940   82.0860 C.3   2001  COA2001     0.1276
     47  C2P       15.1740    9.0860   82.8400 C.3   2001  COA2001     0.0920
     48  S1P       16.3180    7.7930   82.3800 S.3   2001  COA2001    -0.0802
@<TRIPOS>BOND
     1    44    43    2
     2     7     6    1
     3    43    42    1
     4    43    45   am
     5    42    41    1
     6     8     5    2
     7     8     9    1
     8    46    45    1
     9    46    47    1
    10     6     5    1
    11     6     1    2
    12    48    47    1
    13    41    40    1
    14     5     4    1
    15     9    10    1
    16     1     2    1
    17    40    38   am
    18     4    10    1
    19     4     3    2
    20    10    11    1
    21     2     3    1
    22    37    36    1
    23    13    12    1
    24    38    39    2
    25    38    36    1
    26    35    32    1
    27    12    11    1
    28    12    14    1
    29    26    24    2
    30    11    21    1
    31    36    32    1
    32    25    24    1
    33    32    33    1
    34    32    34    1
    35    21    20    1
    36    24    23    1
    37    24    27    1
    38    23    22    1
    39    14    20    1
    40    14    15    1
    41    33    31    1
    42    20    22    1
    43    15    16    1
    44    27    28    1
    45    31    28    1
    46    30    28    2
    47    17    16    2
    48    19    16    1
    49    16    18    1
    50    28    29    1
