@<TRIPOS>MOLECULE
3ubn_NAG_A_1.pdb
 14 14 0 0 0
SMALL
GASTEIGER

@<TRIPOS>ATOM
      1  C1        10.7580   -8.3380   -2.0560 C.3   335  NAG335      0.1665
      2  C2        11.4030   -8.2520   -3.4360 C.3   335  NAG335      0.1576
      3  C3        10.3420   -8.0590   -4.5090 C.3   335  NAG335      0.2069
      4  C4         9.3060   -9.1670   -4.3960 C.3   335  NAG335      0.2134
      5  C5         8.7630   -9.2460   -2.9730 C.3   335  NAG335      0.1809
      6  C6         7.8040  -10.4240   -2.8350 C.3   335  NAG335      0.2141
      7  C7        13.6690   -7.4310   -3.6430 C.2   335  NAG335      0.2420
      8  C8        14.5380   -6.2750   -4.0320 C.3   335  NAG335      0.0964
      9  N2        12.3730   -7.1740   -3.4850 N.am  335  NAG335     -0.2019
     10  O3        10.9390   -8.0910   -5.7850 O.3   335  NAG335     -0.2184
     11  O4         8.2480   -8.9200   -5.3000 O.3   335  NAG335     -0.2176
     12  O5         9.8100   -9.3860   -2.0340 O.3   335  NAG335     -0.3489
     13  O6         7.3230  -10.4860   -1.5110 O.3   335  NAG335     -0.2176
     14  O7        14.1510   -8.5510   -3.4820 O.2   335  NAG335     -0.2733
@<TRIPOS>BOND
     1    10     3    1
     2    11     4    1
     3     3     4    1
     4     3     2    1
     5     4     5    1
     6     8     7    1
     7     7     9   am
     8     7    14    2
     9     9     2    1
    10     2     1    1
    11     5     6    1
    12     5    12    1
    13     6    13    1
    14     1    12    1
