@<TRIPOS>MOLECULE
3ubn_GAL_A_1.pdb
 11 11 0 0 0
SMALL
GASTEIGER

@<TRIPOS>ATOM
      1  C1        18.6940   -6.3540  -21.2430 C.3   331  GAL331      0.1777
      2  C2        17.6660   -7.4500  -21.5030 C.3   331  GAL331      0.2141
      3  C3        16.4010   -7.2380  -20.6730 C.3   331  GAL331      0.2173
      4  C4        16.7370   -6.8970  -19.2250 C.3   331  GAL331      0.2142
      5  C5        17.8000   -5.8090  -19.1800 C.3   331  GAL331      0.1810
      6  C6        18.1860   -5.4270  -17.7590 C.3   331  GAL331      0.2141
      7  O2        17.3390   -7.4550  -22.8750 O.3   331  GAL331     -0.2176
      8  O3        15.6130   -8.4080  -20.7070 O.3   331  GAL331     -0.2175
      9  O4        17.2160   -8.0460  -18.5670 O.3   331  GAL331     -0.2176
     10  O5        18.9440   -6.2700  -19.8600 O.3   331  GAL331     -0.3481
     11  O6        18.7490   -4.1370  -17.8160 O.3   331  GAL331     -0.2176
@<TRIPOS>BOND
     1     7     2    1
     2     2     1    1
     3     2     3    1
     4     1    10    1
     5     8     3    1
     6     3     4    1
     7    10     5    1
     8     4     5    1
     9     4     9    1
    10     5     6    1
    11    11     6    1
