@<TRIPOS>MOLECULE
3ubn_SIA_A_1.pdb
 20 20 0 0 0
SMALL
GASTEIGER

@<TRIPOS>ATOM
      1  C1        19.1570   -4.3700  -15.4350 C.2   330  SIA330      0.3914
      2  C2        19.7130   -3.9250  -16.7670 C.3   330  SIA330      0.2203
      3  C3        19.9990   -2.4280  -16.7210 C.3   330  SIA330      0.0760
      4  C4        21.1950   -2.0950  -15.8510 C.3   330  SIA330      0.1773
      5  C5        22.3910   -2.9480  -16.2260 C.3   330  SIA330      0.1552
      6  C6        22.0460   -4.4290  -16.2890 C.3   330  SIA330      0.1710
      7  C7        23.2080   -5.2070  -16.8920 C.3   330  SIA330      0.2134
      8  C8        22.9110   -6.7010  -16.8930 C.3   330  SIA330      0.2173
      9  C9        24.1300   -7.5160  -17.3090 C.3   330  SIA330      0.2175
     10  C10       24.6910   -2.5320  -15.5230 C.2   330  SIA330      0.2420
     11  C11       25.5810   -2.3320  -14.3320 C.3   330  SIA330      0.0964
     12  N5        23.4140   -2.7360  -15.2260 N.am  330  SIA330     -0.2020
     13  O1A       18.5980   -3.5230  -14.7070 O.co2 330  SIA330     -0.2430
     14  O1B       19.2740   -5.5680  -15.1010 O.co2 330  SIA330     -0.2430
     15  O4        21.5360   -0.7170  -16.0330 O.3   330  SIA330     -0.2211
     16  O6        20.8760   -4.7050  -17.0640 O.3   330  SIA330     -0.3429
     17  O7        23.4320   -4.7490  -18.2320 O.3   330  SIA330     -0.2176
     18  O8        22.4940   -7.1070  -15.5860 O.3   330  SIA330     -0.2175
     19  O9        23.8380   -8.9070  -17.1230 O.3   330  SIA330     -0.2175
     20  O10       25.1080   -2.5080  -16.6710 O.2   330  SIA330     -0.2733
@<TRIPOS>BOND
     1    17     7    1
     2     9    19    1
     3     9     8    1
     4    16     2    1
     5    16     6    1
     6     8     7    1
     7     8    18    1
     8     7     6    1
     9     2     3    1
    10     2     1    1
    11     3     4    1
    12    20    10    2
    13     6     5    1
    14     5     4    1
    15     5    12    1
    16    15     4    1
    17    10    12   am
    18    10    11    1
    19     1    14   ar
    20     1    13   ar
