@<TRIPOS>MOLECULE
3ubo_ADN_A_1.pdb
 19 21 0 0 0
SMALL
GASTEIGER

@<TRIPOS>ATOM
      1  O5'       68.6960   -9.6560    4.8230 O.3   353  ADN353     -0.2176
      2  C5'       70.1510   -9.9070    4.7920 C.3   353  ADN353      0.2143
      3  C4'       70.7570  -10.3530    6.1670 C.3   353  ADN353      0.1851
      4  O4'       69.7810  -10.8750    7.0760 O.3   353  ADN353     -0.3134
      5  C3'       72.0340  -11.3150    6.4070 C.3   353  ADN353      0.2186
      6  O3'       73.3750  -10.9400    6.2040 O.3   353  ADN353     -0.2174
      7  C2'       71.7620  -11.8840    7.8400 C.3   353  ADN353      0.2570
      8  O2'       72.8550  -11.7860    8.7780 O.3   353  ADN353     -0.2130
      9  C1'       70.5260  -11.1630    8.2060 C.3   353  ADN353      0.3186
     10  N9        69.6620  -11.9810    9.1100 N.pl3 353  ADN353     -0.1439
     11  C8        69.1180  -13.2910    8.9750 C.3   353  ADN353      0.3377
     12  N7        68.2360  -13.5580   10.0560 N.2   353  ADN353     -0.2095
     13  C5        68.2320  -12.3980   10.8520 C.2   353  ADN353      0.2526
     14  C6        67.5700  -12.0730   12.0680 C.2   353  ADN353      0.4393
     15  N6        66.6670  -12.9900   12.7100 N.pl3 353  ADN353      0.2180
     16  N1        67.7950  -10.7640   12.6300 N.2   353  ADN353      0.0021
     17  C2        68.6650   -9.8320   11.9760 C.3   353  ADN353      0.5254
     18  N3        69.3430  -10.1150   10.7650 N.2   353  ADN353     -0.0055
     19  C4        69.1190  -11.4120   10.2450 C.2   353  ADN353      0.3518
@<TRIPOS>BOND
     1     2     1    1
     2     2     3    1
     3     3     5    1
     4     3     4    1
     5     6     5    1
     6     5     7    1
     7     4     9    1
     8     7     9    1
     9     7     8    1
    10     9    10    1
    11    11    10    1
    12    11    12    1
    13    10    19    1
    14    12    13    2
    15    19    18    2
    16    19    13    1
    17    18    17    1
    18    13    14    1
    19    17    16    1
    20    14    16    2
    21    14    15    1
