@<TRIPOS>MOLECULE
3ubo_ADP_A_1.pdb
 27 29 0 0 0
SMALL
GASTEIGER

@<TRIPOS>ATOM
      1  PB        64.4820   -7.9260   -0.3060 P.3   354  ADP354      0.5373
      2  O1B       63.6620   -9.3070    0.1120 O.3   354  ADP354     -0.1143
      3  O2B       64.4240   -6.6540    0.7860 O.3   354  ADP354     -0.1143
      4  O3B       65.9110   -8.2250   -0.5880 O.2   354  ADP354     -0.2221
      5  PA        63.6770   -6.7640   -3.0590 P.3   354  ADP354      0.2231
      6  O1A       63.0270   -7.8780   -4.0840 O.2   354  ADP354     -0.5169
      7  O2A       62.8150   -5.5830   -3.0080 O.3   354  ADP354     -0.4370
      8  O3A       63.5300   -7.7020   -1.6630 O.3   354  ADP354     -0.2261
      9  O5'       65.2200   -6.2230   -3.4450 O.3   354  ADP354     -0.3111
     10  C5'       65.8300   -5.2070   -2.6580 C.3   354  ADP354      0.1813
     11  C4'       66.6660   -4.2040   -3.5190 C.3   354  ADP354      0.1821
     12  O4'       67.9320   -4.7060   -4.1620 O.3   354  ADP354     -0.3135
     13  C3'       65.9360   -3.5210   -4.7940 C.3   354  ADP354      0.2184
     14  O3'       64.9200   -2.5550   -4.5960 O.3   354  ADP354     -0.2174
     15  C2'       67.0370   -3.3000   -5.8240 C.3   354  ADP354      0.2570
     16  O2'       67.7440   -2.0530   -5.8940 O.3   354  ADP354     -0.2130
     17  C1'       67.8330   -4.5520   -5.5880 C.3   354  ADP354      0.3186
     18  N9        67.3190   -5.7520   -6.3180 N.pl3 354  ADP354     -0.1439
     19  C8        66.5740   -6.8040   -5.8320 C.3   354  ADP354      0.3377
     20  N7        66.3040   -7.7510   -6.9070 N.2   354  ADP354     -0.2095
     21  C5        66.8950   -7.2300   -8.0940 C.2   354  ADP354      0.2526
     22  C6        66.9740   -7.7480   -9.4740 C.2   354  ADP354      0.4393
     23  N6        66.3820   -9.0590   -9.8030 N.pl3 354  ADP354      0.2180
     24  N1        67.6490   -7.0370  -10.4170 N.2   354  ADP354      0.0021
     25  C2        68.2790   -5.8220  -10.0960 C.3   354  ADP354      0.5254
     26  N3        68.1990   -5.2900   -8.7570 N.2   354  ADP354     -0.0055
     27  C4        67.5270   -6.0120   -7.7740 C.2   354  ADP354      0.3518
@<TRIPOS>BOND
     1    24    25    1
     2    24    22    2
     3    25    26    1
     4    23    22    1
     5    22    21    1
     6    26    27    2
     7    21    27    1
     8    21    20    2
     9    27    18    1
    10    20    19    1
    11    18    19    1
    12    18    17    1
    13    16    15    1
    14    15    17    1
    15    15    13    1
    16    17    12    1
    17    13    14    1
    18    13    11    1
    19    12    11    1
    20     6     5    2
    21    11    10    1
    22     9     5    1
    23     9    10    1
    24     5     7    1
    25     5     8    1
    26     8     1    1
    27     4     1    2
    28     1     2    1
    29     1     3    1
