@<TRIPOS>MOLECULE
3ubq_SIA_C_1.pdb
 20 20 0 0 0
SMALL
GASTEIGER

@<TRIPOS>ATOM
      1  C1         1.2570   62.7240  -58.9360 C.2   330  SIA330      0.3914
      2  C2         1.4600   63.3480  -60.2920 C.3   330  SIA330      0.2203
      3  C3         2.4790   64.4680  -60.1390 C.3   330  SIA330      0.0760
      4  C4         3.7810   63.8630  -59.6300 C.3   330  SIA330      0.1773
      5  C5         4.2810   62.7950  -60.5940 C.3   330  SIA330      0.1552
      6  C6         3.1960   61.7630  -60.8990 C.3   330  SIA330      0.1710
      7  C7         3.5900   60.8140  -62.0260 C.3   330  SIA330      0.2134
      8  C8         2.4190   59.9140  -62.4020 C.3   330  SIA330      0.2173
      9  C9         2.8700   58.7510  -63.2790 C.3   330  SIA330      0.2175
     10  C10        6.4480   61.7420  -60.7520 C.2   330  SIA330      0.2420
     11  C11        7.5510   61.0220  -60.0290 C.3   330  SIA330      0.0964
     12  N5         5.4090   62.1030  -60.0100 N.am  330  SIA330     -0.2020
     13  O1A        1.1030   61.4850  -58.8730 O.co2 330  SIA330     -0.2430
     14  O1B        1.2110   63.4710  -57.9330 O.co2 330  SIA330     -0.2430
     15  O4         4.7940   64.8580  -59.4230 O.3   330  SIA330     -0.2211
     16  O6         1.9250   62.3540  -61.2110 O.3   330  SIA330     -0.3429
     17  O7         4.0050   61.5520  -63.1780 O.3   330  SIA330     -0.2176
     18  O8         1.7790   59.4090  -61.2210 O.3   330  SIA330     -0.2175
     19  O9         1.7160   58.2190  -63.9390 O.3   330  SIA330     -0.2175
     20  O10        6.4950   61.9850  -61.9470 O.2   330  SIA330     -0.2733
@<TRIPOS>BOND
     1    19     9    1
     2     9     8    1
     3    17     7    1
     4     8     7    1
     5     8    18    1
     6     7     6    1
     7    20    10    2
     8    16     6    1
     9    16     2    1
    10     6     5    1
    11    10    11    1
    12    10    12   am
    13     5    12    1
    14     5     4    1
    15     2     3    1
    16     2     1    1
    17     3     4    1
    18     4    15    1
    19     1    13   ar
    20     1    14   ar
