@<TRIPOS>MOLECULE
3ubq_NAG_A_1.pdb
 14 14 0 0 0
SMALL
GASTEIGER

@<TRIPOS>ATOM
      1  C1       -25.3790   21.8160  -77.2470 C.3   330  NAG330      0.1665
      2  C2       -24.5570   22.2940  -78.4510 C.3   330  NAG330      0.1576
      3  C3       -24.8520   21.4900  -79.7180 C.3   330  NAG330      0.2069
      4  C4       -24.9450   19.9870  -79.4550 C.3   330  NAG330      0.2134
      5  C5       -25.6640   19.6660  -78.1500 C.3   330  NAG330      0.1809
      6  C6       -25.5250   18.1770  -77.8400 C.3   330  NAG330      0.2141
      7  C7       -24.0060   24.6440  -78.1780 C.2   330  NAG330      0.2420
      8  C8       -24.1770   26.0270  -78.7260 C.3   330  NAG330      0.0964
      9  N2       -24.7870   23.7030  -78.7050 N.am  330  NAG330     -0.2019
     10  O3       -23.8300   21.7290  -80.6600 O.3   330  NAG330     -0.2184
     11  O4       -25.6600   19.3590  -80.4970 O.3   330  NAG330     -0.2176
     12  O5       -25.1380   20.4330  -77.0870 O.3   330  NAG330     -0.3489
     13  O6       -26.2520   17.8590  -76.6740 O.3   330  NAG330     -0.2176
     14  O7       -23.1850   24.4260  -77.2840 O.2   330  NAG330     -0.2733
@<TRIPOS>BOND
     1    10     3    1
     2    11     4    1
     3     3     4    1
     4     3     2    1
     5     4     5    1
     6     8     7    1
     7     9     2    1
     8     9     7   am
     9     2     1    1
    10     7    14    2
    11     5     6    1
    12     5    12    1
    13     6    13    1
    14     1    12    1
