@<TRIPOS>MOLECULE
3ubr_HEC_A_1.pdb
 43 50 0 0 0
SMALL
GASTEIGER

@<TRIPOS>ATOM
      1 FE          8.1080  -34.2750  -29.8080 Fe    471  HEC471      0.0000
      2  CHA        6.5770  -31.3270  -29.1730 C.2   471  HEC471      0.0000
      3  CHB        5.8940  -34.9500  -32.2670 C.2   471  HEC471      0.0000
      4  CHC       10.0220  -36.9080  -30.7920 C.2   471  HEC471      0.0000
      5  CHD        9.9950  -34.0110  -27.0190 C.2   471  HEC471      0.0000
      6  NA         6.5690  -33.2870  -30.6160 N.ar  471  HEC471      0.0000
      7  C1A        6.0130  -32.1340  -30.1230 C.ar  471  HEC471      0.0000
      8  C2A        4.7330  -31.9280  -30.7900 C.ar  471  HEC471      0.0000
      9  C3A        4.5490  -32.9290  -31.6360 C.ar  471  HEC471      0.0000
     10  C4A        5.7000  -33.8000  -31.5470 C.ar  471  HEC471      0.0000
     11  CMA        3.3210  -33.1050  -32.5510 C.3   471  HEC471      0.0000
     12  CAA        3.7480  -30.7540  -30.5790 C.3   471  HEC471      0.0000
     13  CBA        4.1690  -29.4680  -31.3100 C.3   471  HEC471      0.0000
     14  CGA        4.3710  -29.6560  -32.7910 C.2   471  HEC471      0.0000
     15  O1A        3.4190  -29.3740  -33.5670 O.co2 471  HEC471      0.0000
     16  O2A        5.4960  -30.0710  -33.1930 O.co2 471  HEC471      0.0000
     17  NB         7.9550  -35.7040  -31.2190 N.2   471  HEC471      0.0000
     18  C1B        7.0240  -35.7340  -32.2420 C.2   471  HEC471      0.0000
     19  C2B        7.4710  -36.6950  -33.2560 C.2   471  HEC471      0.0000
     20  C3B        8.6130  -37.2270  -32.8260 C.2   471  HEC471      0.0000
     21  C4B        8.9270  -36.6150  -31.5460 C.2   471  HEC471      0.0000
     22  CMB        6.7790  -37.0990  -34.5760 C.3   471  HEC471      0.0000
     23  CAB        9.4780  -38.2970  -33.5580 C.3   471  HEC471      0.0000
     24  CBB        9.9870  -37.8260  -34.9500 C.3   471  HEC471      0.0000
     25  NC         9.6710  -35.2800  -29.0470 N.ar  471  HEC471      0.0000
     26  C1C       10.3570  -36.3110  -29.6250 C.ar  471  HEC471      0.0000
     27  C2C       11.3490  -36.8110  -28.7040 C.ar  471  HEC471      0.0000
     28  C3C       11.4790  -35.8630  -27.7640 C.ar  471  HEC471      0.0000
     29  C4C       10.3570  -34.9790  -27.9000 C.ar  471  HEC471      0.0000
     30  CMC       12.4670  -37.7700  -29.1950 C.3   471  HEC471      0.0000
     31  CAC       12.4750  -35.7820  -26.5890 C.3   471  HEC471      0.0000
     32  CBC       13.4780  -36.9500  -26.5960 C.3   471  HEC471      0.0000
     33  ND         8.2350  -32.9080  -28.3370 N.2   471  HEC471      0.0000
     34  C1D        9.1470  -32.9880  -27.2910 C.2   471  HEC471      0.0000
     35  C2D        9.1250  -31.8080  -26.4990 C.2   471  HEC471      0.0000
     36  C3D        8.0730  -30.9430  -27.1460 C.2   471  HEC471      0.0000
     37  C4D        7.5660  -31.7010  -28.2890 C.2   471  HEC471      0.0000
     38  CMD        9.9730  -31.5050  -25.2580 C.3   471  HEC471      0.0000
     39  CAD        7.6990  -29.5590  -26.6280 C.3   471  HEC471      0.0000
     40  CBD        8.6910  -28.5740  -27.2260 C.3   471  HEC471      0.0000
     41  CGD        8.3170  -28.1120  -28.6200 C.2   471  HEC471      0.0000
     42  O1D        7.6000  -28.8540  -29.3420 O.co2 471  HEC471      0.0000
     43  O2D        8.7520  -26.9920  -29.0210 O.co2 471  HEC471      0.0000
@<TRIPOS>BOND
     1    24    23    1
     2    22    19    1
     3    15    14   ar
     4    23    20    1
     5    19    20    2
     6    19    18    1
     7    16    14   ar
     8    20    21    1
     9    14    13    1
    10    11     9    1
    11     3    18    1
    12     3    10    2
    13    18    17    2
    14     9    10   ar
    15     9     8   ar
    16    10     6   ar
    17    21    17    1
    18    21     4    2
    19    13    12    1
    20    17     1    1
    21     4    26    1
    22     8    12    1
    23     8     7   ar
    24     6     7   ar
    25     6     1    1
    26     7     2    2
    27     1    25    1
    28     1    33    1
    29    26    25   ar
    30    26    27   ar
    31    42    41   ar
    32    30    27    1
    33     2    37    1
    34    25    29   ar
    35    43    41   ar
    36    27    28   ar
    37    41    40    1
    38    33    37    2
    39    33    34    1
    40    37    36    1
    41    29    28   ar
    42    29     5    1
    43    28    31    1
    44    34     5    2
    45    34    35    1
    46    40    39    1
    47    36    39    1
    48    36    35    2
    49    32    31    1
    50    35    38    1
