@<TRIPOS>MOLECULE
3ubv_HEM_A_1.pdb
 43 50 0 0 0
SMALL
GASTEIGER

@<TRIPOS>ATOM
      1  CHA       11.4010   19.6530   22.4290 C.2   140  HEM140      0.0000
      2  CHB       10.6560   24.0090   24.3970 C.2   140  HEM140      0.0000
      3  CHC       15.1520   23.9630   26.0600 C.2   140  HEM140      0.0000
      4  CHD       16.1050   20.7580   22.6780 C.2   140  HEM140      0.0000
      5  C1A       10.7690   20.7570   22.9280 C.2   140  HEM140      0.0000
      6  C2A        9.3350   20.9880   23.0510 C.2   140  HEM140      0.0000
      7  C3A        9.1720   22.1850   23.5810 C.2   140  HEM140      0.0000
      8  C4A       10.4660   22.7670   23.8280 C.2   140  HEM140      0.0000
      9  CMA        7.8120   22.8480   23.8810 C.3   140  HEM140      0.0000
     10  CAA        8.1090   20.1410   22.6400 C.3   140  HEM140      0.0000
     11  CBA        8.2220   18.6730   22.9800 C.3   140  HEM140      0.0000
     12  CGA        7.6220   18.4510   24.3340 C.2   140  HEM140      0.0000
     13  O1A        8.4060   18.1750   25.2890 O.co2 140  HEM140      0.0000
     14  O2A        6.3690   18.5540   24.4370 O.co2 140  HEM140      0.0000
     15  C1B       11.7710   24.3530   25.1260 C.ar  140  HEM140      0.0000
     16  C2B       11.9150   25.4100   26.1330 C.ar  140  HEM140      0.0000
     17  C3B       13.1820   25.3610   26.5580 C.ar  140  HEM140      0.0000
     18  C4B       13.8510   24.3020   25.8440 C.ar  140  HEM140      0.0000
     19  CMB       10.8240   26.3970   26.6070 C.3   140  HEM140      0.0000
     20  CAB       13.9050   26.2340   27.6040 C.2   140  HEM140      0.0000
     21  CBB       13.2980   26.7870   28.6510 C.2   140  HEM140      0.0000
     22  C1C       15.8470   23.1060   25.2840 C.2   140  HEM140      0.0000
     23  C2C       17.2710   22.8480   25.3120 C.2   140  HEM140      0.0000
     24  C3C       17.5260   21.9600   24.3570 C.2   140  HEM140      0.0000
     25  C4C       16.2690   21.6360   23.7120 C.2   140  HEM140      0.0000
     26  CMC       18.3110   23.4780   26.2580 C.3   140  HEM140      0.0000
     27  CAC       18.8980   21.3730   23.9590 C.2   140  HEM140      0.0000
     28  CBC       19.2860   21.5180   22.6830 C.2   140  HEM140      0.0000
     29  C1D       14.9480   20.1110   22.3690 C.ar  140  HEM140      0.0000
     30  C2D       14.9400   18.9420   21.5570 C.ar  140  HEM140      0.0000
     31  C3D       13.4700   18.5620   21.4520 C.ar  140  HEM140      0.0000
     32  C4D       12.7500   19.5570   22.2290 C.ar  140  HEM140      0.0000
     33  CMD       16.1790   18.2610   20.9410 C.3   140  HEM140      0.0000
     34  CAD       12.9180   17.3590   20.6610 C.3   140  HEM140      0.0000
     35  CBD       12.9020   17.6440   19.1510 C.3   140  HEM140      0.0000
     36  CGD       12.0220   16.6020   18.4910 C.2   140  HEM140      0.0000
     37  O1D       10.7700   16.7950   18.4890 O.co2 140  HEM140      0.0000
     38  O2D       12.5740   15.5760   17.9890 O.co2 140  HEM140      0.0000
     39  NA        11.4280   21.8660   23.4080 N.2   140  HEM140      0.0000
     40  NB        12.9740   23.7050   24.9650 N.ar  140  HEM140      0.0000
     41  NC        15.2550   22.3610   24.3020 N.2   140  HEM140      0.0000
     42  ND        13.6500   20.4600   22.7390 N.ar  140  HEM140      0.0000
     43 FE         13.2690   22.1220   23.8340 Fe    140  HEM140      0.0000
@<TRIPOS>BOND
     1    38    36   ar
     2    37    36   ar
     3    36    35    1
     4    35    34    1
     5    34    31    1
     6    33    30    1
     7    31    30   ar
     8    31    32   ar
     9    30    29   ar
    10    32     1    2
    11    32    42   ar
    12    29     4    2
    13    29    42   ar
    14     1     5    1
    15    10    11    1
    16    10     6    1
    17     4    25    1
    18    28    27    2
    19    42    43    1
    20     5     6    1
    21     5    39    2
    22    11    12    1
    23     6     7    2
    24    39     8    1
    25    39    43    1
    26     7     8    1
    27     7     9    1
    28    25    41    2
    29    25    24    1
    30     8     2    2
    31    43    41    1
    32    43    40    1
    33    27    24    1
    34    41    22    1
    35    12    14   ar
    36    12    13   ar
    37    24    23    2
    38     2    15    1
    39    40    15   ar
    40    40    18   ar
    41    15    16   ar
    42    22    23    1
    43    22     3    2
    44    23    26    1
    45    18     3    1
    46    18    17   ar
    47    16    17   ar
    48    16    19    1
    49    17    20    1
    50    20    21    2
