@<TRIPOS>MOLECULE
3uc5_ATP_A_1.pdb
 31 33 0 0 0
SMALL
GASTEIGER

@<TRIPOS>ATOM
      1  PG        39.2220  -24.6790    4.5050 P.3   1440  ATP1440     0.5373
      2  O1G       38.8290  -25.0500    5.9190 O.3   1440  ATP1440    -0.1143
      3  O2G       38.5260  -25.4710    3.4460 O.2   1440  ATP1440    -0.2221
      4  O3G       40.6990  -24.4590    4.2880 O.3   1440  ATP1440    -0.1143
      5  PB        38.4810  -22.2260    5.5280 P.3   1440  ATP1440     0.2277
      6  O1B       37.0230  -22.2110    5.9350 O.2   1440  ATP1440    -0.5168
      7  O2B       39.5480  -22.5570    6.5430 O.3   1440  ATP1440    -0.4368
      8  O3B       38.5900  -23.2340    4.2850 O.3   1440  ATP1440    -0.2258
      9  PA        38.4340  -19.4330    4.6050 P.3   1440  ATP1440     0.2189
     10  O1A       37.1460  -19.4620    3.7990 O.2   1440  ATP1440    -0.5170
     11  O2A       39.5630  -18.5610    4.0850 O.3   1440  ATP1440    -0.4371
     12  O3A       39.0260  -20.9200    4.7200 O.3   1440  ATP1440    -0.2700
     13  O5'       38.1390  -18.9970    6.1290 O.3   1440  ATP1440    -0.3112
     14  C5'       38.1720  -17.6250    6.5250 C.3   1440  ATP1440     0.1813
     15  C4'       38.2840  -17.5550    8.0530 C.3   1440  ATP1440     0.1821
     16  O4'       37.2140  -18.2830    8.6650 O.3   1440  ATP1440    -0.3135
     17  C3'       39.5700  -18.1730    8.5810 C.3   1440  ATP1440     0.2184
     18  O3'       40.0150  -17.4110    9.7280 O.3   1440  ATP1440    -0.2174
     19  C2'       39.1220  -19.5060    9.1350 C.3   1440  ATP1440     0.2570
     20  O2'       39.9930  -19.9200   10.1790 O.3   1440  ATP1440    -0.2130
     21  C1'       37.7540  -19.1440    9.6760 C.3   1440  ATP1440     0.3186
     22  N9        36.8460  -20.2870    9.9120 N.pl3 1440  ATP1440    -0.1439
     23  C8        36.5070  -21.2630    9.0450 C.3   1440  ATP1440     0.3377
     24  N7        35.6290  -22.1250    9.6110 N.2   1440  ATP1440    -0.2095
     25  C5        35.3870  -21.6960   10.8600 C.2   1440  ATP1440     0.2526
     26  C6        34.5600  -22.1460   12.0010 C.2   1440  ATP1440     0.4393
     27  N6        33.7930  -23.2600   11.9100 N.pl3 1440  ATP1440     0.2180
     28  N1        34.6020  -21.4060   13.1370 N.2   1440  ATP1440     0.0021
     29  C2        35.3670  -20.3040   13.2470 C.3   1440  ATP1440     0.5254
     30  N3        36.1410  -19.8390   12.2450 N.2   1440  ATP1440    -0.0055
     31  C4        36.1920  -20.4830   11.0530 C.2   1440  ATP1440     0.3518
@<TRIPOS>BOND
     1     3     1    2
     2    10     9    2
     3    11     9    1
     4     8     1    1
     5     8     5    1
     6     4     1    1
     7     1     2    1
     8     9    12    1
     9     9    13    1
    10    12     5    1
    11     5     6    2
    12     5     7    1
    13    13    14    1
    14    14    15    1
    15    15    17    1
    16    15    16    1
    17    17    19    1
    18    17    18    1
    19    16    21    1
    20    23    24    1
    21    23    22    1
    22    19    21    1
    23    19    20    1
    24    24    25    2
    25    21    22    1
    26    22    31    1
    27    25    31    1
    28    25    26    1
    29    31    30    2
    30    27    26    1
    31    26    28    2
    32    30    29    1
    33    28    29    1
