@<TRIPOS>MOLECULE
3ucb_017_A_1.pdb
 38 41 0 0 0
SMALL
GASTEIGER

@<TRIPOS>ATOM
      1  N1        14.9340   -7.8070  -17.0580 N.pl3 201  017201     -0.1281
      2  C2        14.6210   -8.0870  -15.8100 C.ar  201  017201      0.0892
      3  C3        13.4060   -7.6240  -15.3260 C.ar  201  017201      0.0194
      4  C4        13.0270   -7.8900  -14.0190 C.ar  201  017201      0.0213
      5  C5        13.8860   -8.6250  -13.2080 C.ar  201  017201      0.1223
      6  C6        15.1050   -9.0920  -13.6870 C.ar  201  017201      0.0213
      7  C7        15.4860   -8.8220  -15.0080 C.ar  201  017201      0.0194
      8  S8        13.4150   -8.9650  -11.5580 S.O2  201  017201      0.0634
      9  O9        11.9130   -8.9960  -11.4760 O.2   201  017201     -0.1528
     10  O10       14.0740  -10.2280  -11.1570 O.2   201  017201     -0.1528
     11  N11       13.9960   -7.8070  -10.5800 N.3   201  017201     -0.1529
     12  C12       15.4590   -7.7640  -10.5260 C.3   201  017201      0.0958
     13  C13       15.8430   -7.0560   -9.2050 C.3   201  017201      0.0178
     14  C14       15.6110   -7.9990   -8.0220 C.3   201  017201      0.0015
     15  C15       17.3250   -6.6530   -9.2560 C.3   201  017201      0.0015
     16  C16       13.3190   -6.5290  -10.6340 C.3   201  017201      0.1304
     17  C17       12.6400   -6.2310   -9.2910 C.3   201  017201      0.1898
     18  O18       12.2890   -4.8610   -9.2240 O.3   201  017201     -0.2197
     19  C19       11.4730   -7.1570   -8.9730 C.3   201  017201      0.1347
     20  N20       11.1150   -6.9580   -7.5600 N.am  201  017201     -0.1675
     21  C21       11.2700   -7.8150   -6.5450 C.2   201  017201      0.4211
     22  O22       11.7770   -8.9380   -6.6920 O.2   201  017201     -0.2246
     23  O23       10.8560   -7.4280   -5.3230 O.3   201  017201     -0.4345
     24  C24       10.8910   -8.3290   -4.2220 C.3   201  017201      0.2048
     25  C25       11.4800   -7.5570   -3.0430 C.3   201  017201      0.1884
     26  O26       10.4260   -6.7220   -2.5930 O.3   201  017201     -0.3265
     27  C27        9.2030   -7.4200   -2.7800 C.3   201  017201      0.2388
     28  O28        8.2250   -6.5860   -3.4280 O.3   201  017201     -0.3304
     29  C29        8.0750   -6.9830   -4.7960 C.3   201  017201      0.1451
     30  C30        8.4170   -8.4900   -4.7960 C.3   201  017201      0.0409
     31  C31        9.4700   -8.6140   -3.6950 C.3   201  017201      0.1016
     32  C32       10.1760   -6.8470   -9.7550 C.3   201  017201      0.0508
     33  C33        7.9400   -7.4290   -8.6840 C.ar  201  017201     -0.0042
     34  C34        6.9490   -8.3280   -8.3070 C.ar  201  017201     -0.0003
     35  C35        7.1340   -9.6760   -8.6090 C.ar  201  017201     -0.0000
     36  C36        8.2820  -10.1160   -9.2710 C.ar  201  017201     -0.0003
     37  C37        9.2800   -9.2100   -9.6500 C.ar  201  017201     -0.0042
     38  C38        9.0850   -7.8500   -9.3420 C.ar  201  017201     -0.0204
@<TRIPOS>BOND
     1     1     2    1
     2     2     3   ar
     3     2     7   ar
     4     3     4   ar
     5     7     6   ar
     6     4     5   ar
     7     6     5   ar
     8     5     8    1
     9     8     9    2
    10     8    10    2
    11     8    11    1
    12    16    11    1
    13    16    17    1
    14    11    12    1
    15    12    13    1
    16    32    38    1
    17    32    19    1
    18    37    38   ar
    19    37    36   ar
    20    38    33   ar
    21    17    18    1
    22    17    19    1
    23    36    35   ar
    24    15    13    1
    25    13    14    1
    26    19    20    1
    27    33    34   ar
    28    35    34   ar
    29    20    21   am
    30    22    21    2
    31    21    23    1
    32    23    24    1
    33    30    29    1
    34    30    31    1
    35    29    28    1
    36    24    31    1
    37    24    25    1
    38    31    27    1
    39    28    27    1
    40    25    26    1
    41    27    26    1
