@<TRIPOS>MOLECULE
3ucc_2PG_A_1.pdb
 11 10 0 0 0
SMALL
GASTEIGER

@<TRIPOS>ATOM
      1  C1       101.1090   97.4530   24.4300 C.2   601  2PG601      0.3946
      2  C2       100.1500   97.4450   23.2480 C.3   601  2PG601      0.2610
      3  C3        98.9810   98.4830   23.4110 C.3   601  2PG601      0.2237
      4  P        100.8450   96.1460   21.1970 P.3   601  2PG601      0.5331
      5  O1       102.3750   97.0370   24.3580 O.co2 601  2PG601     -0.2428
      6  O2       100.4700   97.7940   25.5000 O.co2 601  2PG601     -0.2428
      7  O3        99.2920   99.7230   22.8240 O.3   601  2PG601     -0.2170
      8  O1P      100.8630   97.5750   21.9960 O.3   601  2PG601     -0.2583
      9  O2P      101.6140   96.3850   19.9310 O.2   601  2PG601     -0.2224
     10  O3P      101.5340   95.1700   22.0730 O.3   601  2PG601     -0.1145
     11  O4P       99.3860   95.8350   20.9290 O.3   601  2PG601     -0.1145
@<TRIPOS>BOND
     1     9     4    2
     2    11     4    1
     3     4     8    1
     4     4    10    1
     5     8     2    1
     6     7     3    1
     7     2     3    1
     8     2     1    1
     9     5     1   ar
    10     1     6   ar
