@<TRIPOS>MOLECULE
3ucd_2PG_A_1.pdb
 11 10 0 0 0
SMALL
GASTEIGER

@<TRIPOS>ATOM
      1  C1       147.3430   94.3440   24.1080 C.2   601  2PG601      0.3946
      2  C2       146.3880   94.3270   22.9390 C.3   601  2PG601      0.2610
      3  C3       145.2110   95.2420   23.0180 C.3   601  2PG601      0.2237
      4  P        147.1160   92.9180   20.8820 P.3   601  2PG601      0.5331
      5  O1       148.5570   93.8690   23.9740 O.co2 601  2PG601     -0.2428
      6  O2       146.9050   94.6940   25.1920 O.co2 601  2PG601     -0.2428
      7  O3       145.5180   96.6050   22.7600 O.3   601  2PG601     -0.2170
      8  O1P      147.0920   94.3160   21.6920 O.3   601  2PG601     -0.2583
      9  O2P      147.9490   93.1780   19.6300 O.2   601  2PG601     -0.2224
     10  O3P      147.7280   91.9230   21.8350 O.3   601  2PG601     -0.1145
     11  O4P      145.6720   92.5700   20.5960 O.3   601  2PG601     -0.1145
@<TRIPOS>BOND
     1     9     4    2
     2    11     4    1
     3     4     8    1
     4     4    10    1
     5     8     2    1
     6     7     3    1
     7     2     3    1
     8     2     1    1
     9     5     1   ar
    10     1     6   ar
