@<TRIPOS>MOLECULE
3ucd_PEP_B_1.pdb
 10 9 0 0 0
SMALL
GASTEIGER

@<TRIPOS>ATOM
      1  C1       135.3300  111.9760   -1.4300 C.2   601  PEP601      0.3919
      2  O1       135.7250  113.1860   -1.6050 O.co2 601  PEP601     -0.2429
      3  O2'      134.9300  111.2410   -2.3500 O.co2 601  PEP601     -0.2429
      4  C2       135.1520  111.3620   -0.0680 C.3   601  PEP601      0.2285
      5  C3       134.8960  109.8620    0.0710 C.3   601  PEP601      0.0450
      6  O2       135.8900  112.1140    0.9340 O.3   601  PEP601     -0.2611
      7  P        135.0060  113.1090    1.8580 P.3   601  PEP601      0.5330
      8  O1P      133.9330  112.3410    2.5370 O.3   601  PEP601     -0.1145
      9  O2P      136.0380  113.6590    2.8080 O.3   601  PEP601     -0.1145
     10  O3P      134.3950  114.1350    0.9030 O.2   601  PEP601     -0.2224
@<TRIPOS>BOND
     1     3     1   ar
     2     2     1   ar
     3     1     4    1
     4     4     5    1
     5     4     6    1
     6    10     7    2
     7     6     7    1
     8     7     8    1
     9     7     9    1
