@<TRIPOS>MOLECULE
3ucj_AZM_A_1.pdb
 13 13 0 0 0
SMALL
GASTEIGER

@<TRIPOS>ATOM
      1  C1        76.0040   52.2290  107.0040 C.ar  229  AZM229      0.2590
      2  C2        76.2140   54.2610  108.2940 C.ar  229  AZM229      0.2093
      3  C3        75.0760   55.8660  109.6430 C.2   229  AZM229      0.2478
      4  C4        75.0690   57.2850  110.1810 C.3   229  AZM229      0.0969
      5  N1        75.9790   49.4690  106.7240 N.3   229  AZM229      0.0413
      6  N2        77.4210   53.7310  107.9020 N.ar  229  AZM229     -0.1222
      7  N3        77.3100   52.4820  107.0940 N.ar  229  AZM229     -0.1189
      8  N4        76.2280   55.3720  109.1840 N.am  229  AZM229     -0.1528
      9  O1        75.5850   50.9650  104.7570 O.2   229  AZM229     -0.1483
     10  O2        74.0430   50.8130  106.6030 O.2   229  AZM229     -0.1483
     11  O3        74.0400   55.1500  109.5970 O.2   229  AZM229     -0.2729
     12  S1        75.4600   50.8310  106.1110 S.O2  229  AZM229      0.1178
     13  S2        74.8660   53.3890  107.7280 S.2   229  AZM229     -0.0087
@<TRIPOS>BOND
     1     9    12    2
     2    12    10    2
     3    12     5    1
     4    12     1    1
     5     1     7   ar
     6     1    13   ar
     7     7     6   ar
     8    13     2   ar
     9     6     2   ar
    10     2     8    1
    11     8     3   am
    12    11     3    2
    13     3     4    1
