@<TRIPOS>MOLECULE
3ucl_NAP_A_1.pdb
 48 52 0 0 0
SMALL
GASTEIGER

@<TRIPOS>ATOM
      1  PA        22.7820   -2.3650   15.2810 P.3   542  NAP542      0.2189
      2  O1A       21.8890   -2.4470   16.4480 O.3   542  NAP542     -0.4371
      3  O2A       23.7620   -1.0370   15.1610 O.2   542  NAP542     -0.5170
      4  O5B       23.8170   -3.5850   15.4180 O.3   542  NAP542     -0.3112
      5  C5B       24.8100   -3.7470   14.3990 C.3   542  NAP542      0.1813
      6  C4B       25.4660   -5.1070   14.5620 C.3   542  NAP542      0.1820
      7  O4B       26.5810   -5.2220   13.6450 O.3   542  NAP542     -0.3136
      8  C3B       26.0450   -5.2810   15.9670 C.3   542  NAP542      0.2157
      9  O3B       26.1150   -6.6990   16.2560 O.3   542  NAP542     -0.2175
     10  C2B       27.4370   -4.6730   15.8010 C.3   542  NAP542      0.2314
     11  O2B       28.3190   -5.2780   16.7360 O.3   542  NAP542     -0.2630
     12  C1B       27.7920   -5.2260   14.4190 C.3   542  NAP542      0.3158
     13  N9A       28.7100   -4.4050   13.7110 N.pl3 542  NAP542     -0.1439
     14  C8A       28.6040   -3.1020   13.4790 C.3   542  NAP542      0.3377
     15  N7A       29.6650   -2.7080   12.7660 N.2   542  NAP542     -0.2095
     16  C5A       30.4400   -3.7540   12.5770 C.2   542  NAP542      0.2526
     17  C6A       31.6420   -3.9490   11.9250 C.2   542  NAP542      0.4393
     18  N6A       32.2430   -2.9170   11.3670 N.pl3 542  NAP542      0.2180
     19  N1A       32.1820   -5.1830   11.8870 N.2   542  NAP542      0.0021
     20  C2A       31.5800   -6.2130   12.4850 C.3   542  NAP542      0.5254
     21  N3A       30.4220   -6.0640   13.1010 N.2   542  NAP542     -0.0055
     22  C4A       29.8280   -4.8500   13.1640 C.2   542  NAP542      0.3518
     23  O3        22.0760   -2.3800   13.7530 O.3   542  NAP542     -0.2703
     24  PN        20.5260   -2.8250   13.3990 P.3   542  NAP542      0.2189
     25  O1N       20.0450   -3.6600   14.5260 O.3   542  NAP542     -0.4371
     26  O2N       20.6470   -3.4180   12.0360 O.2   542  NAP542     -0.5170
     27  O5D       19.6760   -1.3580   13.2310 O.3   542  NAP542     -0.3112
     28  C5D       18.5270   -0.7060   13.9670 C.3   542  NAP542      0.1813
     29  C4D       19.0000   -0.0190   15.3050 C.3   542  NAP542      0.1799
     30  O4D       18.6320    1.3730   15.7080 O.3   542  NAP542     -0.3327
     31  C3D       18.4240   -0.8400   16.4880 C.3   542  NAP542      0.2158
     32  O3D       19.1330   -2.1180   16.6080 O.3   542  NAP542     -0.2175
     33  C2D       18.6080    0.1100   17.6940 C.3   542  NAP542      0.2309
     34  O2D       19.5520   -0.3810   18.6820 O.3   542  NAP542     -0.2158
     35  C1D       19.2080    1.3890   17.0700 C.3   542  NAP542      0.2263
     36  N1N       19.0910    2.4970   18.0960 N.pl3 542  NAP542     -0.2787
     37  C2N       18.2000    3.5850   17.9470 C.3   542  NAP542      0.1244
     38  C3N       18.1290    4.5740   18.9560 C.2   542  NAP542      0.0544
     39  C7N       17.1470    5.7940   18.7980 C.2   542  NAP542      0.2818
     40  O7N       17.0400    6.7030   19.6170 O.2   542  NAP542     -0.2670
     41  N7N       16.4140    5.7950   17.6840 N.am  542  NAP542     -0.0839
     42  C4N       18.9500    4.4410   20.0930 C.2   542  NAP542      0.0033
     43  C5N       19.8370    3.3700   20.2660 C.2   542  NAP542      0.0157
     44  C6N       19.9080    2.4060   19.2730 C.2   542  NAP542      0.0633
     45  P2B       28.8180   -4.5930   18.1230 P.3   542  NAP542      0.5328
     46  O1X       27.8350   -4.7100   19.1920 O.3   542  NAP542     -0.1145
     47  O2X       30.2550   -5.3210   18.4510 O.3   542  NAP542     -0.1145
     48  O3X       29.2050   -3.0750   17.7190 O.2   542  NAP542     -0.2224
@<TRIPOS>BOND
     1    18    17    1
     2    19    17    2
     3    19    20    1
     4    17    16    1
     5    26    24    2
     6    20    21    1
     7    16    15    2
     8    16    22    1
     9    15    14    1
    10    21    22    2
    11    22    13    1
    12    27    24    1
    13    27    28    1
    14    24    23    1
    15    24    25    1
    16    14    13    1
    17     7    12    1
    18     7     6    1
    19    13    12    1
    20    23     1    1
    21    28    29    1
    22     5     6    1
    23     5     4    1
    24    12    10    1
    25     6     8    1
    26     3     1    2
    27     1     4    1
    28     1     2    1
    29    29    30    1
    30    29    31    1
    31    30    35    1
    32    10     8    1
    33    10    11    1
    34     8     9    1
    35    31    32    1
    36    31    33    1
    37    11    45    1
    38    35    33    1
    39    35    36    1
    40    41    39   am
    41    33    34    1
    42    48    45    2
    43    37    36    1
    44    37    38    1
    45    36    44    1
    46    45    47    1
    47    45    46    1
    48    39    38    1
    49    39    40    2
    50    38    42    2
    51    44    43    2
    52    42    43    1
