@<TRIPOS>MOLECULE
3ucp_HEC_A_10.pdb
 43 50 0 0 0
SMALL
GASTEIGER

@<TRIPOS>ATOM
      1 FE          8.3430    1.8810   29.8140 Fe    910  HEC910      0.0000
      2  CHA        9.1440   -0.0060   32.5760 C.2   910  HEC910      0.0000
      3  CHB        5.5930   -0.1020   29.2460 C.2   910  HEC910      0.0000
      4  CHC        7.4460    3.8330   27.1420 C.2   910  HEC910      0.0000
      5  CHD       11.2430    3.6840   30.1310 C.2   910  HEC910      0.0000
      6  NA         7.5600    0.1990   30.7290 N.ar  910  HEC910      0.0000
      7  C1A        8.0400   -0.3810   31.8700 C.ar  910  HEC910      0.0000
      8  C2A        7.0820   -1.4200   32.2460 C.ar  910  HEC910      0.0000
      9  C3A        6.1000   -1.4350   31.3200 C.ar  910  HEC910      0.0000
     10  C4A        6.3640   -0.3680   30.3600 C.ar  910  HEC910      0.0000
     11  CMA        4.8920   -2.3900   31.1850 C.3   910  HEC910      0.0000
     12  CAA        7.2180   -2.3370   33.4960 C.3   910  HEC910      0.0000
     13  CBA        7.0840   -3.7470   32.9570 C.3   910  HEC910      0.0000
     14  CGA        8.4460   -4.3430   33.0070 C.2   910  HEC910      0.0000
     15  O1A        9.2910   -3.9200   32.1720 O.co2 910  HEC910      0.0000
     16  O2A        8.6790   -5.1650   33.9420 O.co2 910  HEC910      0.0000
     17  NB         6.8290    1.8880   28.5000 N.2   910  HEC910      0.0000
     18  C1B        5.7710    0.9840   28.4120 C.2   910  HEC910      0.0000
     19  C2B        4.8790    1.3710   27.3330 C.2   910  HEC910      0.0000
     20  C3B        5.4340    2.4230   26.6970 C.2   910  HEC910      0.0000
     21  C4B        6.6040    2.8020   27.4770 C.2   910  HEC910      0.0000
     22  CMB        3.6190    0.5980   26.8850 C.3   910  HEC910      0.0000
     23  CAB        4.9130    3.2330   25.4690 C.3   910  HEC910      0.0000
     24  CBB        3.4290    3.6690   25.5940 C.3   910  HEC910      0.0000
     25  NC         9.1620    3.5500   28.8820 N.ar  910  HEC910      0.0000
     26  C1C        8.5990    4.1730   27.8020 C.ar  910  HEC910      0.0000
     27  C2C        9.4250    5.3430   27.5160 C.ar  910  HEC910      0.0000
     28  C3C       10.5330    5.2440   28.2880 C.ar  910  HEC910      0.0000
     29  C4C       10.3770    4.0930   29.1640 C.ar  910  HEC910      0.0000
     30  CMC        9.1520    6.2950   26.3110 C.3   910  HEC910      0.0000
     31  CAC       11.8120    6.1190   28.2960 C.3   910  HEC910      0.0000
     32  CBC       11.4620    7.6020   28.4870 C.3   910  HEC910      0.0000
     33  ND         9.8840    1.8680   31.1020 N.2   910  HEC910      0.0000
     34  C1D       11.0120    2.6710   31.0350 C.2   910  HEC910      0.0000
     35  C2D       11.9270    2.3440   32.1070 C.2   910  HEC910      0.0000
     36  C3D       11.2930    1.1900   32.8580 C.2   910  HEC910      0.0000
     37  C4D       10.0300    0.9800   32.2020 C.2   910  HEC910      0.0000
     38  CMD       13.3000    2.9710   32.4010 C.3   910  HEC910      0.0000
     39  CAD       11.8920    0.5020   34.1120 C.3   910  HEC910      0.0000
     40  CBD       11.1350    1.0520   35.3070 C.3   910  HEC910      0.0000
     41  CGD       11.6150    0.3040   36.5370 C.2   910  HEC910      0.0000
     42  O1D       10.7710    0.1340   37.4510 O.co2 910  HEC910      0.0000
     43  O2D       12.8310   -0.0410   36.6270 O.co2 910  HEC910      0.0000
@<TRIPOS>BOND
     1    23    24    1
     2    23    20    1
     3    30    27    1
     4    20    19    2
     5    20    21    1
     6    22    19    1
     7     4    21    2
     8     4    26    1
     9    19    18    1
    10    21    17    1
    11    27    26   ar
    12    27    28   ar
    13    26    25   ar
    14    28    31    1
    15    28    29   ar
    16    31    32    1
    17    18    17    2
    18    18     3    1
    19    17     1    1
    20    25    29   ar
    21    25     1    1
    22    29     5    1
    23     3    10    2
    24     1     6    1
    25     1    33    1
    26     5    34    2
    27    10     6   ar
    28    10     9   ar
    29     6     7   ar
    30    34    33    1
    31    34    35    1
    32    33    37    2
    33    11     9    1
    34     9     8   ar
    35     7     8   ar
    36     7     2    2
    37    35    38    1
    38    35    36    2
    39    15    14   ar
    40    37     2    1
    41    37    36    1
    42     8    12    1
    43    36    39    1
    44    13    14    1
    45    13    12    1
    46    14    16   ar
    47    39    40    1
    48    40    41    1
    49    41    43   ar
    50    41    42   ar
