@<TRIPOS>MOLECULE
3ud5_J1A_A_1.pdb
 41 46 0 0 0
SMALL
GASTEIGER

@<TRIPOS>ATOM
      1  C1        20.7030    5.8660    2.4850 C.3   171  J1A171      0.1630
      2  N1        22.6820    5.2950    5.2710 N.pl3 171  J1A171     -0.1439
      3  O1        20.9620    5.6960    3.8640 O.3   171  J1A171     -0.3153
      4  S1        18.3160    4.2010    2.4150 S.3   171  J1A171     -0.1384
      5  C2        21.7210    4.9290    1.7760 C.3   171  J1A171      0.2168
      6  N2        23.3740    5.4700    7.3970 N.2   171  J1A171     -0.2095
      7  O2        22.1950    5.4360    0.5820 O.3   171  J1A171     -0.2175
      8  C3        22.9240    4.8700    2.7810 C.3   171  J1A171      0.2569
      9  N3        23.3330    3.2540    9.2810 N.pl3 171  J1A171      0.2180
     10  O3        24.1230    5.3520    2.2800 O.3   171  J1A171     -0.2130
     11  C4        22.3720    5.7400    3.9590 C.3   171  J1A171      0.3185
     12  N4        22.4010    1.8920    7.5190 N.2   171  J1A171      0.0021
     13  O4        11.0710   -1.1910    9.5700 O.2   171  J1A171     -0.2052
     14  C5        23.2020    6.1100    6.2580 C.3   171  J1A171      0.3377
     15  N5        22.0050    2.8810    5.2990 N.2   171  J1A171     -0.0055
     16  C6        22.9390    4.1990    7.1650 C.2   171  J1A171      0.2526
     17  N6        15.1400    3.7430    5.8120 N.3   171  J1A171     -0.2714
     18  C7        22.8830    3.0980    8.0160 C.2   171  J1A171      0.4393
     19  C8        21.9960    1.8780    6.2100 C.3   171  J1A171      0.5254
     20  N8         7.5570    0.9370   10.0510 N.2   171  J1A171     -0.2672
     21  C9        22.4920    4.0320    5.8300 C.2   171  J1A171      0.3518
     22  N9         6.8520   -0.7580   11.4980 N.pl3 171  J1A171     -0.0220
     23  C10       19.2000    5.7580    2.1580 C.3   171  J1A171      0.0899
     24  N10        9.0230   -0.9820   10.5180 N.2   171  J1A171     -0.2466
     25  C11       17.0630    4.5250    3.7320 C.3   171  J1A171      0.0505
     26  N11       10.7660    1.2710    8.1450 N.2   171  J1A171     -0.3842
     27  C12       15.7050    3.9590    3.3030 C.3   171  J1A171      0.0282
     28  N12        8.2540    2.6470    8.5870 N.2   171  J1A171     -0.1993
     29  C13       14.6870    4.1590    4.4450 C.3   171  J1A171      0.0730
     30  C14       16.5380    4.1460    6.1430 C.3   171  J1A171      0.0730
     31  C15       17.5400    3.8580    5.0330 C.3   171  J1A171      0.0282
     32  C16       14.8570    2.3250    6.1510 C.3   171  J1A171      0.0911
     33  C18       11.3590    3.2130    6.6130 C.3   171  J1A171      0.1449
     34  C19        7.8330   -0.2550   10.6690 C.1   171  J1A171      0.2609
     35  C20       10.0720   -0.5120    9.6630 C.1   171  J1A171      0.2569
     36  C21       10.4390    2.4710    7.5640 C.2   171  J1A171      0.1313
     37  C22        9.1960    3.1240    7.7840 C.3   171  J1A171      0.1928
     38  C25        8.5550    1.4280    9.2140 C.1   171  J1A171      0.1401
     39  C26        9.7960    0.7610    8.9850 C.2   171  J1A171      0.2988
     40  C27       13.5910    2.3440    7.0300 C.3   171  J1A171      0.1065
     41  N28       12.4520    2.4250    6.0770 N.3   171  J1A171     -0.2093
@<TRIPOS>BOND
     1     7     5    1
     2     5     1    1
     3     5     8    1
     4    23     4    1
     5    23     1    1
     6    10     8    1
     7     4    25    1
     8     1     3    1
     9     8    11    1
    10    27    25    1
    11    27    29    1
    12    25    31    1
    13     3    11    1
    14    11     2    1
    15    29    17    1
    16    31    30    1
    17     2    21    1
    18     2    14    1
    19    15    21    2
    20    15    19    1
    21    17    30    1
    22    17    32    1
    23    21    16    1
    24    41    33    1
    25    41    40    1
    26    32    40    1
    27    19    12    1
    28    14     6    1
    29    33    36    1
    30    16     6    2
    31    16    18    1
    32    12    18    2
    33    36    37    1
    34    36    26    2
    35    37    28    1
    36    18     9    1
    37    26    39    2
    38    28    38    2
    39    39    38    1
    40    39    35    1
    41    38    20    2
    42    13    35    2
    43    35    24    2
    44    20    34    2
    45    24    34    2
    46    34    22    1
