@<TRIPOS>MOLECULE
3ud6_LL8_A_1.pdb
 17 18 0 0 0
SMALL
GASTEIGER

@<TRIPOS>ATOM
      1  C1       -32.1590   10.8320    8.0690 C.ar  300  LL8300      0.0031
      2  O1       -26.8850    9.2010   10.0830 O.2   300  LL8300     -0.2913
      3  C2       -33.4820   10.4050    7.9420 C.ar  300  LL8300      0.0369
      4  C3       -33.8190    9.0700    8.1560 C.ar  300  LL8300      0.1387
      5  O3       -35.0960    8.5900    8.0310 O.3   300  LL8300     -0.4714
      6  C4       -32.8300    8.1690    8.4810 C.ar  300  LL8300      0.0369
      7  C5       -31.5230    8.5880    8.6140 C.ar  300  LL8300      0.0030
      8  C6       -31.1680    9.9180    8.4090 C.ar  300  LL8300      0.0003
      9  C7       -29.8340   10.3050    8.5500 C.ar  300  LL8300      0.0028
     10  C8       -28.8900    9.3360    8.8930 C.ar  300  LL8300      0.0347
     11  C9       -29.2650    8.0190    9.0980 C.ar  300  LL8300      0.0028
     12  C10      -30.5810    7.6400    8.9570 C.ar  300  LL8300      0.0002
     13  C11      -27.4360    9.6250    9.0830 C.2   300  LL8300      0.1730
     14  C12      -26.6510   10.3900    8.0610 C.3   300  LL8300      0.0692
     15  C13      -25.3620    9.6180    7.8410 C.3   300  LL8300      0.0081
     16  C14      -24.7220    8.9210    9.0330 C.3   300  LL8300      0.0005
     17  C31      -36.1520    9.0560    8.8640 C.3   300  LL8300      0.2525
@<TRIPOS>BOND
     1    15    14    1
     2    15    16    1
     3     3     1   ar
     4     3     4   ar
     5     5     4    1
     6     5    17    1
     7    14    13    1
     8     1     8   ar
     9     4     6   ar
    10     8     9   ar
    11     8     7   ar
    12     6     7   ar
    13     9    10   ar
    14     7    12   ar
    15    10    13    1
    16    10    11   ar
    17    12    11   ar
    18    13     2    2
