@<TRIPOS>MOLECULE
3ud7_IDY_B_1.pdb
 18 18 0 0 0
SMALL
GASTEIGER

@<TRIPOS>ATOM
      1  S        -27.3340   -8.9370   60.7630 S.3   143  IDY143      0.0000
      2  C1       -27.7160  -11.2890   62.9130 C.3   143  IDY143      0.2691
      3  O1       -27.6080  -11.2650   64.3320 O.3   143  IDY143     -0.3259
      4  C2       -26.3980  -10.8520   62.2610 C.3   143  IDY143      0.2319
      5  O2       -26.6250  -10.2950   60.9590 O.3   143  IDY143     -0.2357
      6  C3       -25.3480  -11.9680   62.2530 C.3   143  IDY143      0.2195
      7  O3       -24.6810  -11.8570   63.5160 O.3   143  IDY143     -0.2174
      8  C4       -25.8750  -13.4090   62.1220 C.3   143  IDY143      0.2229
      9  O4       -25.6140  -13.4970   60.7950 O.3   143  IDY143     -0.2171
     10  C5       -27.2380  -13.6600   62.7860 C.3   143  IDY143      0.2529
     11  O5       -28.1690  -12.5960   62.5430 O.3   143  IDY143     -0.3169
     12  C6       -27.9050  -14.8650   62.1920 C.2   143  IDY143      0.3941
     13  C7       -27.0280  -12.0830   64.8810 C.3   143  IDY143      0.1769
     14  O61      -27.8600  -15.9360   62.8810 O.co2 143  IDY143     -0.2429
     15  O62      -28.5390  -14.7800   61.0770 O.co2 143  IDY143     -0.2429
     16  OS1      -27.9010   -8.8840   59.3810 O.2   143  IDY143     -0.3452
     17  OS2      -26.2990   -7.9050   60.8950 O.2   143  IDY143     -0.3452
     18  OS3      -28.4030   -8.7000   61.7940 O.3   143  IDY143     -0.2682
@<TRIPOS>BOND
     1    16     1    2
     2     1    17    2
     3     1     5    1
     4     1    18    1
     5     9     8    1
     6     5     4    1
     7    15    12   ar
     8     8     6    1
     9     8    10    1
    10    12    10    1
    11    12    14   ar
    12     6     4    1
    13     6     7    1
    14     4     2    1
    15    11    10    1
    16    11     2    1
    17     2     3    1
    18     3    13    1
