@<TRIPOS>MOLECULE
3ud7_GNS_B_1.pdb
 15 15 0 0 0
SMALL
GASTEIGER

@<TRIPOS>ATOM
      1  C1       -24.8680  -13.8100   59.6400 C.3   142  GNS142      0.1640
      2  C2       -25.1800  -12.8000   58.5430 C.3   142  GNS142      0.1563
      3  N        -24.8810  -11.4580   59.0050 N.3   142  GNS142     -0.1156
      4  S1       -24.0500  -10.4580   58.0730 S.3   142  GNS142     -0.1289
      5  O1S      -22.6400  -10.7990   58.2400 O.3   142  GNS142     -0.2919
      6  O2S      -24.5050  -10.6820   56.7040 O.3   142  GNS142     -0.2919
      7  O3S      -24.3420   -9.1060   58.5400 O.3   142  GNS142     -0.2919
      8  C3       -26.6400  -12.8910   58.1170 C.3   142  GNS142      0.2047
      9  O3       -26.8360  -12.1320   56.9450 O.3   142  GNS142     -0.2187
     10  C4       -27.0440  -14.3380   57.8580 C.3   142  GNS142      0.2131
     11  C5       -26.6000  -15.2410   59.0020 C.3   142  GNS142      0.1809
     12  O5       -25.2100  -15.1050   59.1970 O.3   142  GNS142     -0.3492
     13  C6       -26.9300  -16.6990   58.7060 C.3   142  GNS142      0.2141
     14  O6       -25.7620  -17.3700   58.2880 O.3   142  GNS142     -0.2176
     15  O4       -28.4440  -14.4160   57.7140 O.3   142  GNS142     -0.2176
@<TRIPOS>BOND
     1     6     4    1
     2     9     8    1
     3    15    10    1
     4    10     8    1
     5    10    11    1
     6     4     5    1
     7     4     7    1
     8     4     3    1
     9     8     2    1
    10    14    13    1
    11     2     3    1
    12     2     1    1
    13    13    11    1
    14    11    12    1
    15    12     1    1
