@<TRIPOS>MOLECULE
3ud8_IDY_A_1.pdb
 18 18 0 0 0
SMALL
GASTEIGER

@<TRIPOS>ATOM
      1  S         28.4250  -10.9820  -19.4380 S.3   142  IDY142      0.0000
      2  C1        28.5390   -8.1630  -17.5960 C.3   142  IDY142      0.2691
      3  O1        28.8130   -8.7190  -16.1310 O.3   142  IDY142     -0.3259
      4  C2        27.3910   -8.7840  -18.3950 C.3   142  IDY142      0.2319
      5  O2        27.8370   -9.5410  -19.5440 O.3   142  IDY142     -0.2357
      6  C3        26.3470   -7.7110  -18.7310 C.3   142  IDY142      0.2195
      7  O3        25.4850   -7.5560  -17.5850 O.3   142  IDY142     -0.2174
      8  C4        26.9170   -6.3410  -19.1330 C.3   142  IDY142      0.2229
      9  O4        27.5350   -6.4670  -20.6080 O.3   142  IDY142     -0.2171
     10  C5        28.1350   -5.8670  -18.3310 C.3   142  IDY142      0.2529
     11  O5        29.0600   -6.9280  -18.0950 O.3   142  IDY142     -0.3169
     12  C6        28.9100   -4.8650  -19.1450 C.2   142  IDY142      0.3941
     13  C7        28.8600   -8.5230  -15.1760 C.3   142  IDY142      0.1769
     14  O61       28.7720   -3.5920  -18.8930 O.co2 142  IDY142     -0.2429
     15  O62       29.7190   -5.2660  -20.0310 O.co2 142  IDY142     -0.2429
     16  OS1       29.1890  -11.2790  -20.6680 O.2   142  IDY142     -0.3452
     17  OS2       27.3490  -11.9950  -19.3410 O.2   142  IDY142     -0.3452
     18  OS3       29.3540  -11.1270  -18.2580 O.3   142  IDY142     -0.2682
@<TRIPOS>BOND
     1    16     1    2
     2     9     8    1
     3    15    12   ar
     4     5     1    1
     5     5     4    1
     6     1    17    2
     7     1    18    1
     8    12    14   ar
     9    12    10    1
    10     8     6    1
    11     8    10    1
    12     6     4    1
    13     6     7    1
    14     4     2    1
    15    10    11    1
    16    11     2    1
    17     2     3    1
    18     3    13    1
