@<TRIPOS>MOLECULE
3ud8_GNX_A_1.pdb
 19 19 0 0 0
SMALL
GASTEIGER

@<TRIPOS>ATOM
      1  N         26.3640   -8.5660  -22.0630 N.3   141  GNX141     -0.1156
      2  C1        26.5610   -6.1840  -21.5870 C.3   141  GNX141      0.1640
      3  S1        24.9720   -9.3200  -22.2950 S.3   141  GNX141     -0.1289
      4  C2        26.5910   -7.2650  -22.6610 C.3   141  GNX141      0.1554
      5  C3        27.9220   -7.2580  -23.4040 C.3   141  GNX141      0.1960
      6  O3        27.8300   -8.0860  -24.5420 O.3   141  GNX141     -0.2394
      7  C4        28.3000   -5.8450  -23.8340 C.3   141  GNX141      0.2123
      8  O4        29.6350   -5.8330  -24.2880 O.3   141  GNX141     -0.2177
      9  C5        28.1480   -4.8640  -22.6780 C.3   141  GNX141      0.1808
     10  O5        26.8330   -4.9310  -22.1730 O.3   141  GNX141     -0.3492
     11  C6        28.4470   -3.4390  -23.1280 C.3   141  GNX141      0.2141
     12  O6        27.5070   -2.5580  -22.5540 O.3   141  GNX141     -0.2176
     13  O12       28.0250   -9.3910  -26.5320 O.2   141  GNX141     -0.3452
     14  S12       28.6590   -8.9470  -25.2450 S.3   141  GNX141     -0.0001
     15  O1S       24.7090   -9.2880  -23.7310 O.3   141  GNX141     -0.2919
     16  O22       30.0870   -8.7560  -25.5020 O.2   141  GNX141     -0.3452
     17  O2S       25.1400  -10.6800  -21.7920 O.3   141  GNX141     -0.2919
     18  O32       28.5560  -10.0550  -24.2900 O.3   141  GNX141     -0.2682
     19  O3S       23.9620   -8.5820  -21.5410 O.3   141  GNX141     -0.2919
@<TRIPOS>BOND
     1    13    14    2
     2    16    14    2
     3    14     6    1
     4    14    18    1
     5     6     5    1
     6     8     7    1
     7     7     5    1
     8     7     9    1
     9    15     3    1
    10     5     4    1
    11    11     9    1
    12    11    12    1
    13     9    10    1
    14     4     1    1
    15     4     2    1
    16     3     1    1
    17     3    17    1
    18     3    19    1
    19    10     2    1
