@<TRIPOS>MOLECULE
3ud9_SGN_B_1.pdb
 19 19 0 0 0
SMALL
GASTEIGER

@<TRIPOS>ATOM
      1  C1       -39.4380   -4.9870   17.8860 C.3   141  SGN141      0.1640
      2  C2       -40.8180   -4.4850   17.4600 C.3   141  SGN141      0.1563
      3  C3       -41.8370   -4.8980   18.5040 C.3   141  SGN141      0.2047
      4  C4       -41.7390   -6.3830   18.7200 C.3   141  SGN141      0.2131
      5  C5       -40.3260   -6.8490   19.0490 C.3   141  SGN141      0.1800
      6  C6       -40.2550   -8.3580   19.0110 C.3   141  SGN141      0.2045
      7  N        -40.8000   -3.0500   17.3290 N.3   141  SGN141     -0.1156
      8  O3       -43.1690   -4.6570   18.1120 O.3   141  SGN141     -0.2187
      9  O4       -42.6110   -6.5830   19.7940 O.3   141  SGN141     -0.2176
     10  O5       -39.4170   -6.3880   18.0880 O.3   141  SGN141     -0.3493
     11  O6       -39.6940   -8.7440   17.7790 O.3   141  SGN141     -0.2384
     12  S1       -40.9060   -2.4120   15.8920 S.3   141  SGN141     -0.1289
     13  O1S      -41.4260   -1.0840   16.0060 O.3   141  SGN141     -0.2919
     14  O2S      -41.8200   -3.2660   15.2100 O.3   141  SGN141     -0.2919
     15  O3S      -39.6120   -2.4650   15.2790 O.3   141  SGN141     -0.2919
     16  S2       -38.9340  -10.0900   17.7470 S.3   141  SGN141     -0.0001
     17  O4S      -38.7020  -10.4580   16.3660 O.2   141  SGN141     -0.3452
     18  O5S      -39.8280  -11.0010   18.4100 O.2   141  SGN141     -0.3452
     19  O6S      -37.6930   -9.9420   18.4960 O.3   141  SGN141     -0.2682
@<TRIPOS>BOND
     1    14    12    1
     2    15    12    1
     3    12    13    1
     4    12     7    1
     5    17    16    2
     6     7     2    1
     7     2     1    1
     8     2     3    1
     9    16    11    1
    10    16    18    2
    11    16    19    1
    12    11     6    1
    13     1    10    1
    14    10     5    1
    15     8     3    1
    16     3     4    1
    17     4     5    1
    18     4     9    1
    19     6     5    1
