@<TRIPOS>MOLECULE
3ud9_IDY_B_1.pdb
 18 18 0 0 0
SMALL
GASTEIGER

@<TRIPOS>ATOM
      1  S        -40.1070    0.4560   19.4840 S.3   142  IDY142      0.0000
      2  C1       -38.0420   -1.2500   21.0500 C.3   142  IDY142      0.2691
      3  O1       -37.0000   -0.7620   21.5010 O.3   142  IDY142     -0.3259
      4  C2       -38.1370   -1.1630   19.5490 C.3   142  IDY142      0.2319
      5  O2       -39.5230   -0.9150   19.2290 O.3   142  IDY142     -0.2357
      6  C3       -37.6170   -2.3650   18.8280 C.3   142  IDY142      0.2195
      7  O3       -36.1770   -2.1360   18.5400 O.3   142  IDY142     -0.2174
      8  C4       -37.7850   -3.6660   19.5360 C.3   142  IDY142      0.2229
      9  O4       -39.0440   -4.3560   19.0760 O.3   142  IDY142     -0.2171
     10  C5       -37.7730   -3.6210   21.0560 C.3   142  IDY142      0.2529
     11  O5       -38.4390   -2.4800   21.6200 O.3   142  IDY142     -0.3169
     12  C6       -38.5250   -4.8060   21.6170 C.2   142  IDY142      0.3941
     13  C7       -35.6730   -0.2900   21.6370 C.3   142  IDY142      0.1769
     14  O61      -37.8490   -5.6610   22.3410 O.co2 142  IDY142     -0.2429
     15  O62      -39.8480   -4.6070   21.7720 O.co2 142  IDY142     -0.2429
     16  OS1      -41.5740    0.3570   19.4430 O.2   142  IDY142     -0.3452
     17  OS2      -39.6430    1.3650   18.4130 O.2   142  IDY142     -0.3452
     18  OS3      -39.6250    0.9990   20.7980 O.3   142  IDY142     -0.2682
@<TRIPOS>BOND
     1    17     1    2
     2     7     6    1
     3     6     8    1
     4     6     4    1
     5     9     8    1
     6     5     1    1
     7     5     4    1
     8    16     1    2
     9     1    18    1
    10     8    10    1
    11     4     2    1
    12     2     3    1
    13     2    11    1
    14    10    12    1
    15    10    11    1
    16     3    13    1
    17    12    15   ar
    18    12    14   ar
