@<TRIPOS>MOLECULE
3uda_SUS_B_1.pdb
 23 23 0 0 0
SMALL
GASTEIGER

@<TRIPOS>ATOM
      1  N         -2.2260   10.0650   16.5490 N.3   141  SUS141     -0.1156
      2  C1        -2.3210   12.3580   17.3670 C.3   141  SUS141      0.1640
      3  S1        -3.5310    9.1720   16.3070 S.3   141  SUS141     -0.1289
      4  C2        -2.2140   11.4560   16.1430 C.3   141  SUS141      0.1554
      5  S2        -2.7520   17.2840   15.7050 S.3   141  SUS141     -0.0001
      6  C3        -0.9470   11.7570   15.3510 C.3   141  SUS141      0.1960
      7  O3        -1.0010   11.0940   14.1090 O.3   141  SUS141     -0.2394
      8  S3        -0.4300    9.8310   13.7780 S.3   141  SUS141     -0.0001
      9  C4        -0.7910   13.2560   15.1210 C.3   141  SUS141      0.2122
     10  O4         0.4990   13.5220   14.6160 O.3   141  SUS141     -0.2177
     11  C5        -0.9990   14.0330   16.4160 C.3   141  SUS141      0.1799
     12  O5        -2.2570   13.7070   16.9630 O.3   141  SUS141     -0.3493
     13  C6        -0.9240   15.5340   16.1710 C.3   141  SUS141      0.2045
     14  O6        -2.1370   16.1350   16.5630 O.3   141  SUS141     -0.2384
     15  O1S       -4.6760    9.9790   16.7170 O.3   141  SUS141     -0.2919
     16  O2S       -3.5610    8.8490   14.8830 O.3   141  SUS141     -0.2919
     17  O3S       -3.3850    7.9770   17.1330 O.3   141  SUS141     -0.2919
     18  O4S       -2.0720   17.2660   14.4130 O.2   141  SUS141     -0.3452
     19  O5S       -4.1720   16.9880   15.5440 O.2   141  SUS141     -0.3452
     20  O6S       -2.5270   18.5310   16.4310 O.3   141  SUS141     -0.2682
     21  O7S        0.7730   10.1360   13.0480 O.2   141  SUS141     -0.3452
     22  O8S       -0.0860    8.8400   14.7710 O.3   141  SUS141     -0.2682
     23  O9S       -1.3490    9.2760   12.8080 O.2   141  SUS141     -0.3452
@<TRIPOS>BOND
     1    23     8    2
     2    21     8    2
     3     8     7    1
     4     8    22    1
     5     7     6    1
     6    18     5    2
     7    10     9    1
     8    16     3    1
     9     9     6    1
    10     9    11    1
    11     6     4    1
    12    19     5    2
    13     5    20    1
    14     5    14    1
    15     4     1    1
    16     4     2    1
    17    13    11    1
    18    13    14    1
    19     3     1    1
    20     3    15    1
    21     3    17    1
    22    11    12    1
    23    12     2    1
