@<TRIPOS>MOLECULE
3uda_IDY_B_1.pdb
 18 18 0 0 0
SMALL
GASTEIGER

@<TRIPOS>ATOM
      1  S         -0.3830    7.7840   18.9530 S.3   142  IDY142      0.0000
      2  C1         0.4940   10.0290   20.9690 C.3   142  IDY142      0.2691
      3  O1         0.1170   10.0040   22.4130 O.3   142  IDY142     -0.3259
      4  C2        -0.8660    9.9210   20.3180 C.3   142  IDY142      0.2319
      5  O2        -0.6840    9.3040   19.0150 O.3   142  IDY142     -0.2357
      6  C3        -1.4340   11.2990   20.2700 C.3   142  IDY142      0.2195
      7  O3        -2.7440   11.4790   20.9960 O.3   142  IDY142     -0.2174
      8  C4        -0.6860   12.5180   19.8100 C.3   142  IDY142      0.2229
      9  O4        -1.2560   12.0810   18.2480 O.3   142  IDY142     -0.2171
     10  C5         0.7000   12.5140   20.4560 C.3   142  IDY142      0.2529
     11  O5         1.2780   11.1790   20.5600 O.3   142  IDY142     -0.3169
     12  C6         1.6040   13.3920   19.6120 C.2   142  IDY142      0.3941
     13  C7         1.4060   10.6300   22.9550 C.3   142  IDY142      0.1769
     14  O61        2.2100   12.9290   18.5850 O.co2 142  IDY142     -0.2429
     15  O62        1.8580   14.6490   19.9500 O.co2 142  IDY142     -0.2429
     16  OS1        0.1420    7.4660   17.6000 O.2   142  IDY142     -0.3452
     17  OS2       -1.6270    7.0350   19.2180 O.2   142  IDY142     -0.3452
     18  OS3        0.6090    7.3780   19.9900 O.3   142  IDY142     -0.2682
@<TRIPOS>BOND
     1    16     1    2
     2     9     8    1
     3    14    12   ar
     4     1     5    1
     5     1    17    2
     6     1    18    1
     7     5     4    1
     8    12    15   ar
     9    12    10    1
    10     8     6    1
    11     8    10    1
    12     6     4    1
    13     6     7    1
    14     4     2    1
    15    10    11    1
    16    11     2    1
    17     2     3    1
    18     3    13    1
