@<TRIPOS>MOLECULE
3udd_34M_A_1.pdb
 29 32 0 0 0
SMALL
GASTEIGER

@<TRIPOS>ATOM
      1  S1       -23.9700   -3.1720   10.6020 S.3     1  34M1       -0.0640
      2  C2       -24.0280   -3.6140   12.3730 C.3     1  34M1        0.1673
      3  C5       -23.3060   -2.6320   13.2250 C.2     1  34M1        0.3050
      4  N6       -22.6890   -1.5880   12.9300 N.2     1  34M1       -0.3117
      5  C7       -22.1330   -1.0080   14.0980 C.1     1  34M1        0.1268
      6  N8       -22.5120   -1.6960   15.1040 N.2     1  34M1       -0.0072
      7  O9       -23.2660   -2.7610   14.5660 O.2     1  34M1       -0.3146
      8  C10      -21.3910    0.2990   14.1490 C.ar    1  34M1        0.0772
      9  C11      -20.8700    0.7460   15.3700 C.ar    1  34M1        0.0142
     10  C13      -20.2360    1.9990   15.4360 C.ar    1  34M1        0.0376
     11  C15      -20.1890    2.8280   14.3000 C.ar    1  34M1        0.1388
     12  C16      -20.7500    2.3710   13.0800 C.ar    1  34M1        0.0376
     13  C18      -21.3850    1.1230   13.0090 C.ar    1  34M1        0.0142
     14  O20      -19.5310    4.0720   14.4280 O.3     1  34M1       -0.4714
     15  C21      -19.5260    5.0570   13.3690 C.3     1  34M1        0.2525
     16  C25      -24.8900   -4.5650   10.0290 C.ar    1  34M1        0.1973
     17  N26      -25.0700   -4.8720    8.7550 N.ar    1  34M1       -0.2724
     18  C27      -25.7690   -5.9780    8.7820 C.ar    1  34M1        0.1479
     19  N28      -25.9920   -6.4060    9.9520 N.ar    1  34M1       -0.1325
     20  N29      -25.3740   -5.4420   10.8030 N.ar    1  34M1       -0.1221
     21  C30      -26.2870   -6.7560    7.5960 C.3     1  34M1        0.0742
     22  C34      -24.6530   -4.1600    7.6690 C.ar    1  34M1        0.0671
     23  C35      -23.6900   -4.6820    6.7770 C.ar    1  34M1        0.0207
     24  C37      -23.2590   -3.9210    5.6810 C.ar    1  34M1        0.0384
     25  C39      -23.7880   -2.6340    5.4560 C.ar    1  34M1        0.1388
     26  C40      -24.7470   -2.1060    6.3580 C.ar    1  34M1        0.0384
     27  C42      -25.1940   -2.8800    7.4380 C.ar    1  34M1        0.0207
     28  O44      -23.2710   -1.9070    4.3830 O.3     1  34M1       -0.4714
     29  C45      -23.4980   -0.5030    4.1560 C.3     1  34M1        0.2525
@<TRIPOS>BOND
     1    29    28    1
     2    28    25    1
     3    25    24   ar
     4    25    26   ar
     5    24    23   ar
     6    26    27   ar
     7    23    22   ar
     8    27    22   ar
     9    21    18    1
    10    22    17    1
    11    17    18   ar
    12    17    16   ar
    13    18    19   ar
    14    19    20   ar
    15    16     1    1
    16    16    20   ar
    17     1     2    1
    18     2     3    1
    19     4     3    2
    20     4     5    2
    21    13    12   ar
    22    13     8   ar
    23    12    11   ar
    24     3     7    1
    25    15    14    1
    26     5     8    1
    27     5     6    2
    28     8     9   ar
    29    11    14    1
    30    11    10   ar
    31     7     6    1
    32     9    10   ar
