@<TRIPOS>MOLECULE
3ude_J1B_A_1.pdb
 43 48 0 0 0
SMALL
GASTEIGER

@<TRIPOS>ATOM
      1  C1         2.1560   17.0730   15.7060 C.3   171  J1B171      0.1630
      2  N1         2.7480   14.3730   13.5340 N.pl3 171  J1B171     -0.1439
      3  O1         2.2690   16.4330   14.4540 O.3   171  J1B171     -0.3153
      4  S1         4.1190   19.0610   15.4180 S.3   171  J1B171     -0.1384
      5  C2         3.1540   16.3270   16.5930 C.3   171  J1B171      0.2168
      6  N2         2.5910   13.1890   11.5770 N.2   171  J1B171     -0.2095
      7  O2         2.6830   16.2680   17.9090 O.3   171  J1B171     -0.2175
      8  C3         3.2080   14.8850   15.9590 C.3   171  J1B171      0.2569
      9  N3         4.8700   12.7700    9.7990 N.pl3 171  J1B171      0.2180
     10  O3         2.6590   13.9140   16.8240 O.3   171  J1B171     -0.2130
     11  C4         2.2900   15.0260   14.7410 C.3   171  J1B171      0.3185
     12  N4         6.1620   14.0480   11.3520 N.2   171  J1B171      0.0021
     13  C5         1.9170   13.6310   12.6450 C.3   171  J1B171      0.3377
     14  N5         5.1500   14.9910   13.3920 N.2   171  J1B171     -0.0055
     15  O5         9.5790   24.9290    7.1600 O.2   171  J1B171     -0.2052
     16  C6         3.8830   13.6540   11.7730 C.2   171  J1B171      0.2526
     17  N6         5.4960   20.1890   11.7420 N.3   171  J1B171     -0.2714
     18  C7         4.9980   13.4910   10.9700 C.2   171  J1B171      0.4393
     19  C8         6.1740   14.7540   12.5240 C.3   171  J1B171      0.5254
     20  N8         7.3980   28.1990    6.0620 N.2   171  J1B171     -0.2672
     21  C9         4.0050   14.3970   12.9690 C.2   171  J1B171      0.3518
     22  N9         9.0050   28.5030    4.4320 N.pl3 171  J1B171     -0.0220
     23  C10        2.4110   18.5620   15.6200 C.3   171  J1B171      0.0899
     24  N10        9.2590   26.6770    5.8570 N.2   171  J1B171     -0.2466
     25  C11        4.8350   18.3680   13.8940 C.3   171  J1B171      0.0505
     26  N11        7.1910   25.5390    8.6200 N.2   171  J1B171     -0.3844
     27  C12        3.9380   18.6910   12.7330 C.3   171  J1B171      0.0282
     28  N12        5.8160   27.8340    7.7450 N.2   171  J1B171     -0.2041
     29  C13        4.1350   20.1240   12.3150 C.3   171  J1B171      0.0730
     30  C14        6.4830   20.1520   12.8250 C.3   171  J1B171      0.0730
     31  C15        6.2770   18.8600   13.7010 C.3   171  J1B171      0.0282
     32  C16        5.5720   21.3040   10.7270 C.3   171  J1B171      0.0911
     33  C18        5.6640   24.9810   10.3360 C.3   171  J1B171      0.1447
     34  C19        8.5340   27.7730    5.4800 C.1   171  J1B171      0.2609
     35  C20        8.8470   25.8750    6.9230 C.1   171  J1B171      0.2569
     36  C21        6.0620   25.8520    9.1740 C.2   171  J1B171      0.1267
     37  C22        5.1910   27.0640    8.8300 C.3   171  J1B171      0.1385
     38  C23        4.9770   27.9920   10.0160 C.3   171  J1B171      0.0322
     39  C24        3.8200   26.6230    8.3350 C.3   171  J1B171      0.0322
     40  C25        6.9680   27.4290    7.1160 C.1   171  J1B171      0.1400
     41  C26        7.6420   26.3100    7.5580 C.2   171  J1B171      0.2988
     42  C27        5.8370   22.7200   11.2460 C.3   171  J1B171      0.1065
     43  N28        6.0270   23.5820   10.0880 N.3   171  J1B171     -0.2093
@<TRIPOS>BOND
     1    22    34    1
     2    34    24    2
     3    34    20    2
     4    24    35    2
     5    20    40    2
     6    35    15    2
     7    35    41    1
     8    40    41    1
     9    40    28    2
    10    41    26    2
    11    28    37    1
    12    39    37    1
    13    26    36    2
    14    37    36    1
    15    37    38    1
    16    36    33    1
    17     9    18    1
    18    43    33    1
    19    43    42    1
    20    32    42    1
    21    32    17    1
    22    18    12    2
    23    18    16    1
    24    12    19    1
    25     6    16    2
    26     6    13    1
    27    17    29    1
    28    17    30    1
    29    16    21    1
    30    29    27    1
    31    19    14    1
    32    13     2    1
    33    27    25    1
    34    30    31    1
    35    21    14    2
    36    21     2    1
    37     2    11    1
    38    31    25    1
    39    25     4    1
    40     3    11    1
    41     3     1    1
    42    11     8    1
    43     4    23    1
    44    23     1    1
    45     1     5    1
    46     8     5    1
    47     8    10    1
    48     5     7    1
