@<TRIPOS>MOLECULE
3udg_TMP_A_1.pdb
 21 22 0 0 0
SMALL
GASTEIGER

@<TRIPOS>ATOM
      1  P         24.4350  -22.5280   -1.1380 P.3   302  TMP302      0.5327
      2  O1P       23.3240  -21.7280   -1.8010 O.2   302  TMP302     -0.2224
      3  O2P       24.5510  -23.9560   -1.6190 O.3   302  TMP302     -0.1145
      4  O3P       24.4550  -22.4600    0.3720 O.3   302  TMP302     -0.1145
      5  O5'       25.8070  -21.8220   -1.6610 O.3   302  TMP302     -0.2675
      6  C5'       26.1430  -20.4550   -1.4020 C.3   302  TMP302      0.1858
      7  C4'       25.9060  -19.5430   -2.5990 C.3   302  TMP302      0.1774
      8  O4'       25.1270  -18.4030   -2.2110 O.3   302  TMP302     -0.3339
      9  C3'       27.2020  -18.9620   -3.1510 C.3   302  TMP302      0.1857
     10  O3'       27.5670  -19.6330   -4.3570 O.3   302  TMP302     -0.2203
     11  C2'       26.9460  -17.4900   -3.4410 C.3   302  TMP302      0.0874
     12  C1'       25.5090  -17.2480   -2.9840 C.3   302  TMP302      0.2090
     13  N1        25.3760  -15.9740   -2.2400 N.am  302  TMP302     -0.1794
     14  C2        24.6630  -14.8760   -2.8180 C.1   302  TMP302      0.2844
     15  O2        24.1330  -14.9750   -3.9540 O.2   302  TMP302     -0.1918
     16  N3        24.5380  -13.7080   -2.1560 N.2   302  TMP302     -0.2455
     17  C4        25.0730  -13.5340   -0.9330 C.1   302  TMP302      0.2134
     18  O4        24.9410  -12.4400   -0.3310 O.2   302  TMP302     -0.2088
     19  C5        25.8210  -14.6630   -0.3090 C.2   302  TMP302      0.0891
     20  C5M       26.4440  -14.5280    1.0500 C.3   302  TMP302      0.0462
     21  C6        25.9390  -15.8540   -1.0170 C.2   302  TMP302      0.0877
@<TRIPOS>BOND
     1    10     9    1
     2    15    14    2
     3    11     9    1
     4    11    12    1
     5     9     7    1
     6    12    13    1
     7    12     8    1
     8    14    13   am
     9    14    16    2
    10     7     8    1
    11     7     6    1
    12    13    21    1
    13    16    17    2
    14     2     1    2
    15     5     6    1
    16     5     1    1
    17     3     1    1
    18     1     4    1
    19    21    19    2
    20    17    18    2
    21    17    19    1
    22    19    20    1
