@<TRIPOS>MOLECULE
3udh_091_A_1.pdb
 14 16 0 0 0
SMALL
GASTEIGER

@<TRIPOS>ATOM
      1  C1        23.0870   36.3340   41.4120 C.3   501  091501      0.1422
      2  C2        24.4800   36.8450   41.2850 C.2   501  091501      0.0206
      3  C3        22.9810   36.1650   42.9120 C.1   501  091501      0.1834
      4  C4        22.0820   37.3700   40.9790 C.3   501  091501      0.0410
      5  C5        22.7770   35.0610   40.6520 C.3   501  091501      0.1094
      6  C6        25.0570   36.9900   42.5110 C.2   501  091501      0.1405
      7  C7        25.1800   37.1610   40.1580 C.2   501  091501     -0.0220
      8  N1        24.1670   36.5930   43.5030 N.2   501  091501     -0.3365
      9  O1        21.9260   35.8730   43.4650 O.2   501  091501     -0.2139
     10  C8        20.9440   36.6090   40.3350 C.3   501  091501      0.0903
     11  N2        21.5990   35.3980   39.7910 N.3   501  091501     -0.2165
     12  C9        26.3310   37.4800   42.6680 C.2   501  091501      0.0285
     13  C10       26.4660   37.6510   40.2870 C.3   501  091501      0.0519
     14  C11       27.0370   37.7960   41.5320 C.2   501  091501     -0.0188
@<TRIPOS>BOND
     1    11    10    1
     2    11     5    1
     3     7    13    1
     4     7     2    2
     5    13    14    1
     6    10     4    1
     7     5     1    1
     8     4     1    1
     9     2     1    1
    10     2     6    1
    11     1     3    1
    12    14    12    2
    13     6    12    1
    14     6     8    2
    15     3     9    2
    16     3     8    2
