@<TRIPOS>MOLECULE
3udi_PNM_A_1.pdb
 23 24 0 0 0
SMALL
GASTEIGER

@<TRIPOS>ATOM
      1  O8        35.7240    1.5260   10.1640 O.2   998  PNM998     -0.2863
      2  C7        36.5870    0.7670   10.5490 C.2   998  PNM998      0.2311
      3  N4        33.9690   -0.4920   10.6060 N.3   998  PNM998     -0.1957
      4  C3        32.9460   -1.4500   10.2120 C.3   998  PNM998      0.1857
      5  C11       32.9600   -1.5390    8.7060 C.2   998  PNM998      0.3811
      6  O13       33.9940   -1.6430    8.0610 O.co2 998  PNM998     -0.2441
      7  O12       31.9050   -1.4460    8.1310 O.co2 998  PNM998     -0.2441
      8  C2        32.9940   -2.7640   11.0370 C.3   998  PNM998      0.0658
      9  C10       31.6570   -2.9560   11.7530 C.3   998  PNM998      0.0129
     10  C9        33.3550   -4.0240   10.2370 C.3   998  PNM998      0.0129
     11  S1        34.3090   -2.3920   12.2740 S.3   998  PNM998     -0.1212
     12  C5        35.1610   -1.2190   11.1300 C.3   998  PNM998      0.1479
     13  C6        36.2630   -0.2590   11.6400 C.3   998  PNM998      0.1855
     14  N14       35.9100    0.3910   12.9250 N.am  998  PNM998     -0.1965
     15  C15       36.2080   -0.1500   14.1350 C.2   998  PNM998      0.2462
     16  O16       36.7990   -1.2100   14.2160 O.2   998  PNM998     -0.2730
     17  C17       35.7980    0.5480   15.4130 C.3   998  PNM998      0.1131
     18  C18       34.3170    0.4390   15.7530 C.ar  998  PNM998     -0.0130
     19  C19       33.8900    0.8600   17.0150 C.ar  998  PNM998     -0.0038
     20  C20       32.5370    0.8240   17.3680 C.ar  998  PNM998     -0.0003
     21  C21       31.5960    0.3450   16.4600 C.ar  998  PNM998     -0.0000
     22  C22       32.0070   -0.0830   15.2000 C.ar  998  PNM998     -0.0003
     23  C23       33.3560   -0.0290   14.8490 C.ar  998  PNM998     -0.0038
@<TRIPOS>BOND
     1     6     5   ar
     2     7     5   ar
     3     5     4    1
     4     1     2    2
     5     4     3    1
     6     4     8    1
     7    10     8    1
     8     2    13    1
     9     3    12    1
    10     8     9    1
    11     8    11    1
    12    12    13    1
    13    12    11    1
    14    13    14    1
    15    14    15   am
    16    15    16    2
    17    15    17    1
    18    23    22   ar
    19    23    18   ar
    20    22    21   ar
    21    17    18    1
    22    18    19   ar
    23    21    20   ar
    24    19    20   ar
