@<TRIPOS>MOLECULE
3udj_092_A_1.pdb
 18 20 0 0 0
SMALL
GASTEIGER

@<TRIPOS>ATOM
      1  C5        26.5680   37.9470   40.7340 C.3   401  092401      0.0519
      2  C8        27.1800   38.0940   41.9620 C.2   401  092401     -0.0188
      3  C3        25.2530   37.5350   40.6460 C.2   401  092401     -0.0220
      4  C6        26.4810   37.8640   43.1210 C.2   401  092401      0.0285
      5  C1        24.5560   37.3140   41.8080 C.2   401  092401      0.0207
      6  C17       25.1750   37.4580   43.0100 C.2   401  092401      0.1405
      7  C14       23.0870   36.6850   43.5070 C.1   401  092401      0.1834
      8  C9        19.8920   36.6300   41.9450 C.2   401  092401      0.3331
      9  C4        22.0930   37.8460   41.5830 C.3   401  092401      0.0509
     10  C13       22.9010   35.5610   41.2460 C.3   401  092401      0.1099
     11  C7        20.9790   37.0180   40.9760 C.3   401  092401      0.1729
     12  C2        23.1530   36.8500   42.0050 C.3   401  092401      0.1427
     13  C18       18.4560   37.1840   43.5940 C.3   401  092401      0.2556
     14  N16       24.2900   37.1190   44.0420 N.2   401  092401     -0.3365
     15  N10       21.6360   35.7770   40.4760 N.3   401  092401     -0.2069
     16  O15       22.0830   36.3650   44.1350 O.2   401  092401     -0.2139
     17  O12       19.4620   35.4960   42.0550 O.2   401  092401     -0.2486
     18  O11       19.3960   37.6790   42.6440 O.3   401  092401     -0.4434
@<TRIPOS>BOND
     1    15    11    1
     2    15    10    1
     3     3     1    1
     4     3     5    2
     5     1     2    1
     6    11     9    1
     7    11     8    1
     8    10    12    1
     9     9    12    1
    10     5    12    1
    11     5     6    1
    12     8    17    2
    13     8    18    1
    14     2     4    2
    15    12     7    1
    16    18    13    1
    17     6     4    1
    18     6    14    2
    19     7    14    2
    20     7    16    2
