@<TRIPOS>MOLECULE
3udk_095_A_1.pdb
 23 26 0 0 0
SMALL
GASTEIGER

@<TRIPOS>ATOM
      1  C5        26.8760   37.9950   40.9650 C.3   501  095501      0.0519
      2  C8        27.4780   38.0510   42.2090 C.2   501  095501     -0.0188
      3  C3        25.5360   37.6950   40.8370 C.2   501  095501     -0.0220
      4  C6        26.7630   37.7800   43.3560 C.2   501  095501      0.0285
      5  C1        24.8250   37.4520   41.9860 C.2   501  095501      0.0207
      6  C17       25.4340   37.4770   43.2070 C.2   501  095501      0.1405
      7  C14       23.2860   36.9370   43.6350 C.1   501  095501      0.1834
      8  C9        20.3220   37.0550   42.3300 C.2   501  095501      0.3328
      9  C19       19.8720   34.0330   44.1600 C.3   501  095501      0.0757
     10  C23       17.9890   35.5760   43.3720 C.3   501  095501      0.0757
     11  C4        22.4300   38.1000   41.6450 C.3   501  095501      0.0509
     12  C13       23.0970   35.7660   41.4430 C.3   501  095501      0.1099
     13  C20       18.7550   33.1650   44.7010 C.3   501  095501      0.1459
     14  C22       17.1130   34.6190   44.1460 C.3   501  095501      0.1459
     15  C7        21.2490   37.3000   41.1690 C.3   501  095501      0.1729
     16  C18       19.4500   35.4400   43.7570 C.3   501  095501      0.1739
     17  C2        23.4080   37.0720   42.1390 C.3   501  095501      0.1427
     18  N16       24.5160   37.1880   44.2130 N.2   501  095501     -0.3365
     19  N10       21.8420   36.0220   40.6960 N.3   501  095501     -0.2069
     20  O15       22.2450   36.6700   44.2160 O.2   501  095501     -0.2139
     21  O12       19.7650   37.9340   42.9680 O.2   501  095501     -0.2486
     22  O21       17.5910   33.3060   43.9050 O.3   501  095501     -0.3535
     23  O11       20.2140   35.7220   42.5890 O.3   501  095501     -0.4512
@<TRIPOS>BOND
     1    19    15    1
     2    19    12    1
     3     3     1    1
     4     3     5    2
     5     1     2    1
     6    15    11    1
     7    15     8    1
     8    12    17    1
     9    11    17    1
    10     5    17    1
    11     5     6    1
    12    17     7    1
    13     2     4    2
    14     8    23    1
    15     8    21    2
    16    23    16    1
    17     6     4    1
    18     6    18    2
    19    10    16    1
    20    10    14    1
    21     7    18    2
    22     7    20    2
    23    16     9    1
    24    22    14    1
    25    22    13    1
    26     9    13    1
