@<TRIPOS>MOLECULE
3udl_KLI_A_1.pdb
 43 48 0 0 0
SMALL
GASTEIGER

@<TRIPOS>ATOM
      1  N01       18.8790   26.7580   23.4360 N.ar  571  KLI571     -0.3210
      2  N02       20.2060   23.4390   25.7340 N.2   571  KLI571     -0.3122
      3  N03       18.9180   21.9870   24.5150 N.2   571  KLI571     -0.0071
      4  N04       15.3500   29.1550   20.8910 N.pl3 571  KLI571     -0.3029
      5  N05       14.2850   31.3440   19.8080 N.3   571  KLI571     -0.2686
      6  C06       15.0920   26.8010   21.5290 C.ar  571  KLI571      0.1535
      7  C07       15.8550   27.9950   21.5290 C.ar  571  KLI571      0.0772
      8  C08       17.1190   27.9780   22.1650 C.ar  571  KLI571      0.0341
      9  C09       17.6190   26.8080   22.7970 C.ar  571  KLI571      0.0647
     10  C10       16.8350   25.6240   22.7790 C.ar  571  KLI571      0.0578
     11  C11       15.5770   25.6360   22.1420 C.ar  571  KLI571      0.0356
     12  C12       19.3160   25.5870   24.0450 C.ar  571  KLI571      0.0906
     13  C13       18.6520   24.4110   24.0820 C.ar  571  KLI571      0.1330
     14  C14       17.3160   24.3620   23.4270 C.ar  571  KLI571      0.2089
     15  C15       19.2580   23.2470   24.7730 C.1   571  KLI571      0.1314
     16  C16       20.4680   22.1780   26.0810 C.2   571  KLI571      0.2981
     17  C17       19.7100   27.9660   23.4990 C.3   571  KLI571      0.1350
     18  C18       19.1670   28.8320   24.6270 C.ar  571  KLI571      0.0278
     19  C19       18.6320   30.1170   24.3820 C.ar  571  KLI571     -0.0002
     20  C20       18.1210   30.8880   25.4500 C.ar  571  KLI571      0.0037
     21  C21       18.1290   30.3760   26.7660 C.ar  571  KLI571      0.0736
     22  C22       18.6500   29.0890   27.0030 C.ar  571  KLI571      0.0332
     23  C23       19.1620   28.3210   25.9460 C.ar  571  KLI571      0.1379
     24  C24       17.5770   31.1810   27.9340 C.3   571  KLI571      0.4186
     25  C25       15.3720   29.1680   19.4210 C.3   571  KLI571      0.1082
     26  C26       14.9310   30.5100   18.7930 C.3   571  KLI571      0.0938
     27  C27       15.3060   31.6810   20.8020 C.3   571  KLI571      0.0938
     28  C28       15.8190   30.4050   21.5060 C.3   571  KLI571      0.1082
     29  C29       13.8060   32.5720   19.1780 C.3   571  KLI571      0.0897
     30  C30       21.4380   21.7330   27.1250 C.3   571  KLI571      0.1288
     31  C31       20.9690   22.2530   28.4730 C.ar  571  KLI571     -0.0117
     32  C32       21.2910   23.5710   28.8660 C.ar  571  KLI571     -0.0037
     33  C33       20.8540   24.0680   30.1110 C.ar  571  KLI571     -0.0003
     34  C34       20.0900   23.2470   30.9620 C.ar  571  KLI571     -0.0000
     35  C35       19.7600   21.9330   30.5730 C.ar  571  KLI571     -0.0003
     36  C36       20.1960   21.4380   29.3270 C.ar  571  KLI571     -0.0037
     37  O37       16.6270   23.3320   23.4120 O.2   571  KLI571     -0.2857
     38  O38       19.7310   21.2590   25.4000 O.2   571  KLI571     -0.3152
     39  F39       16.2820   30.8960   28.0770 F     571  KLI571     -0.1659
     40  F40       17.7040   32.4960   27.7330 F     571  KLI571     -0.1659
     41  F41       18.2010   30.8520   29.0690 F     571  KLI571     -0.1659
     42  F42       19.6560   27.0880   26.2200 F     571  KLI571     -0.2044
     43  F43       13.8780   26.7540   20.9260 F     571  KLI571     -0.2029
@<TRIPOS>BOND
     1    26    25    1
     2    26     5    1
     3    29     5    1
     4    25     4    1
     5     5    27    1
     6    27    28    1
     7     4    28    1
     8     4     7    1
     9    43     6    1
    10     6     7   ar
    11     6    11   ar
    12     7     8   ar
    13    11    10   ar
    14     8     9   ar
    15    10     9   ar
    16    10    14   ar
    17     9     1   ar
    18    37    14    2
    19    14    13   ar
    20     1    17    1
    21     1    12   ar
    22    17    18    1
    23    12    13   ar
    24    13    15    1
    25    19    18   ar
    26    19    20   ar
    27     3    15    2
    28     3    38    1
    29    18    23   ar
    30    15     2    2
    31    38    16    1
    32    20    21   ar
    33     2    16    2
    34    23    42    1
    35    23    22   ar
    36    16    30    1
    37    21    22   ar
    38    21    24    1
    39    30    31    1
    40    40    24    1
    41    24    39    1
    42    24    41    1
    43    31    32   ar
    44    31    36   ar
    45    32    33   ar
    46    36    35   ar
    47    33    34   ar
    48    35    34   ar
