@<TRIPOS>MOLECULE
3udm_09A_A_1.pdb
 24 27 0 0 0
SMALL
GASTEIGER

@<TRIPOS>ATOM
      1  C22       16.8290   41.7660   43.1790 C.ar  501  09A501     -0.0000
      2  C5        26.5550   37.4100   40.1960 C.3   501  09A501      0.0519
      3  C21       17.3590   41.0580   44.2530 C.ar  501  09A501     -0.0002
      4  C23       16.6240   41.1110   41.9540 C.ar  501  09A501     -0.0002
      5  C8        27.0940   37.5700   41.4730 C.2   501  09A501     -0.0188
      6  C3        25.2340   36.9890   40.0620 C.2   501  09A501     -0.0220
      7  C20       17.7450   39.7210   44.0880 C.ar  501  09A501     -0.0007
      8  C24       16.9880   39.7670   41.7980 C.ar  501  09A501     -0.0007
      9  C6        26.3380   37.3120   42.5990 C.2   501  09A501      0.0285
     10  C1        24.4650   36.7690   41.1950 C.2   501  09A501      0.0207
     11  C19       17.5490   39.0570   42.8720 C.ar  501  09A501      0.0213
     12  C17       25.0190   36.9060   42.4660 C.2   501  09A501      0.1405
     13  C14       23.0040   36.1210   42.7310 C.1   501  09A501      0.1834
     14  C9        19.8050   36.4910   41.2360 C.2   501  09A501      0.3333
     15  C4        22.0600   37.4630   40.9000 C.3   501  09A501      0.0509
     16  C13       22.7270   35.1310   40.4290 C.3   501  09A501      0.1099
     17  C7        20.9150   36.7330   40.2390 C.3   501  09A501      0.1729
     18  C2        23.0460   36.3690   41.2550 C.3   501  09A501      0.1427
     19  C18       18.0070   37.6090   42.6950 C.3   501  09A501      0.2351
     20  N16       24.0630   36.6240   43.3840 N.2   501  09A501     -0.3365
     21  N10       21.5010   35.4910   39.7780 N.3   501  09A501     -0.2069
     22  O15       21.8840   36.1080   43.3340 O.2   501  09A501     -0.2139
     23  O12       19.3780   35.3660   41.4160 O.2   501  09A501     -0.2485
     24  O11       19.1120   37.6330   41.7830 O.3   501  09A501     -0.4425
@<TRIPOS>BOND
     1    21    17    1
     2    21    16    1
     3     6     2    1
     4     6    10    2
     5     2     5    1
     6    17    15    1
     7    17    14    1
     8    16    18    1
     9    15    18    1
    10    10    18    1
    11    10    12    1
    12    14    23    2
    13    14    24    1
    14    18    13    1
    15     5     9    2
    16    24    19    1
    17     8     4   ar
    18     8    11   ar
    19     4     1   ar
    20    12     9    1
    21    12    20    2
    22    19    11    1
    23    13    22    2
    24    13    20    2
    25    11     7   ar
    26     1     3   ar
    27     7     3   ar
