@<TRIPOS>MOLECULE
3udn_09B_A_1.pdb
 26 29 0 0 0
SMALL
GASTEIGER

@<TRIPOS>ATOM
      1  C4        16.8260   42.3710   44.1840 C.1   401  09B401      0.1004
      2  C13       26.3510   37.1110   39.9060 C.3   401  09B401      0.0519
      3  C14       26.9520   37.2090   41.1520 C.2   401  09B401     -0.0188
      4  C2        17.0520   40.8010   42.3300 C.ar  401  09B401      0.0101
      5  C3        17.3730   40.1040   44.6080 C.ar  401  09B401      0.0101
      6  C12       25.0090   36.8120   39.7890 C.2   401  09B401     -0.0220
      7  C5        17.3300   39.5070   41.9110 C.ar  401  09B401      0.0000
      8  C6        17.6430   38.8220   44.1930 C.ar  401  09B401      0.0000
      9  C15       26.2310   36.9790   42.3050 C.2   401  09B401      0.0285
     10  C1        17.0890   41.0830   43.6860 C.ar  401  09B401      0.0684
     11  C11       24.3050   36.5920   40.9540 C.2   401  09B401      0.0207
     12  C8        17.6190   38.5250   42.8500 C.ar  401  09B401      0.0213
     13  C10       24.9000   36.6690   42.1740 C.2   401  09B401      0.1405
     14  C18       22.7700   36.0650   42.6110 C.1   401  09B401      0.1834
     15  C24       19.6010   36.2810   41.0590 C.2   401  09B401      0.3333
     16  C21       21.9480   37.3250   40.6960 C.3   401  09B401      0.0509
     17  C20       22.5530   34.9610   40.3800 C.3   401  09B401      0.1099
     18  C22       20.7550   36.5770   40.1320 C.3   401  09B401      0.1729
     19  C16       22.8910   36.2340   41.1150 C.3   401  09B401      0.1427
     20  C9        17.9330   37.1350   42.4230 C.3   401  09B401      0.2351
     21  N7        16.5770   43.4230   44.5940 N.1   401  09B401     -0.1908
     22  N17       23.9750   36.3850   43.1770 N.2   401  09B401     -0.3365
     23  N19       21.2730   35.2620   39.6860 N.3   401  09B401     -0.2069
     24  O23       21.7500   35.7170   43.1920 O.2   401  09B401     -0.2139
     25  O25       19.1750   35.1550   41.2350 O.2   401  09B401     -0.2485
     26  O26       19.0900   37.3760   41.6270 O.3   401  09B401     -0.4425
@<TRIPOS>BOND
     1    23    18    1
     2    23    17    1
     3     6     2    1
     4     6    11    2
     5     2     3    1
     6    18    16    1
     7    18    15    1
     8    17    19    1
     9    16    19    1
    10    11    19    1
    11    11    13    1
    12    15    25    2
    13    15    26    1
    14    19    14    1
    15     3     9    2
    16    26    20    1
    17     7     4   ar
    18     7    12   ar
    19    13     9    1
    20    13    22    2
    21     4    10   ar
    22    20    12    1
    23    14    22    2
    24    14    24    2
    25    12     8   ar
    26    10     1    1
    27    10     5   ar
    28     1    21    3
    29     8     5   ar
