@<TRIPOS>MOLECULE
3udp_09D_A_1.pdb
 28 32 0 0 0
SMALL
GASTEIGER

@<TRIPOS>ATOM
      1  C1        26.3070   37.6460   40.0520 C.3   501  09D501      0.0519
      2  C2        26.8700   37.7740   41.3100 C.2   501  09D501     -0.0188
      3  C3        25.0310   37.1400   39.9050 C.2   501  09D501     -0.0220
      4  C4        26.1700   37.3990   42.4430 C.2   501  09D501      0.0285
      5  C5        17.0550   39.3990   45.0130 C.ar  501  09D501      0.0065
      6  C6        16.7770   40.3370   44.0390 C.ar  501  09D501      0.0072
      7  C7        17.5240   38.7800   42.3940 C.ar  501  09D501      0.0064
      8  C8        24.3350   36.7850   41.0390 C.2   501  09D501      0.0207
      9  C9        17.7910   37.8370   43.3600 C.ar  501  09D501      0.0235
     10  C10       24.8940   36.9250   42.2720 C.2   501  09D501      0.1405
     11  C11       17.5600   38.1490   44.6920 C.ar  501  09D501      0.0246
     12  C12       17.0120   40.0110   42.7220 C.ar  501  09D501      0.0344
     13  C13       22.8520   36.0300   42.6510 C.1   501  09D501      0.1834
     14  C14       19.7640   35.9780   41.0520 C.2   501  09D501      0.3332
     15  C15       18.9590   35.7260   43.9620 C.3   501  09D501      0.0603
     16  C16       21.8790   37.2890   40.8660 C.3   501  09D501      0.0509
     17  C17       22.6990   35.0290   40.3870 C.3   501  09D501      0.1099
     18  C18       17.9220   35.4870   45.0380 C.3   501  09D501      0.0663
     19  C19       18.3570   36.5430   42.8420 C.3   501  09D501      0.1925
     20  C20       20.8170   36.5110   40.1290 C.3   501  09D501      0.1729
     21  C21       22.9530   36.2800   41.1750 C.3   501  09D501      0.1427
     22  N22       24.0060   36.4810   43.2470 N.2   501  09D501     -0.3365
     23  N23       21.5520   35.3660   39.5350 N.3   501  09D501     -0.2069
     24  O24       21.8650   35.5650   43.1960 O.2   501  09D501     -0.2139
     25  O25       19.3100   34.8470   40.9720 O.2   501  09D501     -0.2485
     26  O26       19.4130   36.9230   41.9530 O.3   501  09D501     -0.4467
     27  S27       17.8530   36.9970   46.0290 S.3   501  09D501     -0.1137
     28 BR2        16.6780   41.2460   41.3160 Br    501  09D501     -0.0490
@<TRIPOS>BOND
     1    23    20    1
     2    23    17    1
     3     3     1    1
     4     3     8    2
     5     1     2    1
     6    20    16    1
     7    20    14    1
     8    17    21    1
     9    16    21    1
    10    25    14    2
    11     8    21    1
    12     8    10    1
    13    14    26    1
    14    21    13    1
    15     2     4    2
    16    28    12    1
    17    26    19    1
    18    10     4    1
    19    10    22    2
    20     7    12   ar
    21     7     9   ar
    22    13    24    2
    23    13    22    2
    24    12     6   ar
    25    19     9    1
    26    19    15    1
    27     9    11   ar
    28    15    18    1
    29     6     5   ar
    30    11     5   ar
    31    11    27    1
    32    18    27    1
