@<TRIPOS>MOLECULE
3udq_09E_A_1.pdb
 30 34 0 0 0
SMALL
GASTEIGER

@<TRIPOS>ATOM
      1  C1        24.3670   37.4750   41.4680 C.2   4000  09E4000     0.0207
      2  C2        22.9980   36.9410   41.8140 C.3   4000  09E4000     0.1427
      3  C3        24.9240   37.8430   40.2350 C.2   4000  09E4000    -0.0220
      4  C4        21.8760   37.9320   41.4500 C.3   4000  09E4000     0.0509
      5  C5        26.2620   38.2890   40.2370 C.3   4000  09E4000     0.0519
      6  C6        26.4660   38.0000   42.6660 C.2   4000  09E4000     0.0285
      7  C7        20.8790   37.0920   40.6400 C.3   4000  09E4000     0.1729
      8  C8        27.0260   38.3350   41.4180 C.2   4000  09E4000    -0.0188
      9  C9        19.7090   36.5690   41.5090 C.2   4000  09E4000     0.3332
     10  N1        21.6010   35.8980   40.1160 N.3   4000  09E4000    -0.2069
     11  O1        19.1400   35.4790   41.4360 O.2   4000  09E4000    -0.2485
     12  C10       22.6360   35.5840   41.1250 C.3   4000  09E4000     0.1099
     13  C11       23.0890   36.7320   43.3520 C.1   4000  09E4000     0.1834
     14  O2        22.2250   36.3400   44.1200 O.2   4000  09E4000    -0.2139
     15  N2        24.3660   37.1350   43.7750 N.2   4000  09E4000    -0.3365
     16  C12       25.1380   37.5710   42.6740 C.2   4000  09E4000     0.1405
     17  C13       18.2430   37.2200   43.2990 C.3   4000  09E4000     0.1941
     18  C14       18.8670   36.3770   44.4610 C.3   4000  09E4000     0.0741
     19  O3        19.3020   37.5150   42.4110 O.3   4000  09E4000    -0.4466
     20  C15       17.8140   36.1880   45.5430 C.3   4000  09E4000     0.1600
     21  S1        17.5350   37.6430   46.3770 S.O2  4000  09E4000     0.0086
     22  C16       17.3980   38.8030   45.1300 C.ar  4000  09E4000     0.1050
     23  C17       17.6980   38.5690   43.7420 C.ar  4000  09E4000     0.0349
     24  C18       17.4980   39.5700   42.7630 C.ar  4000  09E4000     0.0072
     25  C19       17.0010   40.7980   43.1610 C.ar  4000  09E4000     0.0344
     26  C20       16.6950   41.0910   44.5120 C.ar  4000  09E4000     0.0080
     27  C21       16.8740   40.0980   45.4850 C.ar  4000  09E4000     0.0186
     28 BR1        16.7100   42.1160   41.8080 Br    4000  09E4000    -0.0490
     29  O4        16.2540   37.5430   46.9760 O.2   4000  09E4000    -0.1686
     30  O5        18.6700   37.8890   47.1990 O.2   4000  09E4000    -0.1686
@<TRIPOS>BOND
     1    10     7    1
     2    10    12    1
     3     3     5    1
     4     3     1    2
     5     5     8    1
     6     7     4    1
     7     7     9    1
     8    12     2    1
     9     8     6    2
    10    11     9    2
    11     4     2    1
    12     1     2    1
    13     1    16    1
    14     9    19    1
    15    28    25    1
    16     2    13    1
    17    19    17    1
    18     6    16    1
    19    16    15    2
    20    24    25   ar
    21    24    23   ar
    22    25    26   ar
    23    17    23    1
    24    17    18    1
    25    13    15    2
    26    13    14    2
    27    23    22   ar
    28    18    20    1
    29    26    27   ar
    30    22    27   ar
    31    22    21    1
    32    20    21    1
    33    21    29    2
    34    21    30    2
