@<TRIPOS>MOLECULE
3udr_09F_A_1.pdb
 25 28 0 0 0
SMALL
GASTEIGER

@<TRIPOS>ATOM
      1  C24       18.9520   35.7220   44.0700 C.1   501  09F501      0.1120
      2  C5        26.4590   37.3340   40.2500 C.3   501  09F501      0.0519
      3  C8        27.0140   37.4920   41.5090 C.2   501  09F501     -0.0188
      4  C3        25.1400   36.9470   40.1040 C.2   501  09F501     -0.0220
      5  C6        26.2860   37.2380   42.6470 C.2   501  09F501      0.0285
      6  C1        24.4040   36.7220   41.2430 C.2   501  09F501      0.0207
      7  C17       24.9800   36.8650   42.4760 C.2   501  09F501      0.1405
      8  C14       22.8550   36.2630   42.8980 C.1   501  09F501      0.1834
      9  C9        19.8280   36.5230   41.5710 C.2   501  09F501      0.3337
     10  C21       16.6880   32.9840   43.8880 C.3   501  09F501      0.0003
     11  C20       18.1270   32.8880   44.3350 C.3   501  09F501      0.0047
     12  C22       16.3240   34.3930   43.5000 C.3   501  09F501      0.0047
     13  C19       19.0430   33.4470   43.2650 C.3   501  09F501      0.0549
     14  C23       17.2640   34.9710   42.4650 C.3   501  09F501      0.0549
     15  C4        22.0230   37.4260   40.9120 C.3   501  09F501      0.0509
     16  C13       22.5960   35.0740   40.6400 C.3   501  09F501      0.1099
     17  C7        20.7970   36.6940   40.4220 C.3   501  09F501      0.1729
     18  C18       18.7100   34.8800   42.9040 C.3   501  09F501      0.2127
     19  C2        22.9760   36.3520   41.3810 C.3   501  09F501      0.1427
     20  N25       19.1480   36.3740   45.0110 N.1   501  09F501     -0.1923
     21  N16       24.0700   36.5880   43.4650 N.2   501  09F501     -0.3365
     22  N10       21.3330   35.3910   39.9090 N.3   501  09F501     -0.2069
     23  O15       21.8390   35.9830   43.5300 O.2   501  09F501     -0.2139
     24  O12       19.2240   37.4530   42.1000 O.2   501  09F501     -0.2485
     25  O11       19.5900   35.2060   41.7890 O.3   501  09F501     -0.4404
@<TRIPOS>BOND
     1    22    17    1
     2    22    16    1
     3     4     2    1
     4     4     6    2
     5     2     3    1
     6    17    15    1
     7    17     9    1
     8    16    19    1
     9    15    19    1
    10     6    19    1
    11     6     7    1
    12    19     8    1
    13     3     5    2
    14     9    25    1
    15     9    24    2
    16    25    18    1
    17    14    18    1
    18    14    12    1
    19     7     5    1
    20     7    21    2
    21     8    21    2
    22     8    23    2
    23    18    13    1
    24    18     1    1
    25    13    11    1
    26    12    10    1
    27    10    11    1
    28     1    20    3
