@<TRIPOS>MOLECULE
3uds_ADP_A_1.pdb
 27 29 0 0 0
SMALL
GASTEIGER

@<TRIPOS>ATOM
      1  PB        18.2840    5.0450  -41.1390 P.3   600  ADP600      0.5373
      2  O1B       19.1150    6.1400  -40.5020 O.3   600  ADP600     -0.1143
      3  O2B       18.7430    3.6520  -40.7600 O.3   600  ADP600     -0.1143
      4  O3B       16.7990    5.2700  -41.0230 O.2   600  ADP600     -0.2221
      5  PA        19.8770    4.6810  -43.5040 P.3   600  ADP600      0.2231
      6  O1A       20.5320    3.5080  -42.8140 O.3   600  ADP600     -0.4370
      7  O2A       20.6900    5.9160  -43.7760 O.2   600  ADP600     -0.5169
      8  O3A       18.5020    5.0810  -42.7510 O.3   600  ADP600     -0.2261
      9  O5'       19.3120    4.1890  -44.9090 O.3   600  ADP600     -0.3111
     10  C5'       18.3430    3.1640  -44.9620 C.3   600  ADP600      0.1813
     11  C4'       18.8570    2.1580  -45.9850 C.3   600  ADP600      0.1821
     12  O4'       18.9110    2.7430  -47.2830 O.3   600  ADP600     -0.3135
     13  C3'       20.2890    1.7380  -45.7210 C.3   600  ADP600      0.2184
     14  O3'       20.4100    0.6930  -44.7630 O.3   600  ADP600     -0.2174
     15  C2'       20.7480    1.2830  -47.0800 C.3   600  ADP600      0.2570
     16  O2'       20.2930   -0.0500  -47.3100 O.3   600  ADP600     -0.2130
     17  C1'       20.0440    2.2570  -47.9940 C.3   600  ADP600      0.3186
     18  N9        21.0330    3.3360  -48.1610 N.pl3 600  ADP600     -0.1439
     19  C8        21.3460    4.2490  -47.2220 C.3   600  ADP600      0.3377
     20  N7        22.3180    5.0840  -47.6620 N.2   600  ADP600     -0.2095
     21  C5        22.6520    4.7090  -48.9200 C.2   600  ADP600      0.2526
     22  C6        23.6130    5.1690  -49.9710 C.2   600  ADP600      0.4393
     23  N6        24.4250    6.2360  -49.7500 N.pl3 600  ADP600      0.2180
     24  N1        23.6540    4.4980  -51.1480 N.2   600  ADP600      0.0021
     25  C2        22.8490    3.4440  -51.3710 C.3   600  ADP600      0.5254
     26  N3        21.9530    2.9690  -50.4740 N.2   600  ADP600     -0.0055
     27  C4        21.8060    3.5430  -49.2420 C.2   600  ADP600      0.3518
@<TRIPOS>BOND
     1    25    24    1
     2    25    26    1
     3    24    22    2
     4    26    27    2
     5    22    23    1
     6    22    21    1
     7    27    21    1
     8    27    18    1
     9    21    20    2
    10    18    17    1
    11    18    19    1
    12    17    12    1
    13    17    15    1
    14    20    19    1
    15    16    15    1
    16    12    11    1
    17    15    13    1
    18    11    13    1
    19    11    10    1
    20    13    14    1
    21    10     9    1
    22     9     5    1
    23     7     5    2
    24     5     6    1
    25     5     8    1
    26     8     1    1
    27     1     4    2
    28     1     3    1
    29     1     2    1
