@<TRIPOS>MOLECULE
3udt_ADP_A_1.pdb
 27 29 0 0 0
SMALL
GASTEIGER

@<TRIPOS>ATOM
      1  PB       -39.5370    1.0250  -10.4880 P.3   912  ADP912      0.5373
      2  O1B      -38.8030   -0.2900  -10.3430 O.2   912  ADP912     -0.2221
      3  O2B      -38.8410    2.1520   -9.7280 O.3   912  ADP912     -0.1143
      4  O3B      -41.0500    0.9490  -10.2680 O.3   912  ADP912     -0.1143
      5  PA       -39.6590    2.8130  -12.7760 P.3   912  ADP912      0.2231
      6  O1A      -41.1130    2.9470  -13.1690 O.2   912  ADP912     -0.5169
      7  O2A      -38.9670    3.9070  -11.9740 O.3   912  ADP912     -0.4370
      8  O3A      -39.3660    1.3700  -12.0720 O.3   912  ADP912     -0.2261
      9  O5'      -38.8520    2.6860  -14.1690 O.3   912  ADP912     -0.3111
     10  C5'      -37.6450    1.9400  -14.3110 C.3   912  ADP912      0.1813
     11  C4'      -36.8150    2.7280  -15.3100 C.3   912  ADP912      0.1821
     12  O4'      -37.3300    2.4930  -16.6210 O.3   912  ADP912     -0.3135
     13  C3'      -36.9410    4.2360  -15.0980 C.3   912  ADP912      0.2184
     14  O3'      -35.9390    4.7670  -14.2300 O.3   912  ADP912     -0.2174
     15  C2'      -36.8980    4.8460  -16.4960 C.3   912  ADP912      0.2570
     16  O2'      -35.6000    5.2380  -16.9640 O.3   912  ADP912     -0.2130
     17  C1'      -37.3930    3.7170  -17.3730 C.3   912  ADP912      0.3186
     18  N9       -38.7910    4.0980  -17.6840 N.pl3 912  ADP912     -0.1439
     19  C8       -39.9190    3.7390  -17.0230 C.3   912  ADP912      0.3377
     20  N7       -41.0200    4.2960  -17.5930 N.2   912  ADP912     -0.2095
     21  C5       -40.5820    5.0360  -18.6390 C.2   912  ADP912      0.2526
     22  C6       -41.1960    5.9000  -19.6720 C.2   912  ADP912      0.4393
     23  N6       -42.5370    6.0820  -19.7110 N.pl3 912  ADP912      0.2180
     24  N1       -40.3780    6.4980  -20.5690 N.2   912  ADP912      0.0021
     25  C2       -39.0390    6.3240  -20.5460 C.3   912  ADP912      0.5254
     26  N3       -38.4030    5.5600  -19.6420 N.2   912  ADP912     -0.0055
     27  C4       -39.1150    4.9070  -18.6870 C.2   912  ADP912      0.3518
@<TRIPOS>BOND
     1    24    25    1
     2    24    22    2
     3    25    26    1
     4    23    22    1
     5    22    21    1
     6    26    27    2
     7    27    21    1
     8    27    18    1
     9    21    20    2
    10    18    17    1
    11    18    19    1
    12    20    19    1
    13    17    12    1
    14    17    15    1
    15    16    15    1
    16    12    11    1
    17    15    13    1
    18    11    13    1
    19    11    10    1
    20    13    14    1
    21    10     9    1
    22     9     5    1
    23     6     5    2
    24     5     8    1
    25     5     7    1
    26     8     1    1
    27     1     2    2
    28     1     4    1
    29     1     3    1
