@<TRIPOS>MOLECULE
3udt_5MY_A_1.pdb
 32 32 0 0 0
SMALL
GASTEIGER

@<TRIPOS>ATOM
      1  O31      -32.1400    1.8870   -4.1840 O.3   911  5MY911     -0.1145
      2  P1       -33.2020    1.8260   -5.2700 P.3   911  5MY911      0.5327
      3  O21      -33.9380    0.4510   -5.1160 O.3   911  5MY911     -0.1145
      4  O41      -32.6300    2.0650   -6.6680 O.2   911  5MY911     -0.2224
      5  O11      -34.2990    2.9070   -4.9700 O.3   911  5MY911     -0.2674
      6  C1       -35.1950    2.7190   -3.9210 C.3   911  5MY911      0.1890
      7  C2       -36.5260    2.1810   -4.3940 C.3   911  5MY911      0.2119
      8  O12      -37.0430    2.9040   -5.4710 O.3   911  5MY911     -0.2177
      9  C3       -37.4880    2.0870   -3.2330 C.3   911  5MY911      0.1890
     10  O13      -38.7640    1.8030   -3.6860 O.3   911  5MY911     -0.2674
     11  P3       -39.1050    0.3280   -4.0430 P.3   911  5MY911      0.5327
     12  O23      -40.5730    0.1140   -3.5520 O.3   911  5MY911     -0.1145
     13  O33      -39.0800    0.2240   -5.5570 O.2   911  5MY911     -0.2224
     14  O43      -38.1250   -0.6400   -3.3970 O.3   911  5MY911     -0.1145
     15  C6       -35.2230    3.9270   -3.0290 C.3   911  5MY911      0.1864
     16  O16      -33.9410    4.0710   -2.4920 O.3   911  5MY911     -0.2675
     17  P6       -32.9970    5.2950   -2.7440 P.3   911  5MY911      0.5327
     18  O26      -31.6550    4.7570   -3.3210 O.3   911  5MY911     -0.1145
     19  O36      -33.5940    6.2150   -3.7870 O.2   911  5MY911     -0.2224
     20  O46      -32.7090    6.0490   -1.4740 O.3   911  5MY911     -0.1145
     21  C5       -36.1940    3.7260   -1.8930 C.3   911  5MY911      0.1863
     22  O15      -36.3360    4.9140   -1.2060 O.3   911  5MY911     -0.2675
     23  P5       -35.7540    5.1460    0.2240 P.3   911  5MY911      0.5327
     24  O25      -35.9320    6.6400    0.4050 O.3   911  5MY911     -0.1145
     25  O35      -34.2230    4.8220    0.2190 O.2   911  5MY911     -0.2224
     26  O45      -36.4540    4.3360    1.3080 O.3   911  5MY911     -0.1145
     27  C4       -37.5650    3.2780   -2.3370 C.3   911  5MY911      0.1864
     28  O14      -38.3740    2.9540   -1.2350 O.3   911  5MY911     -0.2675
     29  P4       -39.5850    3.8000   -0.6630 P.3   911  5MY911      0.5327
     30  O34      -40.3820    4.4120   -1.7980 O.2   911  5MY911     -0.2224
     31  O44      -40.5340    2.7870    0.0720 O.3   911  5MY911     -0.1145
     32  O24      -39.1210    4.8800    0.2930 O.3   911  5MY911     -0.1145
@<TRIPOS>BOND
     1     4     2    2
     2    13    11    2
     3     8     7    1
     4     2     3    1
     5     2     5    1
     6     2     1    1
     7     5     6    1
     8     7     6    1
     9     7     9    1
    10    11    10    1
    11    11    12    1
    12    11    14    1
    13     6    15    1
    14    19    17    2
    15    10     9    1
    16    18    17    1
    17     9    27    1
    18    15    16    1
    19    15    21    1
    20    17    16    1
    21    17    20    1
    22    27    21    1
    23    27    28    1
    24    21    22    1
    25    30    29    2
    26    28    29    1
    27    22    23    1
    28    29    31    1
    29    29    32    1
    30    25    23    2
    31    23    24    1
    32    23    26    1
