@<TRIPOS>MOLECULE
3udv_J1C_A_1.pdb
 44 49 0 0 0
SMALL
GASTEIGER

@<TRIPOS>ATOM
      1  C1         1.9210   17.2430   15.5880 C.3   171  J1C171      0.1630
      2  N1         2.6290   14.3620   13.4830 N.pl3 171  J1C171     -0.1439
      3  O1         1.9640   16.4560   14.4020 O.3   171  J1C171     -0.3153
      4  S1         3.9310   19.3840   15.1450 S.3   171  J1C171     -0.1384
      5  C2         2.9170   16.5400   16.5680 C.3   171  J1C171      0.2168
      6  N2         2.3030   12.9850   11.6460 N.2   171  J1C171     -0.2095
      7  O2         2.2670   16.3910   17.7930 O.3   171  J1C171     -0.2175
      8  C3         3.2050   15.1240   15.8830 C.3   171  J1C171      0.2569
      9  N3         4.6390   12.4390    9.6550 N.pl3 171  J1C171      0.2180
     10  O3         2.9640   14.0520   16.7650 O.3   171  J1C171     -0.2130
     11  C4         2.2010   15.1010   14.7140 C.3   171  J1C171      0.3185
     12  N4         5.9220   13.8300   11.0300 N.2   171  J1C171      0.0021
     13  O4         4.8120   25.4880   11.1040 O.2   171  J1C171     -0.2658
     14  C5         1.7390   13.5330   12.7260 C.3   171  J1C171      0.3377
     15  N5         5.0200   14.9190   13.0350 N.2   171  J1C171     -0.0055
     16  O5         9.3620   24.9010    7.0680 O.2   171  J1C171     -0.2052
     17  C6         3.6240   13.4570   11.6490 C.2   171  J1C171      0.2526
     18  N6         5.2940   19.9960   11.4160 N.3   171  J1C171     -0.2711
     19  C7         4.7160   13.2300   10.7600 C.2   171  J1C171      0.4393
     20  C8         5.9740   14.6140   12.1300 C.3   171  J1C171      0.5254
     21  N8         7.2900   28.2170    5.8460 N.2   171  J1C171     -0.2672
     22  C9         3.8360   14.3100   12.7710 C.2   171  J1C171      0.3518
     23  N9         8.9970   28.4290    4.2170 N.pl3 171  J1C171     -0.0220
     24  C10        2.1620   18.7790   15.3010 C.3   171  J1C171      0.0899
     25  N10        9.1260   26.6350    5.6940 N.2   171  J1C171     -0.2466
     26  C11        4.9790   18.3060   13.9360 C.3   171  J1C171      0.0505
     27  N11        6.9930   25.5890    8.4700 N.2   171  J1C171     -0.3767
     28  C12        4.2350   18.0300   12.6430 C.3   171  J1C171      0.0282
     29  N12        5.6790   27.8890    7.5540 N.2   171  J1C171     -0.2036
     30  C13        4.0170   19.3470   11.8820 C.3   171  J1C171      0.0730
     31  C14        6.3870   20.0330   12.4950 C.3   171  J1C171      0.0730
     32  C15        6.3670   18.8800   13.5560 C.3   171  J1C171      0.0282
     33  C16        4.9810   21.2790   10.6160 C.3   171  J1C171      0.0958
     34  C18        5.4480   25.0060   10.1660 C.2   171  J1C171      0.2923
     35  C19        8.4430   27.7560    5.2850 C.1   171  J1C171      0.2609
     36  C20        8.6700   25.8730    6.7970 C.1   171  J1C171      0.2569
     37  C21        5.8960   25.9370    9.0600 C.2   171  J1C171      0.1860
     38  C22        5.0870   27.1900    8.7340 C.3   171  J1C171      0.1455
     39  C23        4.9880   28.2450    9.8330 C.3   171  J1C171      0.0326
     40  C24        3.6450   26.7730    8.3870 C.3   171  J1C171      0.0326
     41  C25        6.8180   27.4810    6.9230 C.1   171  J1C171      0.1400
     42  C26        7.4470   26.3400    7.4010 C.2   171  J1C171      0.2992
     43  C27        5.2970   22.6860   11.1850 C.3   171  J1C171      0.1328
     44  N28        5.7250   23.6370   10.1210 N.am  171  J1C171     -0.1982
@<TRIPOS>BOND
     1    23    35    1
     2    35    25    2
     3    35    21    2
     4    25    36    2
     5    21    41    2
     6    36    16    2
     7    36    42    1
     8    41    42    1
     9    41    29    2
    10    42    27    2
    11    29    38    1
    12    40    38    1
    13    27    37    2
    14    38    37    1
    15    38    39    1
    16    37    34    1
    17     9    19    1
    18    44    34   am
    19    44    43    1
    20    34    13    2
    21    33    43    1
    22    33    18    1
    23    19    12    2
    24    19    17    1
    25    12    20    1
    26    18    30    1
    27    18    31    1
    28     6    17    2
    29     6    14    1
    30    17    22    1
    31    30    28    1
    32    20    15    1
    33    31    32    1
    34    28    26    1
    35    14     2    1
    36    22    15    2
    37    22     2    1
    38     2    11    1
    39    32    26    1
    40    26     4    1
    41     3    11    1
    42     3     1    1
    43    11     8    1
    44     4    24    1
    45    24     1    1
    46     1     5    1
    47     8     5    1
    48     8    10    1
    49     5     7    1
