@<TRIPOS>MOLECULE
3udx_IM2_A_1.pdb
 20 20 0 0 0
SMALL
GASTEIGER

@<TRIPOS>ATOM
      1  C7       -36.8520   -0.9820   -9.5530 C.2   998  IM2998      0.2115
      2  C2       -33.7690   -3.4650  -10.7410 C.3   998  IM2998      0.0958
      3  C6       -36.8180   -1.7760  -10.8490 C.3   998  IM2998      0.1175
      4  C5       -36.0860   -3.1090  -10.6790 C.3   998  IM2998      0.1142
      5  C3       -34.1240   -3.1690   -9.4870 C.2   998  IM2998      0.1428
      6  O7       -36.1590    0.0030   -9.4090 O.2   998  IM2998     -0.2882
      7  C61      -38.2070   -2.0260  -11.4480 C.3   998  IM2998      0.1613
      8  O62      -38.0140   -2.3580  -12.8190 O.3   998  IM2998     -0.2226
      9  C62      -39.2090   -0.8690  -11.3550 C.3   998  IM2998      0.0360
     10  N4       -35.4390   -3.2120   -9.3900 N.2   998  IM2998     -0.2688
     11  C31      -33.3150   -2.6920   -8.3520 C.2   998  IM2998      0.4014
     12  O31      -33.9260   -2.2620   -7.3440 O.co2 998  IM2998     -0.2392
     13  O32      -32.0630   -2.6870   -8.3820 O.co2 998  IM2998     -0.2392
     14  S21      -32.2910   -4.0090  -11.2940 S.3   998  IM2998     -0.1329
     15  C22      -32.4200   -5.6820  -11.8540 C.3   998  IM2998      0.0812
     16  C23      -31.6090   -5.8900  -13.1310 C.3   998  IM2998      0.1256
     17  N24      -32.3940   -5.7260  -14.3460 N.pl3 998  IM2998     -0.2155
     18  C25      -31.7990   -5.7520  -15.5410 C.2   998  IM2998      0.2043
     19  N26      -31.6160   -6.8410  -16.1610 N.2   998  IM2998     -0.1271
     20  C1       -34.9400   -3.2950  -11.6740 C.3   998  IM2998      0.0418
@<TRIPOS>BOND
     1    19    18    2
     2    18    17    1
     3    17    16    1
     4    16    15    1
     5     8     7    1
     6    15    14    1
     7    20     2    1
     8    20     4    1
     9     7     9    1
    10     7     3    1
    11    14     2    1
    12     3     4    1
    13     3     1    1
    14     2     5    1
    15     4    10    1
    16     1     6    2
    17     5    10    2
    18     5    11    1
    19    13    11   ar
    20    11    12   ar
