@<TRIPOS>MOLECULE
3udy_09G_A_1.pdb
 27 30 0 0 0
SMALL
GASTEIGER

@<TRIPOS>ATOM
      1  C25       16.6720   41.8470   44.8480 C.1   501  09G501      0.1009
      2  C5        26.2630   37.4590   40.0800 C.3   501  09G501      0.0519
      3  C8        26.9080   37.6060   41.2970 C.2   501  09G501     -0.0188
      4  C23       17.3060   39.5440   45.3080 C.ar  501  09G501      0.0106
      5  C3        24.9570   37.0200   40.0250 C.2   501  09G501     -0.0220
      6  C24       17.6800   38.3010   44.8400 C.ar  501  09G501      0.0000
      7  C6        26.2750   37.2990   42.4820 C.2   501  09G501      0.0285
      8  C20       17.3900   39.0300   42.6020 C.ar  501  09G501      0.0067
      9  C22       16.9620   40.5310   44.4130 C.ar  501  09G501      0.0746
     10  C1        24.3290   36.7320   41.2160 C.2   501  09G501      0.0207
     11  C19       17.7100   38.0370   43.4900 C.ar  501  09G501      0.0218
     12  C17       24.9740   36.8680   42.4090 C.2   501  09G501      0.1405
     13  C21       17.0210   40.2650   43.0690 C.ar  501  09G501      0.0440
     14  C14       22.9380   36.0550   42.9320 C.1   501  09G501      0.1834
     15  C9        19.7990   36.0520   41.4060 C.2   501  09G501      0.3333
     16  C4        21.9020   37.2820   41.1000 C.3   501  09G501      0.0509
     17  C13       22.6180   34.9930   40.6820 C.3   501  09G501      0.1099
     18  C7        20.8200   36.5010   40.4060 C.3   501  09G501      0.1729
     19  C2        22.9520   36.2580   41.4390 C.3   501  09G501      0.1427
     20  C18       18.1650   36.7360   42.9210 C.3   501  09G501      0.2351
     21  N26       16.4020   42.9270   45.1840 N.1   501  09G501     -0.1908
     22  N16       24.1440   36.4910   43.4520 N.2   501  09G501     -0.3365
     23  N10       21.4370   35.2820   39.8790 N.3   501  09G501     -0.2069
     24  O15       21.9670   35.6240   43.5380 O.2   501  09G501     -0.2139
     25  O12       19.5610   34.8800   41.6450 O.2   501  09G501     -0.2485
     26  O11       19.1380   37.1120   41.9390 O.3   501  09G501     -0.4425
     27 BR2        16.6260   41.6010   41.7980 Br    501  09G501     -0.0483
@<TRIPOS>BOND
     1    23    18    1
     2    23    17    1
     3     5     2    1
     4     5    10    2
     5     2     3    1
     6    18    16    1
     7    18    15    1
     8    17    19    1
     9    16    19    1
    10    10    19    1
    11    10    12    1
    12     3     7    2
    13    15    25    2
    14    15    26    1
    15    19    14    1
    16    27    13    1
    17    26    20    1
    18    12     7    1
    19    12    22    2
    20     8    13   ar
    21     8    11   ar
    22    20    11    1
    23    14    22    2
    24    14    24    2
    25    13     9   ar
    26    11     6   ar
    27     9     1    1
    28     9     4   ar
    29     6     4   ar
    30     1    21    3
