@<TRIPOS>MOLECULE
3udz_ADP_A_1.pdb
 27 29 0 0 0
SMALL
GASTEIGER

@<TRIPOS>ATOM
      1  PB        69.0840   35.2460   42.7150 P.3   600  ADP600      0.5373
      2  O1B       67.5830   35.1500   42.5350 O.3   600  ADP600     -0.1143
      3  O2B       69.8270   34.1960   41.9460 O.2   600  ADP600     -0.2221
      4  O3B       69.6280   36.6390   42.5100 O.3   600  ADP600     -0.1143
      5  PA        69.0380   33.5100   45.0160 P.3   600  ADP600      0.2231
      6  O1A       69.7450   32.3800   44.2840 O.2   600  ADP600     -0.5169
      7  O2A       67.5490   33.3890   45.2430 O.3   600  ADP600     -0.4370
      8  O3A       69.3810   34.9100   44.2730 O.3   600  ADP600     -0.2261
      9  O5'       69.7550   33.7070   46.4480 O.3   600  ADP600     -0.3111
     10  C5'       71.1190   34.1150   46.5280 C.3   600  ADP600      0.1813
     11  C4'       71.8510   33.2130   47.5120 C.3   600  ADP600      0.1821
     12  O4'       71.3630   33.3740   48.8460 O.3   600  ADP600     -0.3135
     13  C3'       71.6590   31.7400   47.1960 C.3   600  ADP600      0.2184
     14  O3'       72.6170   31.2570   46.2590 O.3   600  ADP600     -0.2174
     15  C2'       71.7580   31.0390   48.5420 C.3   600  ADP600      0.2570
     16  O2'       73.0870   30.6390   48.8830 O.3   600  ADP600     -0.2130
     17  C1'       71.2970   32.1000   49.5020 C.3   600  ADP600      0.3186
     18  N9        69.8810   31.7620   49.7570 N.pl3 600  ADP600     -0.1439
     19  C8        68.8300   32.0330   48.9480 C.3   600  ADP600      0.3377
     20  N7        67.6730   31.5850   49.4920 N.2   600  ADP600     -0.2095
     21  C5        67.9810   31.0080   50.6760 C.2   600  ADP600      0.2526
     22  C6        67.2560   30.3210   51.7690 C.2   600  ADP600      0.4393
     23  N6        65.9240   30.1450   51.7390 N.pl3 600  ADP600      0.2180
     24  N1        67.9670   29.8630   52.8090 N.2   600  ADP600      0.0021
     25  C2        69.2990   30.0140   52.8920 C.3   600  ADP600      0.5254
     26  N3        70.0250   30.6190   51.9480 N.2   600  ADP600     -0.0055
     27  C4        69.4380   31.1230   50.8380 C.2   600  ADP600      0.3518
@<TRIPOS>BOND
     1     3     1    2
     2     4     1    1
     3     2     1    1
     4     1     8    1
     5     8     5    1
     6     6     5    2
     7     5     7    1
     8     5     9    1
     9    14    13    1
    10     9    10    1
    11    10    11    1
    12    13    11    1
    13    13    15    1
    14    11    12    1
    15    15    16    1
    16    15    17    1
    17    12    17    1
    18    19    20    1
    19    19    18    1
    20    20    21    2
    21    17    18    1
    22    18    27    1
    23    21    27    1
    24    21    22    1
    25    27    26    2
    26    23    22    1
    27    22    24    2
    28    26    25    1
    29    24    25    1
