@<TRIPOS>MOLECULE
3udz_IHP_A_1.pdb
 36 36 0 0 0
SMALL
GASTEIGER

@<TRIPOS>ATOM
      1  C1        71.1510   32.9400   34.7730 C.3   500  IHP500      0.1863
      2  C2        71.1790   34.1180   35.6820 C.3   500  IHP500      0.1863
      3  C3        72.1400   33.9340   36.8080 C.3   500  IHP500      0.1863
      4  C4        73.5350   33.7030   36.2990 C.3   500  IHP500      0.1863
      5  C5        73.7290   32.7850   35.0930 C.3   500  IHP500      0.1863
      6  C6        72.4980   32.5590   34.2100 C.3   500  IHP500      0.1863
      7  O11       70.3600   33.3070   33.7050 O.3   500  IHP500     -0.2675
      8  P1        69.1210   32.4910   33.2040 P.3   500  IHP500      0.5327
      9  O21       68.5630   31.6180   34.2800 O.3   500  IHP500     -0.1145
     10  O31       69.5450   31.6430   32.0270 O.2   500  IHP500     -0.2224
     11  O41       68.1340   33.5110   32.7080 O.3   500  IHP500     -0.1145
     12  O12       69.9130   34.3770   36.1710 O.3   500  IHP500     -0.2675
     13  P2        69.4740   35.8740   36.3800 P.3   500  IHP500      0.5327
     14  O22       68.0000   36.0600   36.1200 O.3   500  IHP500     -0.1145
     15  O32       69.8700   36.2720   37.7890 O.3   500  IHP500     -0.1145
     16  O42       70.2440   36.7650   35.4280 O.2   500  IHP500     -0.2224
     17  O13       71.7100   32.9750   37.7260 O.3   500  IHP500     -0.2675
     18  P3        71.1260   33.3580   39.1660 P.3   500  IHP500      0.5327
     19  O23       69.6490   33.0940   39.3900 O.2   500  IHP500     -0.2224
     20  O33       71.8990   32.5890   40.2150 O.3   500  IHP500     -0.1145
     21  O43       71.3580   34.8250   39.4470 O.3   500  IHP500     -0.1145
     22  O14       74.3350   33.3320   37.3640 O.3   500  IHP500     -0.2675
     23  P4        75.5660   34.2400   37.7210 P.3   500  IHP500      0.5327
     24  O24       76.1340   33.9000   39.0680 O.3   500  IHP500     -0.1145
     25  O34       76.5540   34.0510   36.6070 O.2   500  IHP500     -0.2224
     26  O44       75.1890   35.7010   37.6820 O.3   500  IHP500     -0.1145
     27  O15       74.2510   31.6010   35.5670 O.3   500  IHP500     -0.2675
     28  P5        75.5550   30.7670   35.2780 P.3   500  IHP500      0.5327
     29  O25       75.2380   29.4710   35.9680 O.3   500  IHP500     -0.1145
     30  O35       75.7450   30.5490   33.8100 O.2   500  IHP500     -0.2224
     31  O45       76.8180   31.3160   35.9040 O.3   500  IHP500     -0.1145
     32  O16       72.3950   31.2670   33.7200 O.3   500  IHP500     -0.2675
     33  P6        72.8700   30.8420   32.2810 P.3   500  IHP500      0.5327
     34  O26       72.8450   29.3420   32.1370 O.3   500  IHP500     -0.1145
     35  O36       72.0130   31.5020   31.2390 O.2   500  IHP500     -0.2224
     36  O46       74.2720   31.3590   32.0790 O.3   500  IHP500     -0.1145
@<TRIPOS>BOND
     1    35    33    2
     2    10     8    2
     3    36    33    1
     4    34    33    1
     5    33    32    1
     6    11     8    1
     7     8     7    1
     8     8     9    1
     9     7     1    1
    10    32     6    1
    11    30    28    2
    12     6     1    1
    13     6     5    1
    14     1     2    1
    15     5    27    1
    16     5     4    1
    17    28    27    1
    18    28    31    1
    19    28    29    1
    20    16    13    2
    21     2    12    1
    22     2     3    1
    23    14    13    1
    24    12    13    1
    25     4     3    1
    26     4    22    1
    27    13    15    1
    28    25    23    2
    29     3    17    1
    30    22    23    1
    31    26    23    1
    32    23    24    1
    33    17    18    1
    34    18    19    2
    35    18    21    1
    36    18    20    1
