@<TRIPOS>MOLECULE
3ue0_AZR_A_1.pdb
 28 28 0 0 0
SMALL
GASTEIGER

@<TRIPOS>ATOM
      1  C7        84.5950  124.4370   12.0060 C.3   998  AZR998      0.0230
      2  S8        79.7780  117.7550   13.3850 S.3   998  AZR998     -0.0564
      3  O9        83.0510  121.0340    9.4800 O.2   998  AZR998     -0.2864
      4  O10       80.6230  122.5080   12.9620 O.2   998  AZR998     -0.2665
      5  O11       83.6510  122.3730   14.8380 O.2   998  AZR998     -0.3735
      6  N12       84.1160  124.5760    9.6710 N.3   998  AZR998     -0.1187
      7  N13       82.7900  122.1350   12.1240 N.am  998  AZR998     -0.1925
      8  N14       82.9820  121.1230   14.9090 N.2   998  AZR998     -0.0757
      9  N15       81.5370  118.7110   14.9630 N.2   998  AZR998     -0.3794
     10  N16       80.7870  116.5080   15.4900 N.pl3 998  AZR998     -0.0867
     11  S17       85.0730  124.1590    8.3140 S.3   998  AZR998     -0.1290
     12  C18       84.1330  123.6490   10.8070 C.3   998  AZR998      0.1215
     13  C19       82.7710  123.0040   10.9740 C.3   998  AZR998      0.1775
     14  C20       82.4880  122.0720    9.8060 C.2   998  AZR998      0.2302
     15  C21       81.7260  121.9760   12.9790 C.2   998  AZR998      0.2884
     16  C22       82.0290  120.9480   14.0350 C.2   998  AZR998      0.2002
     17  C23       84.6910  122.5230   15.8330 C.3   998  AZR998      0.2530
     18  C24       81.3140  119.6890   14.0240 C.2   998  AZR998      0.1478
     19  C25       80.3770  119.3330   13.0800 C.3   998  AZR998      0.1266
     20  C26       80.8020  117.6370   14.7520 C.2   998  AZR998      0.2461
     21  C27       85.2210  123.9330   15.8370 C.3   998  AZR998      0.0583
     22  C28       84.2850  122.1260   17.2460 C.3   998  AZR998      0.0583
     23  C29       85.9980  121.7860   15.4950 C.2   998  AZR998      0.4027
     24  O30       86.7530  121.4460   16.4560 O.co2 998  AZR998     -0.2417
     25  O31       86.2080  121.6270   14.2570 O.co2 998  AZR998     -0.2417
     26  O32       86.4120  123.8890    8.7950 O.3   998  AZR998     -0.2919
     27  O33       84.9450  125.3710    7.5260 O.3   998  AZR998     -0.2919
     28  O34       84.4470  123.0180    7.6960 O.3   998  AZR998     -0.2919
@<TRIPOS>BOND
     1    27    11    1
     2    28    11    1
     3    11    26    1
     4    11     6    1
     5     3    14    2
     6     6    12    1
     7    14    13    1
     8    12    13    1
     9    12     1    1
    10    13     7    1
    11     7    15   am
    12     4    15    2
    13    15    16    1
    14    19     2    1
    15    19    18    1
    16     2    20    1
    17    18    16    1
    18    18     9    2
    19    16     8    2
    20    25    23   ar
    21    20     9    2
    22    20    10    1
    23     5     8    1
    24     5    17    1
    25    23    17    1
    26    23    24   ar
    27    17    21    1
    28    17    22    1
