@<TRIPOS>MOLECULE
3ue1_UE1_A_1.pdb
 48 50 0 0 0
SMALL
GASTEIGER

@<TRIPOS>ATOM
      1  N1       -32.1950    2.2250    9.8560 N.ar  998  UE1998     -0.0574
      2  C2       -30.9550    2.3100    9.3050 C.ar  998  UE1998      0.3697
      3  N3       -30.2870    3.3420    9.9240 N.ar  998  UE1998     -0.2587
      4  C4       -31.1320    3.8410   10.9240 C.ar  998  UE1998      0.1829
      5  N5       -32.2540    3.1780   10.8750 N.ar  998  UE1998     -0.1240
      6  N6       -37.0140   -5.5380   16.2360 N.2   998  UE1998     -0.3794
      7  C7       -37.4700   -6.6760   15.8140 C.2   998  UE1998      0.2461
      8  S8       -38.6090   -6.3980   14.4990 S.3   998  UE1998     -0.0564
      9  C9       -38.3340   -4.6710   14.6230 C.3   998  UE1998      0.1266
     10  C10      -37.1980   -0.5720   13.1630 C.3   998  UE1998      0.1815
     11  C11      -36.9810   -1.0750   11.7440 C.2   998  UE1998      0.2305
     12  N12      -35.9810    1.2870   12.3070 N.am  998  UE1998     -0.1835
     13  C13      -36.5130    0.7690   13.5470 C.3   998  UE1998      0.1464
     14  O14      -36.1540   -1.9110   11.4630 O.2   998  UE1998     -0.2864
     15  N15      -36.7900   -1.6270   14.0750 N.am  998  UE1998     -0.1921
     16  C16      -37.5490   -1.9560   15.1300 C.2   998  UE1998      0.2884
     17  O17      -38.6010   -1.4030   15.3920 O.2   998  UE1998     -0.2665
     18  C18      -37.0400   -3.0460   15.9800 C.2   998  UE1998      0.2002
     19  N19      -36.2860   -2.7270   17.0120 N.2   998  UE1998     -0.0757
     20  O20      -36.0330   -1.3450   17.3180 O.2   998  UE1998     -0.3735
     21  C21      -34.7300   -0.8170   17.6730 C.3   998  UE1998      0.2530
     22  C22      -33.8950   -0.4970   16.4250 C.2   998  UE1998      0.4027
     23  C23      -35.0310    0.4630   18.4610 C.3   998  UE1998      0.0583
     24  C24      -33.9580   -1.7030   18.6650 C.3   998  UE1998      0.0583
     25  O25      -34.3490   -0.6640   15.3040 O.co2 998  UE1998     -0.2417
     26  O26      -32.7520   -0.0610   16.4920 O.co2 998  UE1998     -0.2417
     27  C27      -37.4260   -4.4380   15.5980 C.2   998  UE1998      0.1478
     28  N28      -37.1250   -7.9130   16.3340 N.pl3 998  UE1998     -0.0867
     29  C29      -34.7770    0.9980   11.7920 C.2   998  UE1998      0.3617
     30  O30      -33.9030    0.4220   12.4160 O.2   998  UE1998     -0.2474
     31  N31      -34.6600    1.4240   10.5270 N.am  998  UE1998     -0.0227
     32  S32      -33.4100    1.1370    9.5080 S.O2  998  UE1998      0.1792
     33  O33      -34.0100    1.4530    8.2670 O.2   998  UE1998     -0.1293
     34  O34      -32.9390   -0.1590    9.7940 O.2   998  UE1998     -0.1293
     35  O35      -30.5390    1.5860    8.3940 O.2   998  UE1998     -0.2429
     36  C36      -28.9160    3.8430    9.6270 C.3   998  UE1998      0.1476
     37  C37      -28.5530    3.9920    8.1340 C.3   998  UE1998      0.2073
     38  C38      -27.0560    4.2780    7.9910 C.3   998  UE1998      0.2168
     39  O39      -29.3260    5.0060    7.4850 O.3   998  UE1998     -0.2182
     40  O40      -26.6710    4.1780    6.6190 O.3   998  UE1998     -0.2175
     41  C41      -30.8510    4.8070   12.0170 C.2   998  UE1998      0.1028
     42  N42      -31.5240    4.6140   13.2120 N.2   998  UE1998     -0.2412
     43  C43      -31.2920    5.3860   14.3200 C.2   998  UE1998      0.1435
     44  C44      -30.3860    6.4070   14.2730 C.2   998  UE1998      0.2494
     45  C45      -29.6710    6.6620   13.0510 C.2   998  UE1998      0.2193
     46  C46      -29.9130    5.8300   11.9190 C.3   998  UE1998      0.1214
     47  O47      -28.8440    7.5710   12.9790 O.2   998  UE1998     -0.2875
     48  O48      -30.1740    7.1720   15.3860 O.2   998  UE1998     -0.2818
@<TRIPOS>BOND
     1    40    38    1
     2    39    37    1
     3    38    37    1
     4    37    36    1
     5    33    32    2
     6    35     2    2
     7     2     1   ar
     8     2     3   ar
     9    32    34    2
    10    32     1    1
    11    32    31    1
    12    36     3    1
    13     1     5   ar
    14     3     4   ar
    15    31    29   am
    16     5     4   ar
    17     4    41    1
    18    14    11    2
    19    11    10    1
    20    29    12   am
    21    29    30    2
    22    46    41    1
    23    46    45    1
    24    41    42    2
    25    12    13    1
    26    47    45    2
    27    45    44    1
    28    10    13    1
    29    10    15    1
    30    42    43    1
    31    15    16   am
    32    44    43    2
    33    44    48    1
    34     8     9    1
    35     8     7    1
    36     9    27    1
    37    16    17    2
    38    16    18    1
    39    25    22   ar
    40    27    18    1
    41    27     6    2
    42     7     6    2
    43     7    28    1
    44    18    19    2
    45    22    26   ar
    46    22    21    1
    47    19    20    1
    48    20    21    1
    49    21    23    1
    50    21    24    1
