@<TRIPOS>MOLECULE
3ue4_DB8_A_1.pdb
 36 39 0 0 0
SMALL
GASTEIGER

@<TRIPOS>ATOM
      1  CAA       -2.4390   15.8230  -52.6150 C.3   601  DB8601      0.2526
      2  O02       -0.7230   17.7490  -43.8250 O.3   601  DB8601     -0.4705
      3  CAC       -0.2760   10.9670  -54.9260 C.3   601  DB8601      0.0760
      4  NAD       -2.8950   14.2390  -44.0700 N.1   601  DB8601     -0.1907
      5 CL1        -3.2890   18.8070  -42.4990 Cl    601  DB8601     -0.0791
      6 CL2        -5.8900   16.3750  -46.8020 Cl    601  DB8601     -0.0809
      7  CAG       -2.5320   13.8910  -45.0810 C.1   601  DB8601      0.1033
      8  CAH       -1.3020   12.1440  -46.5160 C.ar  601  DB8601      0.1104
      9  CAI       -4.4780   17.5620  -44.6880 C.ar  601  DB8601      0.0272
     10  CAJ       -1.8260   16.6460  -45.7600 C.ar  601  DB8601      0.0551
     11  CAK       -0.5380   11.8080  -50.3050 C.ar  601  DB8601      0.0592
     12  CAL       -2.0290   14.4420  -50.2560 C.ar  601  DB8601      0.0429
     13  CAM        0.7430   10.3250  -53.9950 C.3   601  DB8601      0.0646
     14  CAN        0.7360   11.0740  -52.6630 C.3   601  DB8601      0.2070
     15  CAO       -0.7980    7.5090  -59.0390 C.3   601  DB8601      0.0897
     16  CAP       -1.3080   10.3190  -57.2360 C.3   601  DB8601      0.0897
     17  CAQ        0.3100    8.9150  -56.1780 C.3   601  DB8601      0.0897
     18  CAR       -0.7130    9.9490  -58.6050 C.3   601  DB8601      0.0897
     19  CAS        0.9210    8.5590  -57.4940 C.3   601  DB8601      0.0897
     20  NAT       -0.8210   11.6400  -47.7690 N.ar  601  DB8601     -0.2429
     21  NAU       -3.0370   15.5280  -47.7040 N.pl3 601  DB8601     -0.2107
     22  OAV       -1.7680   14.6040  -52.6880 O.3   601  DB8601     -0.4684
     23  OAW       -0.2860   12.0260  -52.7280 O.3   601  DB8601     -0.4723
     24  CAX       -1.8860   17.4360  -44.4920 C.ar  601  DB8601      0.1505
     25  CAY       -3.2170   17.8930  -43.9630 C.ar  601  DB8601      0.0924
     26  CAZ       -4.4280   16.7700  -45.9530 C.ar  601  DB8601      0.0739
     27  CBA       -2.0470   13.4380  -46.4190 C.ar  601  DB8601      0.1027
     28  CBB       -3.0980   16.3140  -46.4880 C.ar  601  DB8601      0.0841
     29  CBC       -1.5230   13.8770  -51.5450 C.ar  601  DB8601      0.1725
     30  CBD       -0.7800   12.5830  -51.5560 C.ar  601  DB8601      0.1737
     31  CBE       -2.3230   14.2440  -47.6770 C.ar  601  DB8601      0.0831
     32  CBF       -1.0450   12.3590  -48.9920 C.ar  601  DB8601      0.0858
     33  CBG       -1.7920   13.6770  -48.9890 C.ar  601  DB8601      0.0368
     34  NBH       -0.2430   10.2440  -56.2370 N.3   601  DB8601     -0.2702
     35  NBI       -0.0790    8.6600  -58.5140 N.3   601  DB8601     -0.2691
     36  C01        0.3580   16.8780  -43.8610 C.3   601  DB8601      0.2525
@<TRIPOS>BOND
     1    15    35    1
     2    18    35    1
     3    18    16    1
     4    35    19    1
     5    19    17    1
     6    16    34    1
     7    34    17    1
     8    34     3    1
     9     3    13    1
    10    13    14    1
    11    23    14    1
    12    23    30    1
    13    22     1    1
    14    22    29    1
    15    30    29   ar
    16    30    11   ar
    17    29    12   ar
    18    11    32   ar
    19    12    33   ar
    20    32    33   ar
    21    32    20   ar
    22    33    31   ar
    23    20     8   ar
    24    21    31    1
    25    21    28    1
    26    31    27   ar
    27     6    26    1
    28     8    27   ar
    29    28    26   ar
    30    28    10   ar
    31    27     7    1
    32    26     9   ar
    33    10    24   ar
    34     7     4    3
    35     9    25   ar
    36    24    25   ar
    37    24     2    1
    38    25     5    1
    39    36     2    1
