@<TRIPOS>MOLECULE
3ue5_ATP_A_1.pdb
 31 33 0 0 0
SMALL
GASTEIGER

@<TRIPOS>ATOM
      1  PG        16.2430  -13.2680  -28.3900 P.3   382  ATP382      0.5373
      2  O1G       16.9610  -12.7830  -27.1710 O.3   382  ATP382     -0.1143
      3  O2G       14.7300  -13.6060  -27.9370 O.3   382  ATP382     -0.1143
      4  O3G       17.0140  -14.5240  -28.9740 O.2   382  ATP382     -0.2221
      5  PB        14.8610  -11.2220  -29.6920 P.3   382  ATP382      0.2277
      6  O1B       14.1200  -11.0940  -28.4060 O.3   382  ATP382     -0.4368
      7  O2B       15.4260   -9.8070  -30.1740 O.2   382  ATP382     -0.5168
      8  O3B       16.2870  -12.1330  -29.6130 O.3   382  ATP382     -0.2258
      9  PA        12.6450  -11.6960  -31.2370 P.3   382  ATP382      0.2189
     10  O1A       11.5600  -12.4830  -30.5300 O.3   382  ATP382     -0.4371
     11  O2A       12.3030  -10.1190  -31.2040 O.2   382  ATP382     -0.5170
     12  O3A       14.1160  -12.0970  -30.8130 O.3   382  ATP382     -0.2700
     13  O5'       12.5480  -12.1320  -32.7880 O.3   382  ATP382     -0.3112
     14  C5'       13.5230  -11.4880  -33.6250 C.3   382  ATP382      0.1813
     15  C4'       13.9540  -12.5220  -34.6820 C.3   382  ATP382      0.1821
     16  O4'       12.7490  -13.0150  -35.2970 O.3   382  ATP382     -0.3135
     17  C3'       14.7770  -11.9660  -35.8420 C.3   382  ATP382      0.2184
     18  O3'       15.7840  -12.9510  -36.1910 O.3   382  ATP382     -0.2174
     19  C2'       13.6840  -11.8790  -36.9450 C.3   382  ATP382      0.2570
     20  O2'       14.1060  -11.9450  -38.3010 O.3   382  ATP382     -0.2130
     21  C1'       12.9150  -13.1360  -36.6840 C.3   382  ATP382      0.3186
     22  N9        11.6000  -12.9160  -37.2340 N.pl3 382  ATP382     -0.1439
     23  C8        10.7350  -11.8560  -37.0170 C.3   382  ATP382      0.3377
     24  N7         9.6220  -12.0110  -37.7100 N.2   382  ATP382     -0.2095
     25  C5         9.7100  -13.1850  -38.4150 C.2   382  ATP382      0.2526
     26  C6         8.8510  -13.8880  -39.2810 C.2   382  ATP382      0.4393
     27  N6         7.6150  -13.3650  -39.6200 N.pl3 382  ATP382      0.2180
     28  N1         9.2560  -15.0680  -39.7430 N.2   382  ATP382      0.0021
     29  C2        10.4700  -15.5750  -39.4490 C.3   382  ATP382      0.5254
     30  N3        11.3390  -14.9610  -38.6510 N.2   382  ATP382     -0.0055
     31  C4        10.9930  -13.7760  -38.1150 C.2   382  ATP382      0.3518
@<TRIPOS>BOND
     1    28    29    1
     2    28    26    2
     3    27    26    1
     4    29    30    1
     5    26    25    1
     6    30    31    2
     7    25    31    1
     8    25    24    2
     9    20    19    1
    10    31    22    1
    11    24    23    1
    12    22    23    1
    13    22    21    1
    14    19    21    1
    15    19    17    1
    16    21    16    1
    17    18    17    1
    18    17    15    1
    19    16    15    1
    20    15    14    1
    21    14    13    1
    22    13     9    1
    23     9    11    2
    24     9    12    1
    25     9    10    1
    26    12     5    1
    27     7     5    2
    28     5     8    1
    29     5     6    1
    30     8     1    1
    31     4     1    2
    32     1     3    1
    33     1     2    1
