@<TRIPOS>MOLECULE
3ue6_FMN_A_1.pdb
 31 33 0 0 0
SMALL
GASTEIGER

@<TRIPOS>ATOM
      1  N1        19.8080  -14.2660   18.9430 N.2   500  FMN500     -0.2887
      2  C2        19.5360  -15.0260   20.0610 C.1   500  FMN500      0.3669
      3  O2        20.4380  -15.2930   20.8590 O.2   500  FMN500     -0.1744
      4  N3        18.2560  -15.4870   20.2830 N.2   500  FMN500     -0.2300
      5  C4        17.2450  -15.1910   19.3970 C.1   500  FMN500      0.2513
      6  O4        16.1060  -15.5990   19.5960 O.2   500  FMN500     -0.2057
      7  C4A       17.5160  -14.4230   18.2720 C.2   500  FMN500      0.2706
      8  N5        16.5140  -14.1130   17.3680 N.2   500  FMN500     -0.3841
      9  C5A       16.7950  -13.3530   16.2520 C.2   500  FMN500      0.1452
     10  C6        15.7830  -13.0490   15.3530 C.2   500  FMN500      0.0252
     11  C7        16.0510  -12.2850   14.2230 C.2   500  FMN500     -0.0375
     12  C7M       14.9480  -11.9600   13.2530 C.3   500  FMN500      0.0268
     13  C8        17.3420  -11.8230   13.9970 C.3   500  FMN500      0.0417
     14  C8M       17.6270  -10.9990   12.7780 C.3   500  FMN500      0.0091
     15  C9        18.3570  -12.1280   14.8980 C.2   500  FMN500     -0.0049
     16  C9A       18.0870  -12.8950   16.0300 C.2   500  FMN500      0.0795
     17  N10       19.0840  -13.1960   16.9450 N.pl3 500  FMN500     -0.2545
     18  C10       18.8050  -13.9640   18.0500 C.2   500  FMN500      0.2449
     19  C1'       20.4990  -12.7460   16.7420 C.3   500  FMN500      0.1336
     20  C2'       20.8130  -11.3650   17.2920 C.3   500  FMN500      0.2048
     21  O2'       19.7680  -10.4740   16.9910 O.3   500  FMN500     -0.2185
     22  C3'       22.1190  -10.8840   16.6670 C.3   500  FMN500      0.2165
     23  O3'       21.9990  -10.8080   15.2630 O.3   500  FMN500     -0.2175
     24  C4'       23.2490  -11.8370   17.0410 C.3   500  FMN500      0.2147
     25  O4'       23.4180  -11.8150   18.4390 O.3   500  FMN500     -0.2176
     26  C5'       24.5780  -11.4800   16.3820 C.3   500  FMN500      0.1892
     27  O5'       24.7450  -10.0790   16.3490 O.3   500  FMN500     -0.2674
     28  P         25.7270   -9.3150   17.3730 P.3   500  FMN500      0.5327
     29  O1P       25.1800   -9.5090   18.7680 O.3   500  FMN500     -0.1145
     30  O2P       25.7590   -7.8420   17.0550 O.2   500  FMN500     -0.2224
     31  O3P       27.1290   -9.8680   17.2970 O.3   500  FMN500     -0.1145
@<TRIPOS>BOND
     1    14    13    1
     2    12    11    1
     3    13    11    1
     4    13    15    1
     5    11    10    2
     6    15    16    2
     7    23    22    1
     8    10     9    1
     9    16     9    1
    10    16    17    1
    11     9     8    2
    12    27    26    1
    13    27    28    1
    14    26    24    1
    15    22    24    1
    16    22    20    1
    17    19    17    1
    18    19    20    1
    19    17    18    1
    20    21    20    1
    21    24    25    1
    22    30    28    2
    23    31    28    1
    24     8     7    2
    25    28    29    1
    26    18     7    1
    27    18     1    2
    28     7     5    1
    29     1     2    2
    30     5     6    2
    31     5     4    2
    32     2     4    2
    33     2     3    2
