@<TRIPOS>MOLECULE
3ue8_09M_A_1.pdb
 28 30 0 0 0
SMALL
GASTEIGER

@<TRIPOS>ATOM
      1  N3        22.3780   28.1800   39.5540 N.am  440  09M440     -0.2580
      2  C4        20.2290   23.9060   36.1220 C.ar  440  09M440      0.0421
      3  N2        20.8470   26.0130   37.1890 N.2   440  09M440     -0.2676
      4  C7        22.0750   27.6910   38.3620 C.2   440  09M440      0.1090
      5  C6        21.0910   26.6650   38.3150 C.2   440  09M440      0.0798
      6  C9        20.8010   26.8750   40.6630 C.ar  440  09M440     -0.0020
      7  C13       20.5760   27.0550   43.0450 C.ar  440  09M440     -0.0002
      8  C8        20.4780   26.3020   39.4200 C.3   440  09M440      0.0748
      9  C16       21.0640   23.3170   33.9530 C.ar  440  09M440      0.0978
     10  O7        16.7300   23.0260   38.7580 O.3   440  09M440     -0.1145
     11  P         16.8900   21.6840   38.1050 P.3   440  09M440      0.5329
     12  O1        17.2160   20.5920   39.0790 O.3   440  09M440     -0.1145
     13  O2        15.7610   21.3480   37.1740 O.2   440  09M440     -0.2224
     14  O3        18.1590   21.7820   37.1360 O.3   440  09M440     -0.2653
     15  C1        19.3390   22.1040   37.6140 C.3   440  09M440      0.1816
     16  C2        20.0070   22.5530   36.3500 C.ar  440  09M440      0.0280
     17  C3        20.3540   21.6680   35.3650 C.ar  440  09M440      0.0965
     18  N1        20.8680   22.0190   34.1880 N.ar  440  09M440     -0.2452
     19  C17       21.5100   23.7130   32.5820 C.3   440  09M440      0.0555
     20  C15       20.7840   24.2870   34.9170 C.ar  440  09M440      0.2067
     21  O6        21.1120   25.5550   34.7000 O.3   440  09M440     -0.2856
     22  C5        19.8560   24.9570   37.1410 C.3   440  09M440      0.1545
     23  C14       20.1920   26.4970   41.8530 C.ar  440  09M440     -0.0026
     24  C12       21.5560   28.0060   43.0810 C.ar  440  09M440      0.0013
     25  C11       22.1770   28.4180   41.9230 C.ar  440  09M440      0.0150
     26  C10       21.8000   27.8490   40.7200 C.ar  440  09M440      0.0540
     27  O5        23.4540   29.0550   39.6140 O.3   440  09M440     -0.4156
     28  O4        22.5780   28.1600   37.3650 O.2   440  09M440     -0.5360
@<TRIPOS>BOND
     1    19     9    1
     2     9    18   ar
     3     9    20   ar
     4    18    17   ar
     5    21    20    1
     6    20     2   ar
     7    17    16   ar
     8     2    16   ar
     9     2    22    1
    10    16    15    1
    11    14    15    1
    12    14    11    1
    13    22     3    1
    14    13    11    2
    15     3     5    2
    16    28     4    2
    17    11    10    1
    18    11    12    1
    19     5     4    1
    20     5     8    1
    21     4     1   am
    22     8     6    1
    23     1    27    1
    24     1    26    1
    25     6    26   ar
    26     6    23   ar
    27    26    25   ar
    28    23     7   ar
    29    25    24   ar
    30     7    24   ar
