@<TRIPOS>MOLECULE
3uec_III_B_1.pdb
 37 36 0 0 0
SMALL
GASTEIGER

@<TRIPOS>ATOM
      1  N        -12.5250  -10.7760  -25.4330 N.3     1  ALA1       -0.1231
      2  CA       -13.1820  -12.1080  -25.4670 C.3     1  ALA1        0.1694
      3  C        -14.2120  -12.1100  -26.5930 C.2     1  ALA1        0.2592
      4  O        -14.5760  -11.0380  -27.1030 O.2     1  ALA1       -0.2718
      5  CB       -13.8450  -12.4350  -24.1090 C.3     1  ALA1        0.0304
      6  N        -14.6820  -13.3130  -26.9410 N.am    2  ARG2       -0.1966
      7  CA       -15.6210  -13.5310  -28.0530 C.3     2  ARG2        0.1729
      8  C        -16.6520  -14.6220  -27.6890 C.2     2  ARG2        0.2617
      9  O        -16.3630  -15.5030  -26.8270 O.2     2  ARG2       -0.2715
     10  CB       -14.8630  -14.0120  -29.2980 C.3     2  ARG2        0.0348
     11  CG       -14.1620  -15.3590  -29.1070 C.3     2  ARG2        0.0492
     12  CD       -13.2170  -15.7240  -30.2890 C.3     2  ARG2        0.2205
     13  NE       -12.1580  -16.6390  -29.8510 N.pl3   2  ARG2       -0.0865
     14  CZ       -12.2830  -17.9640  -29.7170 C.cat   2  ARG2        0.5346
     15  NH1      -11.2430  -18.6730  -29.2880 N.pl3   2  ARG2        0.1354
     16  NH2      -13.4270  -18.5940  -30.0110 N.pl3   2  ARG2        0.1354
     17  N        -17.8180  -14.5610  -28.3740 N.am    3  THR3       -0.1938
     18  CA       -18.8720  -15.5510  -28.0090 C.3     3  THR3        0.2002
     19  CB       -20.0770  -15.2710  -28.8830 C.3     3  THR3        0.1551
     20  CG2      -21.2050  -16.2660  -28.6100 C.3     3  THR3        0.0350
     21  OG1      -20.3940  -13.9270  -28.6360 O.3     3  THR3       -0.2705
     22  P        -20.9720  -12.9560  -29.6560 P.3     3  THR3        0.5326
     23  O1P      -20.1550  -12.9520  -30.9140 O.2     3  THR3       -0.2224
     24  O2P      -22.5180  -13.3760  -29.7480 O.3     3  THR3       -0.1145
     25  O3P      -20.9960  -11.4220  -29.1710 O.3     3  THR3       -0.1145
     26  C        -18.4360  -16.9950  -28.2740 C.2     3  THR3        0.2642
     27  O        -17.8100  -17.2720  -29.2900 O.2     3  THR3       -0.2714
     28  N        -18.7450  -17.9150  -27.3720 N.am    4  LYS4       -0.1941
     29  CA       -18.3720  -19.3030  -27.5920 C.3     4  LYS4        0.1978
     30  C        -19.3080  -19.8440  -28.6820 C.2     4  LYS4        0.3842
     31  O        -19.0640  -19.7000  -29.8730 O.co2   4  LYS4       -0.2437
     32  CB       -18.4670  -20.1630  -26.3270 C.3     4  LYS4        0.0333
     33  CG       -18.8500  -21.6650  -26.6140 C.3     4  LYS4        0.0039
     34  CD       -18.8170  -22.5860  -25.4040 C.3     4  LYS4        0.0206
     35  CE       -19.5920  -23.9100  -25.6590 C.3     4  LYS4        0.1093
     36  NZ       -20.5700  -24.2120  -24.5290 N.3     4  LYS4       -0.1314
     37  OXT      -20.3670  -20.4090  -28.4110 O.co2   4  LYS4       -0.2437
@<TRIPOS>BOND
     1    23    22    2
     2    12    13    1
     3    12    11    1
     4    16    14    1
     5    31    30   ar
     6    13    14    2
     7    24    22    1
     8    14    15    1
     9    22    25    1
    10    22    21    1
    11    10    11    1
    12    10     7    1
    13    27    26    2
    14    19    21    1
    15    19    20    1
    16    19    18    1
    17    30    37   ar
    18    30    29    1
    19    17    18    1
    20    17     8   am
    21    26    18    1
    22    26    28   am
    23     7     8    1
    24     7     6    1
    25     8     9    2
    26    29    28    1
    27    29    32    1
    28     4     3    2
    29     6     3   am
    30    33    32    1
    31    33    34    1
    32     3     2    1
    33    35    34    1
    34    35    36    1
    35     2     1    1
    36     2     5    1
