@<TRIPOS>MOLECULE
3ued_III_B_1.pdb
 46 45 0 0 0
SMALL
GASTEIGER

@<TRIPOS>ATOM
      1  N        -34.7730   -9.9300   -2.0860 N.3     1  ALA1       -0.1231
      2  CA       -33.9710   -9.3850   -0.9480 C.3     1  ALA1        0.1694
      3  C        -34.7550   -8.3480   -0.1430 C.2     1  ALA1        0.2592
      4  O        -35.9570   -8.1650   -0.3500 O.2     1  ALA1       -0.2718
      5  CB       -32.6580   -8.8030   -1.4550 C.3     1  ALA1        0.0304
      6  N        -34.0670   -7.6760    0.7720 N.am    2  ARG2       -0.1966
      7  CA       -34.7040   -6.7440    1.7050 C.3     2  ARG2        0.1729
      8  C        -33.6710   -5.6840    2.1750 C.2     2  ARG2        0.2617
      9  O        -32.4120   -5.9080    2.0580 O.2     2  ARG2       -0.2715
     10  CB       -35.2620   -7.4920    2.9290 C.3     2  ARG2        0.0348
     11  CG       -34.1940   -8.3060    3.6530 C.3     2  ARG2        0.0492
     12  CD       -34.5980   -9.0220    4.9430 C.3     2  ARG2        0.2205
     13  NE       -33.4840   -9.8960    5.3570 N.pl3   2  ARG2       -0.0865
     14  CZ       -32.3370   -9.4700    5.8990 C.cat   2  ARG2        0.5346
     15  NH1      -32.1400   -8.1770    6.1370 N.pl3   2  ARG2        0.1354
     16  NH2      -31.3700  -10.3350    6.2010 N.pl3   2  ARG2        0.1354
     17  N        -34.1710   -4.5520    2.7200 N.am    3  THR3       -0.1938
     18  CA       -33.5840   -3.2760    3.2150 C.3     3  THR3        0.2002
     19  CB       -34.7500   -2.3380    3.6030 C.3     3  THR3        0.1551
     20  CG2      -34.2450   -0.8980    3.7540 C.3     3  THR3        0.0350
     21  OG1      -35.6940   -2.4250    2.5490 O.3     3  THR3       -0.2705
     22  P        -37.0530   -1.7020    2.7300 P.3     3  THR3        0.5326
     23  O1P      -37.8550   -2.6460    3.5280 O.3     3  THR3       -0.1145
     24  O2P      -36.8090   -0.2770    3.4200 O.3     3  THR3       -0.1145
     25  O3P      -37.7840   -1.2440    1.3330 O.2     3  THR3       -0.2224
     26  C        -32.5510   -3.4930    4.3780 C.2     3  THR3        0.2641
     27  O        -32.9090   -4.0190    5.4070 O.2     3  THR3       -0.2714
     28  N        -31.2960   -3.1050    4.1790 N.am    4  LYS4       -0.1963
     29  CA       -30.2660   -3.1730    5.2280 C.3     4  LYS4        0.1728
     30  C        -30.7820   -2.6640    6.5550 C.2     4  LYS4        0.2616
     31  O        -31.3400   -1.5800    6.5940 O.2     4  LYS4       -0.2715
     32  CB       -29.0750   -2.3030    4.8520 C.3     4  LYS4        0.0311
     33  CG       -27.9570   -2.2410    5.8880 C.3     4  LYS4        0.0038
     34  CD       -27.2600   -0.8810    5.8720 C.3     4  LYS4        0.0206
     35  CE       -25.7800   -0.9480    6.2570 C.3     4  LYS4        0.1093
     36  NZ       -25.1250    0.3930    6.1230 N.3     4  LYS4       -0.1314
     37  N        -30.5700   -3.4290    7.6330 N.am    5  GLN5       -0.1963
     38  CA       -31.0600   -3.0720    8.9770 C.3     5  GLN5        0.1728
     39  C        -29.9520   -2.4300    9.8640 C.2     5  GLN5        0.2616
     40  O        -28.7660   -2.4420    9.5010 O.2     5  GLN5       -0.2715
     41  CB       -31.6850   -4.3120    9.6370 C.3     5  GLN5        0.0334
     42  N        -30.3590   -1.8610   11.0080 N.am    6  THR6       -0.1977
     43  CA       -29.4470   -1.2030   11.9960 C.3     6  THR6        0.1597
     44  C        -29.0220    0.1850   11.5110 C.2     6  THR6        0.2287
     45  O        -29.7440    0.8280   10.7470 O.2     6  THR6       -0.2864
     46  CB       -28.1730   -2.0340   12.3340 C.3     6  THR6        0.0319
@<TRIPOS>BOND
     1     1     2    1
     2     5     2    1
     3     2     3    1
     4     4     3    2
     5     3     6   am
     6     6     7    1
     7    25    22    2
     8     7     8    1
     9     7    10    1
    10     9     8    2
    11     8    17   am
    12    21    22    1
    13    21    19    1
    14    17    18    1
    15    22    24    1
    16    22    23    1
    17    10    11    1
    18    18    19    1
    19    18    26    1
    20    19    20    1
    21    11    12    1
    22    28    26   am
    23    28    29    1
    24    26    27    2
    25    32    29    1
    26    32    33    1
    27    12    13    1
    28    29    30    1
    29    13    14    2
    30    34    33    1
    31    34    35    1
    32    14    15    1
    33    14    16    1
    34    36    35    1
    35    30    31    2
    36    30    37   am
    37    37    38    1
    38    38    41    1
    39    38    39    1
    40    40    39    2
    41    39    42   am
    42    45    44    2
    43    42    43    1
    44    44    43    1
    45    43    46    1
