@<TRIPOS>MOLECULE
3uee_III_B_1.pdb
 41 40 0 0 0
SMALL
GASTEIGER

@<TRIPOS>ATOM
      1  N        -35.1220  -42.3140   -1.5140 N.3     1  ALA1       -0.1231
      2  CA       -34.1950  -41.3310   -0.8550 C.3     1  ALA1        0.1694
      3  C        -34.9410  -40.3590    0.0420 C.2     1  ALA1        0.2592
      4  O        -36.1820  -40.2700    0.0150 O.2     1  ALA1       -0.2718
      5  CB       -33.4150  -40.5650   -1.8920 C.3     1  ALA1        0.0304
      6  N        -34.1730  -39.6240    0.8340 N.am    2  ARG2       -0.1966
      7  CA       -34.7470  -38.6990    1.8160 C.3     2  ARG2        0.1729
      8  C        -33.7730  -37.5960    2.2270 C.2     2  ARG2        0.2617
      9  O        -32.5450  -37.7800    2.1770 O.2     2  ARG2       -0.2715
     10  CB       -35.1720  -39.4570    3.0890 C.3     2  ARG2        0.0348
     11  CG       -34.0510  -40.2910    3.6950 C.3     2  ARG2        0.0492
     12  CD       -34.3770  -40.7760    5.0920 C.3     2  ARG2        0.2205
     13  NE       -33.3550  -41.7060    5.5630 N.pl3   2  ARG2       -0.0865
     14  CZ       -32.1410  -41.3420    5.9560 C.cat   2  ARG2        0.5346
     15  NH1      -31.2810  -42.2580    6.3680 N.pl3   2  ARG2        0.1354
     16  NH2      -31.7770  -40.0660    5.9270 N.pl3   2  ARG2        0.1354
     17  N        -34.3490  -36.4880    2.7140 N.am    3  THR3       -0.1937
     18  CA       -33.6070  -35.2980    3.2160 C.3     3  THR3        0.2028
     19  C        -32.6570  -35.5050    4.4180 C.2     3  THR3        0.2642
     20  O        -32.9230  -36.3090    5.3050 O.2     3  THR3       -0.2714
     21  CB       -34.6040  -34.2010    3.6000 C.3     3  THR3        0.1808
     22  OG1      -35.6370  -34.1630    2.6110 O.3     3  THR3       -0.2208
     23  CG2      -33.8930  -32.8320    3.6980 C.3     3  THR3        0.0379
     24  N        -31.5610  -34.7570    4.4450 N.am    4  LYS4       -0.1963
     25  CA       -30.6110  -34.8390    5.5420 C.3     4  LYS4        0.1728
     26  C        -31.2320  -34.2120    6.7790 C.2     4  LYS4        0.2616
     27  O        -32.0100  -33.2460    6.6650 O.2     4  LYS4       -0.2715
     28  CB       -29.3160  -34.1080    5.1770 C.3     4  LYS4        0.0311
     29  CG       -28.1920  -34.2510    6.1940 C.3     4  LYS4        0.0038
     30  CD       -27.0060  -33.3480    5.8720 C.3     4  LYS4        0.0206
     31  CE       -26.2490  -32.9310    7.1300 C.3     4  LYS4        0.1093
     32  NZ       -25.3290  -31.7760    6.9060 N.3     4  LYS4       -0.1314
     33  N        -30.9170  -34.7780    7.9480 N.am    5  GLN5       -0.1977
     34  CA       -31.2560  -34.1530    9.2320 C.3     5  GLN5        0.1601
     35  C        -30.3090  -34.5980   10.3350 C.2     5  GLN5        0.2287
     36  O        -29.1030  -34.4310   10.1970 O.2     5  GLN5       -0.2864
     37  CB       -32.7340  -34.3900    9.6160 C.3     5  GLN5        0.0394
     38  CG       -33.6230  -33.1470    9.4600 C.3     5  GLN5        0.0908
     39  CD       -33.0030  -31.8860   10.0770 C.2     5  GLN5        0.2608
     40  OE1      -32.4910  -31.9190   11.2030 O.2     5  GLN5       -0.2717
     41  NE2      -33.0270  -30.7780    9.3310 N.am    5  GLN5       -0.0878
@<TRIPOS>BOND
     1     5     2    1
     2     1     2    1
     3     2     3    1
     4     4     3    2
     5     3     6   am
     6     6     7    1
     7     7     8    1
     8     7    10    1
     9     9     8    2
    10     8    17   am
    11    22    21    1
    12    17    18    1
    13    10    11    1
    14    18    21    1
    15    18    19    1
    16    21    23    1
    17    11    12    1
    18    19    24   am
    19    19    20    2
    20    24    25    1
    21    12    13    1
    22    28    25    1
    23    28    29    1
    24    25    26    1
    25    13    14    2
    26    30    29    1
    27    30    31    1
    28    16    14    1
    29    14    15    1
    30    27    26    2
    31    26    33   am
    32    32    31    1
    33    33    34    1
    34    34    37    1
    35    34    35    1
    36    41    39   am
    37    38    37    1
    38    38    39    1
    39    39    40    2
    40    36    35    2
