@<TRIPOS>MOLECULE
3uef_III_B_1.pdb
 37 36 0 0 0
SMALL
GASTEIGER

@<TRIPOS>ATOM
      1  N        -61.5350  -75.4700   29.8300 N.3     1  ALA1       -0.1231
      2  CA       -60.6410  -74.7520   30.7720 C.3     1  ALA1        0.1694
      3  C        -61.4520  -73.8370   31.6800 C.2     1  ALA1        0.2592
      4  O        -62.6860  -73.6720   31.5110 O.2     1  ALA1       -0.2718
      5  CB       -59.6060  -73.9410   30.0180 C.3     1  ALA1        0.0304
      6  N        -60.7500  -73.2440   32.6460 N.am    2  ARG2       -0.1966
      7  CA       -61.4000  -72.3930   33.6230 C.3     2  ARG2        0.1729
      8  C        -60.4540  -71.2910   34.0510 C.2     2  ARG2        0.2617
      9  O        -59.2340  -71.4020   33.9430 O.2     2  ARG2       -0.2715
     10  CB       -61.8260  -73.1950   34.8730 C.3     2  ARG2        0.0348
     11  CG       -60.7100  -74.0970   35.4000 C.3     2  ARG2        0.0492
     12  CD       -60.9180  -74.6090   36.8190 C.3     2  ARG2        0.2205
     13  NE       -59.9090  -75.6290   37.1490 N.pl3   2  ARG2       -0.0865
     14  CZ       -58.6290  -75.3730   37.4200 C.cat   2  ARG2        0.5346
     15  NH1      -58.1790  -74.1230   37.4030 N.pl3   2  ARG2        0.1354
     16  NH2      -57.7850  -76.3680   37.6960 N.pl3   2  ARG2        0.1354
     17  N        -61.0540  -70.2620   34.6270 N.am    3  THR3       -0.1937
     18  CA       -60.3400  -69.1090   35.1640 C.3     3  THR3        0.2028
     19  C        -59.3370  -69.4280   36.3140 C.2     3  THR3        0.2642
     20  O        -59.3600  -70.5210   36.8960 O.2     3  THR3       -0.2714
     21  CB       -61.3710  -68.0440   35.5680 C.3     3  THR3        0.1808
     22  OG1      -60.6970  -66.7980   35.6340 O.3     3  THR3       -0.2208
     23  CG2      -62.1200  -68.4070   36.9210 C.3     3  THR3        0.0379
     24  N        -58.4560  -68.4760   36.6140 N.am    4  LYS4       -0.1963
     25  CA       -57.3100  -68.6960   37.5340 C.3     4  LYS4        0.1728
     26  C        -57.6060  -68.8310   39.0680 C.2     4  LYS4        0.2616
     27  O        -58.4510  -68.1210   39.6120 O.2     4  LYS4       -0.2715
     28  CB       -56.2810  -67.5650   37.3240 C.3     4  LYS4        0.0311
     29  CG       -54.8830  -67.9790   37.7260 C.3     4  LYS4        0.0038
     30  CD       -53.9360  -66.8350   37.9690 C.3     4  LYS4        0.0206
     31  CE       -52.6210  -67.4190   38.4760 C.3     4  LYS4        0.1093
     32  NZ       -51.5110  -66.4610   38.2430 N.3     4  LYS4       -0.1314
     33  N        -56.8740  -69.7330   39.7450 N.am    5  GLN5       -0.1977
     34  CA       -56.8630  -69.8730   41.2290 C.3     5  GLN5        0.1597
     35  C        -55.5780  -69.2950   41.8430 C.2     5  GLN5        0.2287
     36  O        -55.4850  -68.1030   42.1550 O.2     5  GLN5       -0.2864
     37  CB       -56.9800  -71.3490   41.6480 C.3     5  GLN5        0.0319
@<TRIPOS>BOND
     1     1     2    1
     2     5     2    1
     3     2     3    1
     4     4     3    2
     5     3     6   am
     6     6     7    1
     7     7     8    1
     8     7    10    1
     9     9     8    2
    10     8    17   am
    11    17    18    1
    12    10    11    1
    13    18    21    1
    14    18    19    1
    15    11    12    1
    16    21    22    1
    17    21    23    1
    18    19    24   am
    19    19    20    2
    20    24    25    1
    21    12    13    1
    22    13    14    2
    23    28    25    1
    24    28    29    1
    25    15    14    1
    26    14    16    1
    27    25    26    1
    28    29    30    1
    29    30    31    1
    30    32    31    1
    31    26    27    2
    32    26    33   am
    33    33    34    1
    34    34    37    1
    35    34    35    1
    36    35    36    2
