@<TRIPOS>MOLECULE
3uel_A1R_A_1.pdb
 35 38 0 0 0
SMALL
GASTEIGER

@<TRIPOS>ATOM
      1  N1        40.0430   41.8790    4.5040 N.2   1001  A1R1001     0.0021
      2  C2        40.6510   43.0690    4.6760 C.3   1001  A1R1001     0.5254
      3  N3        40.9940   43.5800    5.8770 N.2   1001  A1R1001    -0.0055
      4  C4        40.7580   42.8990    7.0230 C.2   1001  A1R1001     0.3518
      5  C5        40.0870   41.5910    6.9290 C.2   1001  A1R1001     0.2526
      6  C6        39.7390   41.1140    5.5550 C.2   1001  A1R1001     0.4393
      7  N6        39.1380   39.9390    5.3120 N.pl3 1001  A1R1001     0.2180
      8  N7        39.9650   41.1510    8.2060 N.2   1001  A1R1001    -0.2095
      9  C8        40.5040   42.0940    9.0260 C.3   1001  A1R1001     0.3377
     10  N9        40.9910   43.1440    8.3190 N.pl3 1001  A1R1001    -0.1439
     11  C1'       41.6270   44.4040    8.8300 C.3   1001  A1R1001     0.3186
     12  C2'       41.0350   44.8260   10.1700 C.3   1001  A1R1001     0.2570
     13  O2'       41.1070   46.2490   10.2930 O.3   1001  A1R1001    -0.2130
     14  C3'       41.9270   44.1560   11.1770 C.3   1001  A1R1001     0.2184
     15  O3'       41.8640   44.7540   12.4690 O.3   1001  A1R1001    -0.2174
     16  O4'       43.0120   44.2540    9.0580 O.3   1001  A1R1001    -0.3135
     17  C4'       43.2570   44.3260   10.4630 C.3   1001  A1R1001     0.1821
     18  C5'       44.2840   43.2820   10.8330 C.3   1001  A1R1001     0.1813
     19  O5'       43.6820   42.0250   11.1490 O.3   1001  A1R1001    -0.3112
     20  PA        44.5220   41.1730   12.2130 P.3   1001  A1R1001     0.2189
     21  O1A       44.4290   39.6620   12.0190 O.2   1001  A1R1001    -0.5170
     22  O2A       44.1920   41.7960   13.5550 O.3   1001  A1R1001    -0.4371
     23  O3A       45.9570   41.6080   11.5800 O.3   1001  A1R1001    -0.2703
     24  PB        47.2940   41.8510   12.4170 P.3   1001  A1R1001     0.2189
     25  O1B       47.0850   43.2140   13.0030 O.3   1001  A1R1001    -0.4371
     26  O2B       48.5400   41.5630   11.5880 O.2   1001  A1R1001    -0.5170
     27  O5N       47.1700   40.6810   13.5410 O.3   1001  A1R1001    -0.3117
     28  C5N       48.1510   39.6310   13.4880 C.3   1001  A1R1001     0.1760
     29  N4N       46.5430   38.0570   14.5570 N.2   1001  A1R1001    -0.2675
     30  C1N       46.1900   36.7830   13.9720 C.2   1001  A1R1001     0.1022
     31  O2N       47.7650   34.9690   14.0350 O.3   1001  A1R1001    -0.2138
     32  C2N       47.4970   36.2230   13.4260 C.3   1001  A1R1001     0.2245
     33  O3N       49.3990   36.5260   14.7700 O.3   1001  A1R1001    -0.2178
     34  C3N       48.5940   37.1860   13.8100 C.3   1001  A1R1001     0.2125
     35  C4N       47.9320   38.4280   14.4080 C.3   1001  A1R1001     0.1661
@<TRIPOS>BOND
     1     1     2    1
     2     1     6    2
     3     2     3    1
     4     7     6    1
     5     6     5    1
     6     3     4    2
     7     5     4    1
     8     5     8    2
     9     4    10    1
    10     8     9    1
    11    10    11    1
    12    10     9    1
    13    11    16    1
    14    11    12    1
    15    16    17    1
    16    12    13    1
    17    12    14    1
    18    17    18    1
    19    17    14    1
    20    18    19    1
    21    19    20    1
    22    14    15    1
    23    23    20    1
    24    23    24    1
    25    26    24    2
    26    21    20    2
    27    20    22    1
    28    24    25    1
    29    24    27    1
    30    32    34    1
    31    32    30    1
    32    32    31    1
    33    28    27    1
    34    28    35    1
    35    34    35    1
    36    34    33    1
    37    30    29    2
    38    35    29    1
