@<TRIPOS>MOLECULE
3ueq_OTU_A_1.pdb
 23 23 0 0 0
SMALL
GASTEIGER

@<TRIPOS>ATOM
      1  C1        67.8790   25.2220   15.6200 C.3   701  OTU701      0.2699
      2  O1        67.0310   24.1690   15.0710 O.3   701  OTU701     -0.3206
      3  C2        68.0770   24.8420   17.1490 C.3   701  OTU701      0.2406
      4  O2        68.6590   23.5730   17.2940 O.3   701  OTU701     -0.2149
      5  C3        66.7020   24.8070   17.8540 C.3   701  OTU701      0.2198
      6  O3        66.8010   24.3890   19.2490 O.3   701  OTU701     -0.2174
      7  C4        66.0980   26.2300   17.7110 C.3   701  OTU701      0.2144
      8  O4        64.7960   26.1300   17.9160 O.3   701  OTU701     -0.2176
      9  C5        66.0860   26.7610   16.2780 C.3   701  OTU701      0.1835
     10  O5        67.3640   26.6010   15.7530 O.3   701  OTU701     -0.3256
     11  C6        66.0370   28.3570   16.2600 C.3   701  OTU701      0.2142
     12  O6        67.2970   28.9600   16.6470 O.3   701  OTU701     -0.2176
     13  OAA       64.1930   23.7790   14.4320 O.2   701  OTU701     -0.2907
     14  OAB       63.8510   22.0100   12.0900 O.3   701  OTU701     -0.2118
     15  OAC       67.6640   22.6760    9.6510 O.3   701  OTU701     -0.2175
     16  OAE       66.7230   21.8930   12.7580 O.3   701  OTU701     -0.2175
     17  OAG       68.2160   25.1710   12.5230 O.3   701  OTU701     -0.2172
     18  CAJ       64.5690   23.3010   12.1040 C.3   701  OTU701      0.2485
     19  CAK       68.2020   22.7100   10.9600 C.3   701  OTU701      0.2175
     20  CAO       64.9940   23.8370   13.4890 C.2   701  OTU701      0.2133
     21  CAP       67.0980   23.0320   11.9670 C.3   701  OTU701      0.2177
     22  CAS       67.5490   24.0210   13.0040 C.3   701  OTU701      0.2189
     23  CAW       66.3570   24.4960   13.7870 C.3   701  OTU701      0.2100
@<TRIPOS>BOND
     1    15    19    1
     2    19    21    1
     3    21    16    1
     4    21    22    1
     5    14    18    1
     6    18    20    1
     7    17    22    1
     8    22    23    1
     9    20    23    1
    10    20    13    2
    11    23     2    1
    12     2     1    1
    13     1    10    1
    14     1     3    1
    15    10     9    1
    16    11     9    1
    17    11    12    1
    18     9     7    1
    19     3     4    1
    20     3     5    1
    21     7     5    1
    22     7     8    1
    23     5     6    1
