@<TRIPOS>MOLECULE
3ueq_BTU_A_1.pdb
 23 24 0 0 0
SMALL
GASTEIGER

@<TRIPOS>ATOM
      1  C1        79.5110  -11.9200    3.6140 C.3   700  BTU700      0.2696
      2  O1        79.1170  -12.5180    2.3390 O.3   700  BTU700     -0.3231
      3  C2        78.7290  -10.5800    3.7450 C.3   700  BTU700      0.2406
      4  O2        77.3040  -10.8230    3.5950 O.3   700  BTU700     -0.2149
      5  C3        79.2810   -9.5780    2.7140 C.3   700  BTU700      0.2198
      6  O3        78.7410   -8.2420    2.9970 O.3   700  BTU700     -0.2174
      7  C4        80.8120   -9.4770    2.9190 C.3   700  BTU700      0.2144
      8  O4        81.3300   -8.5170    2.0190 O.3   700  BTU700     -0.2176
      9  C5        81.5190  -10.8560    2.7540 C.3   700  BTU700      0.1835
     10  O5        80.9470  -11.7270    3.7710 O.3   700  BTU700     -0.3256
     11  C6        83.0500  -10.7040    2.8720 C.3   700  BTU700      0.2142
     12  O6        83.3760  -10.4950    4.2280 O.3   700  BTU700     -0.2176
     13  OAB       77.9900  -15.5310   -1.0290 O.3   700  BTU700     -0.2176
     14  OAC       82.4630  -15.4220    1.6090 O.3   700  BTU700     -0.2148
     15  OAG       76.7730  -14.4320    2.5380 O.3   700  BTU700     -0.2176
     16  OAH       80.4250  -13.8010    0.5240 O.3   700  BTU700     -0.1897
     17  CAJ       77.9130  -16.5550    0.0020 C.3   700  BTU700      0.2142
     18  CAK       81.4840  -14.8150    2.4830 C.3   700  BTU700      0.2433
     19  OAN       79.6950  -15.9850    1.3360 O.3   700  BTU700     -0.3254
     20  CAR       77.8860  -14.4990    1.7030 C.3   700  BTU700      0.2136
     21  CAT       78.2610  -15.9730    1.4000 C.3   700  BTU700      0.1835
     22  CAV       79.0640  -13.9860    2.5040 C.3   700  BTU700      0.2069
     23  CAW       80.1840  -14.6320    1.7010 C.3   700  BTU700      0.2776
@<TRIPOS>BOND
     1    13    17    1
     2    17    21    1
     3    16    23    1
     4    19    21    1
     5    19    23    1
     6    21    20    1
     7    14    18    1
     8    23    18    1
     9    23    22    1
    10    20    22    1
    11    20    15    1
    12     8     7    1
    13     2    22    1
    14     2     1    1
    15     5     7    1
    16     5     6    1
    17     5     3    1
    18     9    11    1
    19     9     7    1
    20     9    10    1
    21    11    12    1
    22     4     3    1
    23     1     3    1
    24     1    10    1
