@<TRIPOS>MOLECULE
3uer_TUR_A_1.pdb
 23 24 0 0 0
SMALL
GASTEIGER

@<TRIPOS>ATOM
      1  C1        29.6540   30.2790  -25.3440 C.3   700  TUR700      0.2696
      2  O1        30.0140   31.5410  -25.8950 O.3   700  TUR700     -0.3231
      3  C2        29.6370   29.9140  -23.8690 C.3   700  TUR700      0.2406
      4  O2        28.5030   30.4360  -23.2970 O.3   700  TUR700     -0.2149
      5  C3        30.9400   30.3750  -23.1790 C.3   700  TUR700      0.2198
      6  O3        30.8490   30.1490  -21.8450 O.3   700  TUR700     -0.2174
      7  C4        32.1290   29.6140  -23.8110 C.3   700  TUR700      0.2144
      8  O4        33.3550   30.1100  -23.4130 O.3   700  TUR700     -0.2176
      9  C5        31.9550   29.6810  -25.3510 C.3   700  TUR700      0.1835
     10  O5        30.6250   29.4940  -25.8060 O.3   700  TUR700     -0.3256
     11  C6        32.7430   28.6370  -26.0890 C.3   700  TUR700      0.2142
     12  O6        32.2270   27.3920  -25.7970 O.3   700  TUR700     -0.2176
     13  OAB       31.4050   33.7610  -28.0390 O.3   700  TUR700     -0.2176
     14  OAC       28.2550   32.0030  -28.5160 O.3   700  TUR700     -0.2148
     15  OAG       30.9590   34.3180  -24.8360 O.3   700  TUR700     -0.2176
     16  OAH       27.0730   32.8880  -25.5990 O.3   700  TUR700     -0.1897
     17  CAJ       30.0830   33.7340  -28.0870 C.3   700  TUR700      0.2142
     18  CAK       28.1700   31.6810  -27.2560 C.3   700  TUR700      0.2433
     19  OAN       28.4140   34.0600  -26.8780 O.3   700  TUR700     -0.3254
     20  CAR       30.5120   33.5810  -25.9310 C.3   700  TUR700      0.2136
     21  CAT       29.7040   34.4270  -26.8920 C.3   700  TUR700      0.1835
     22  CAV       29.4830   32.5680  -25.4630 C.3   700  TUR700      0.2069
     23  CAW       28.2860   32.8420  -26.3500 C.3   700  TUR700      0.2776
@<TRIPOS>BOND
     1    14    18    1
     2    17    13    1
     3    17    21    1
     4    18    23    1
     5    21    19    1
     6    21    20    1
     7    19    23    1
     8    23    16    1
     9    23    22    1
    10    11    12    1
    11    11     9    1
    12    20    22    1
    13    20    15    1
    14     2    22    1
    15     2     1    1
    16    10     9    1
    17    10     1    1
    18     9     7    1
    19     1     3    1
    20     3     4    1
    21     3     5    1
    22     7     8    1
    23     7     5    1
    24     5     6    1
