@<TRIPOS>MOLECULE
3uer_BTU_A_1.pdb
 23 24 0 0 0
SMALL
GASTEIGER

@<TRIPOS>ATOM
      1  C1        29.6510   30.2580  -25.3450 C.3   701  BTU701      0.2696
      2  O1        30.0270   31.5060  -25.9040 O.3   701  BTU701     -0.3231
      3  C2        29.6370   29.9070  -23.8660 C.3   701  BTU701      0.2406
      4  O2        28.5030   30.4360  -23.2980 O.3   701  BTU701     -0.2149
      5  C3        30.9390   30.3740  -23.1800 C.3   701  BTU701      0.2198
      6  O3        30.8490   30.1500  -21.8460 O.3   701  BTU701     -0.2174
      7  C4        32.1290   29.6130  -23.8110 C.3   701  BTU701      0.2144
      8  O4        33.3550   30.1110  -23.4130 O.3   701  BTU701     -0.2176
      9  C5        31.9560   29.6810  -25.3510 C.3   701  BTU701      0.1835
     10  O5        30.6290   29.4850  -25.8070 O.3   701  BTU701     -0.3256
     11  C6        32.7440   28.6380  -26.0880 C.3   701  BTU701      0.2142
     12  O6        32.2270   27.3930  -25.7980 O.3   701  BTU701     -0.2176
     13  OAB       31.4400   33.7470  -28.0600 O.3   701  BTU701     -0.2176
     14  OAC       26.2750   34.0380  -26.5110 O.3   701  BTU701     -0.2148
     15  OAG       30.9330   34.2530  -24.8310 O.3   701  BTU701     -0.2176
     16  OAH       28.2720   31.9540  -27.7600 O.3   701  BTU701     -0.1897
     17  CAJ       30.1250   33.7170  -28.1130 C.3   701  BTU701      0.2142
     18  CAK       26.9820   32.9100  -25.9690 C.3   701  BTU701      0.2433
     19  OAN       28.5320   34.1480  -26.8900 O.3   701  BTU701     -0.3254
     20  CAR       30.5290   33.5360  -25.9610 C.3   701  BTU701      0.2136
     21  CAT       29.8120   34.4310  -26.9320 C.3   701  BTU701      0.1835
     22  CAV       29.4280   32.5250  -25.6110 C.3   701  BTU701      0.2069
     23  CAW       28.3430   32.8400  -26.6440 C.3   701  BTU701      0.2776
@<TRIPOS>BOND
     1    17    13    1
     2    17    21    1
     3    16    23    1
     4    21    19    1
     5    21    20    1
     6    19    23    1
     7    23    18    1
     8    23    22    1
     9    14    18    1
    10    11    12    1
    11    11     9    1
    12    20    22    1
    13    20    15    1
    14     2    22    1
    15     2     1    1
    16    10     9    1
    17    10     1    1
    18     9     7    1
    19     1     3    1
    20     3     4    1
    21     3     5    1
    22     7     8    1
    23     7     5    1
    24     5     6    1
