@<TRIPOS>MOLECULE
3ues_DFU_A_1.pdb
 10 10 0 0 0
SMALL
GASTEIGER

@<TRIPOS>ATOM
      1  C1        -8.8290   21.5520    9.6460 C.3   501  DFU501      0.1242
      2  C2        -8.8150   22.9260   10.3060 C.3   501  DFU501      0.2020
      3  C3        -9.9040   23.8150    9.7280 C.3   501  DFU501      0.2150
      4  C4       -11.2460   23.2370   10.1290 C.3   501  DFU501      0.2005
      5  C5       -11.3550   21.7680    9.5240 C.3   501  DFU501      0.1059
      6  C6       -12.6760   21.0610    9.9740 C.3   501  DFU501      0.0216
      7  O4       -11.4180   23.2130   11.5230 O.3   501  DFU501     -0.2188
      8  O3        -9.8840   25.1710   10.2890 O.3   501  DFU501     -0.2176
      9  O2        -7.5420   23.5250   10.0470 O.3   501  DFU501     -0.2188
     10  N5       -10.2080   20.9500    9.9110 N.3   501  DFU501     -0.2140
@<TRIPOS>BOND
     1     5    10    1
     2     5     6    1
     3     5     4    1
     4     1    10    1
     5     1     2    1
     6     3     4    1
     7     3     8    1
     8     3     2    1
     9     9     2    1
    10     4     7    1
