@<TRIPOS>MOLECULE
3uet_FUC_A_1.pdb
 10 10 0 0 0
SMALL
GASTEIGER

@<TRIPOS>ATOM
      1  C1        45.1560   13.6170   20.5690 C.3   502  FUC502      0.1776
      2  C2        46.3410   14.4870   20.2730 C.3   502  FUC502      0.2141
      3  C3        46.8740   14.1490   18.8380 C.3   502  FUC502      0.2172
      4  C4        45.7920   14.5180   17.8380 C.3   502  FUC502      0.2116
      5  C5        44.5310   13.6810   18.1760 C.3   502  FUC502      0.1483
      6  C6        43.3090   14.0160   17.3600 C.3   502  FUC502      0.0349
      7  O2        47.3310   14.2990   21.2770 O.3   502  FUC502     -0.2176
      8  O3        48.0690   14.8910   18.6140 O.3   502  FUC502     -0.2175
      9  O4        45.5530   15.9640   17.8590 O.3   502  FUC502     -0.2177
     10  O5        44.1290   13.7580   19.5790 O.3   502  FUC502     -0.3508
@<TRIPOS>BOND
     1     6     5    1
     2     4     9    1
     3     4     5    1
     4     4     3    1
     5     5    10    1
     6     8     3    1
     7     3     2    1
     8    10     1    1
     9     2     1    1
    10     2     7    1
