@<TRIPOS>MOLECULE
3uet_NAG_A_1.pdb
 15 15 0 0 0
SMALL
GASTEIGER

@<TRIPOS>ATOM
      1  C1        46.4980    8.7450   22.7190 C.3   503  NAG503      0.2917
      2  C2        45.4540    9.6520   23.4550 C.3   503  NAG503      0.1871
      3  C3        44.8760   10.6310   22.4000 C.3   503  NAG503      0.2095
      4  C4        45.9970   11.2870   21.5810 C.3   503  NAG503      0.2136
      5  C5        47.0310   10.2950   21.0480 C.3   503  NAG503      0.1835
      6  C6        48.2300   10.9870   20.4550 C.3   503  NAG503      0.2142
      7  C7        43.4580    8.0340   23.4230 C.2   503  NAG503      0.2421
      8  C8        42.5190    7.2360   24.3370 C.3   503  NAG503      0.0964
      9  N2        44.3990    8.8110   24.0500 N.am  503  NAG503     -0.1991
     10  O1        47.1170    7.6700   23.4430 O.3   503  NAG503     -0.1879
     11  O3        44.0870   11.7040   22.9100 O.3   503  NAG503     -0.2183
     12  O4        45.4700   12.0480   20.5140 O.3   503  NAG503     -0.2176
     13  O5        47.5220    9.5580   22.1420 O.3   503  NAG503     -0.3242
     14  O6        48.6630   10.0090   19.5550 O.3   503  NAG503     -0.2176
     15  O7        43.2960    7.9700   22.1810 O.2   503  NAG503     -0.2733
@<TRIPOS>BOND
     1    14     6    1
     2     6     5    1
     3    12     4    1
     4     5     4    1
     5     5    13    1
     6     4     3    1
     7    13     1    1
     8    15     7    2
     9     3    11    1
    10     3     2    1
    11     1    10    1
    12     1     2    1
    13     7     9   am
    14     7     8    1
    15     2     9    1
