@<TRIPOS>MOLECULE
3uet_GAL_A_1.pdb
 11 11 0 0 0
SMALL
GASTEIGER

@<TRIPOS>ATOM
      1  C1        42.5060   11.5040   22.7930 C.3   504  GAL504      0.1777
      2  C2        41.8710   12.3940   23.8680 C.3   504  GAL504      0.2141
      3  C3        40.3760   12.3500   23.6530 C.3   504  GAL504      0.2173
      4  C4        40.0660   12.7450   22.1940 C.3   504  GAL504      0.2142
      5  C5        40.8740   11.9000   21.1990 C.3   504  GAL504      0.1810
      6  C6        40.6580   12.2750   19.7310 C.3   504  GAL504      0.2141
      7  O2        42.2340   11.7020   25.0530 O.3   504  GAL504     -0.2176
      8  O3        39.7410   13.2490   24.5300 O.3   504  GAL504     -0.2175
      9  O4        40.3600   14.0910   22.0680 O.3   504  GAL504     -0.2176
     10  O5        42.2520   11.9130   21.4820 O.3   504  GAL504     -0.3481
     11  O6        41.0520   11.1600   18.9100 O.3   504  GAL504     -0.2176
@<TRIPOS>BOND
     1    11     6    1
     2     6     5    1
     3     5    10    1
     4     5     4    1
     5    10     1    1
     6     9     4    1
     7     4     3    1
     8     1     2    1
     9     3     2    1
    10     3     8    1
    11     2     7    1
