@<TRIPOS>MOLECULE
3ueu_DAO_A_1.pdb
 14 13 0 0 0
SMALL
GASTEIGER

@<TRIPOS>ATOM
      1  O1        -1.2720    3.8380   19.2090 O.co2 2871  DAO2871    -0.2457
      2  O2        -0.2330    5.7140   19.5840 O.co2 2871  DAO2871    -0.2457
      3  C1        -1.2780    5.0930   19.2850 C.2   2871  DAO2871     0.3649
      4  C2        -2.5650    5.8580   18.9950 C.3   2871  DAO2871     0.1141
      5  C3        -2.6420    7.2130   19.7060 C.3   2871  DAO2871     0.0118
      6  C4        -3.2850    8.2950   18.8260 C.3   2871  DAO2871     0.0006
      7  C5        -2.5580    9.6320   18.9390 C.3   2871  DAO2871     0.0000
      8  C6        -3.2940   10.7800   18.2650 C.3   2871  DAO2871     0.0000
      9  C7        -2.6480   12.1070   18.6760 C.3   2871  DAO2871     0.0000
     10  C8        -3.3440   13.3150   18.0570 C.3   2871  DAO2871     0.0000
     11  C9        -2.3690   14.4290   17.7340 C.3   2871  DAO2871     0.0000
     12  C10       -2.9890   15.8240   17.8320 C.3   2871  DAO2871     0.0000
     13  C11       -3.5540   16.2650   16.4980 C.3   2871  DAO2871     0.0000
     14  C12       -3.7430   17.7620   16.4840 C.3   2871  DAO2871     0.0000
@<TRIPOS>BOND
     1    14    13    1
     2    13    12    1
     3    11    12    1
     4    11    10    1
     5    10     9    1
     6     8     9    1
     7     8     7    1
     8     6     7    1
     9     6     5    1
    10     4     3    1
    11     4     5    1
    12     1     3   ar
    13     3     2   ar
