@<TRIPOS>MOLECULE
3uev_MYR_A_1.pdb
 16 15 0 0 0
SMALL
GASTEIGER

@<TRIPOS>ATOM
      1  C1        -0.9490    3.8100   19.6390 C.2   5412  MYR5412     0.3649
      2  O1        -1.0150    3.6800   18.3990 O.co2 5412  MYR5412    -0.2457
      3  O2        -0.8410    2.8340   20.4250 O.co2 5412  MYR5412    -0.2457
      4  C2        -0.9880    5.2160   20.1900 C.3   5412  MYR5412     0.1141
      5  C3        -2.2750    5.4710   20.9810 C.3   5412  MYR5412     0.0118
      6  C4        -3.3110    6.2640   20.1940 C.3   5412  MYR5412     0.0006
      7  C5        -2.6460    7.2620   19.2500 C.3   5412  MYR5412     0.0000
      8  C6        -3.4440    8.5590   19.1860 C.3   5412  MYR5412     0.0000
      9  C7        -2.5390    9.7660   18.9520 C.3   5412  MYR5412     0.0000
     10  C8        -3.3500   10.9000   18.3560 C.3   5412  MYR5412     0.0000
     11  C9        -2.8620   12.2730   18.8230 C.3   5412  MYR5412     0.0000
     12  C10       -3.4780   13.3380   17.9350 C.3   5412  MYR5412     0.0000
     13  C11       -2.9400   14.7450   18.2220 C.3   5412  MYR5412     0.0000
     14  C12       -3.5540   15.6340   17.1770 C.3   5412  MYR5412     0.0000
     15  C13       -3.7400   17.0450   17.6610 C.3   5412  MYR5412     0.0000
     16  C14       -4.1920   17.9000   16.5090 C.3   5412  MYR5412     0.0000
@<TRIPOS>BOND
     1    16    15    1
     2    14    15    1
     3    14    13    1
     4    12    13    1
     5    12    11    1
     6    10    11    1
     7    10     9    1
     8     2     1   ar
     9     9     8    1
    10     8     7    1
    11     7     6    1
    12     1     4    1
    13     1     3   ar
    14     4     5    1
    15     6     5    1
