@<TRIPOS>MOLECULE
3uew_PLM_A_1.pdb
 18 17 0 0 0
SMALL
GASTEIGER

@<TRIPOS>ATOM
      1  C1        -0.8000    1.7730   20.8220 C.2   1000  PLM1000     0.3649
      2  O1         0.2410    1.6240   21.4990 O.co2 1000  PLM1000    -0.2457
      3  O2        -1.7190    0.9200   20.7870 O.co2 1000  PLM1000    -0.2457
      4  C2        -0.9670    3.0420   20.0130 C.3   1000  PLM1000     0.1141
      5  C3        -1.3310    4.1730   20.9660 C.3   1000  PLM1000     0.0118
      6  C4        -2.0470    5.3020   20.2350 C.3   1000  PLM1000     0.0006
      7  C5        -3.3550    5.6970   20.9160 C.3   1000  PLM1000     0.0000
      8  C6        -4.1010    6.7160   20.0630 C.3   1000  PLM1000     0.0000
      9  C7        -3.1910    7.8780   19.6570 C.3   1000  PLM1000     0.0000
     10  C8        -4.0060    9.1170   19.3150 C.3   1000  PLM1000     0.0000
     11  C9        -3.1540   10.3760   19.4300 C.3   1000  PLM1000     0.0000
     12  CA        -3.7930   11.5070   18.6460 C.3   1000  PLM1000     0.0000
     13  CB        -3.1500   12.8240   18.9990 C.3   1000  PLM1000     0.0000
     14  CC        -3.9340   13.9420   18.3530 C.3   1000  PLM1000     0.0000
     15  CD        -3.1490   15.2270   18.4660 C.3   1000  PLM1000     0.0000
     16  CE        -4.0110   16.4400   18.1550 C.3   1000  PLM1000     0.0000
     17  CF        -3.6980   17.0690   16.8160 C.3   1000  PLM1000     0.0000
     18  CG        -4.5000   18.3250   16.5610 C.3   1000  PLM1000     0.0000
@<TRIPOS>BOND
     1    18    17    1
     2    17    16    1
     3    16    15    1
     4    14    15    1
     5    14    13    1
     6    12    13    1
     7    12    11    1
     8    10    11    1
     9    10     9    1
    10     9     8    1
    11     4     1    1
    12     4     5    1
    13     8     7    1
    14     6     7    1
    15     6     5    1
    16     3     1   ar
    17     1     2   ar
