@<TRIPOS>MOLECULE
3uex_STE_A_1.pdb
 20 19 0 0 0
SMALL
GASTEIGER

@<TRIPOS>ATOM
      1  C1        -0.7930    2.2250   21.0740 C.2   163  STE163      0.3649
      2  O1        -1.9940    1.8610   21.1150 O.co2 163  STE163     -0.2457
      3  O2         0.1080    1.7000   21.7640 O.co2 163  STE163     -0.2457
      4  C2        -0.4340    3.3740   20.1690 C.3   163  STE163      0.1141
      5  C3        -0.8990    4.6780   20.8120 C.3   163  STE163      0.0118
      6  C4        -2.0370    5.3190   20.0220 C.3   163  STE163      0.0006
      7  C5        -3.0720    5.9520   20.9370 C.3   163  STE163      0.0000
      8  C6        -4.0720    6.8100   20.1700 C.3   163  STE163      0.0000
      9  C7        -3.3440    7.8860   19.3750 C.3   163  STE163      0.0000
     10  C8        -4.1370    9.1690   19.3320 C.3   163  STE163      0.0000
     11  C9        -3.1970   10.2980   18.9430 C.3   163  STE163      0.0000
     12  C10       -4.0170   11.5370   18.6110 C.3   163  STE163      0.0000
     13  C11       -3.0960   12.7230   18.8150 C.3   163  STE163      0.0000
     14  C12       -3.8460   13.9770   18.4280 C.3   163  STE163      0.0000
     15  C13       -2.8480   15.0820   18.2380 C.3   163  STE163      0.0000
     16  C14       -3.5330   16.4330   18.1320 C.3   163  STE163      0.0000
     17  C15       -3.7780   16.8230   16.6750 C.3   163  STE163      0.0000
     18  C16       -4.5050   18.1520   16.6760 C.3   163  STE163      0.0000
     19  C17       -4.6580   18.7330   15.2940 C.3   163  STE163      0.0000
     20  C18       -4.8030   17.6680   14.2280 C.3   163  STE163      0.0000
@<TRIPOS>BOND
     1    20    19    1
     2    19    18    1
     3    17    18    1
     4    17    16    1
     5    16    15    1
     6    15    14    1
     7    14    13    1
     8    12    13    1
     9    12    11    1
    10    11    10    1
    11    10     9    1
    12     9     8    1
    13     6     5    1
    14     6     7    1
    15     4     5    1
    16     4     1    1
    17     8     7    1
    18     1     2   ar
    19     1     3   ar
