@<TRIPOS>MOLECULE
3uf0_NAP_A_1.pdb
 48 52 0 0 0
SMALL
GASTEIGER

@<TRIPOS>ATOM
      1  PA        40.9810   13.5120   24.1330 P.3   274  NAP274      0.2189
      2  O1A       41.0930   14.2840   22.7630 O.2   274  NAP274     -0.5170
      3  O2A       42.4060   13.1580   24.7020 O.3   274  NAP274     -0.4371
      4  O5B       40.0320   12.2510   23.9600 O.3   274  NAP274     -0.3112
      5  C5B       39.0890   12.1450   22.8800 C.3   274  NAP274      0.1813
      6  C4B       39.3050   10.9750   21.9550 C.3   274  NAP274      0.1820
      7  O4B       38.1950   10.7900   21.0580 O.3   274  NAP274     -0.3136
      8  C3B       40.5310   11.1110   21.1140 C.3   274  NAP274      0.2157
      9  O3B       41.3990   10.0710   21.4100 O.3   274  NAP274     -0.2175
     10  C2B       40.0600   11.0140   19.7840 C.3   274  NAP274      0.2314
     11  O2B       40.9060   10.3000   18.9560 O.3   274  NAP274     -0.2630
     12  C1B       38.7740   10.2610   19.9200 C.3   274  NAP274      0.3158
     13  N9A       37.9600   10.4020   18.7240 N.pl3 274  NAP274     -0.1439
     14  C8A       37.4700   11.5550   18.2250 C.3   274  NAP274      0.3377
     15  N7A       36.7870   11.2980   17.0930 N.2   274  NAP274     -0.2095
     16  C5A       36.8590    9.9710   16.8760 C.2   274  NAP274      0.2526
     17  C6A       36.3500    9.1690   15.8700 C.2   274  NAP274      0.4393
     18  N6A       35.5750    9.7850   14.8170 N.pl3 274  NAP274      0.2180
     19  N1A       36.5810    7.8480   15.8990 N.2   274  NAP274      0.0021
     20  C2A       37.3020    7.3060   16.9010 C.3   274  NAP274      0.5254
     21  N3A       37.8130    8.0680   17.8930 N.2   274  NAP274     -0.0055
     22  C4A       37.6040    9.4010   17.8980 C.2   274  NAP274      0.3518
     23  O3        40.2640   14.4240   25.1730 O.3   274  NAP274     -0.2703
     24  PN        39.3440   13.7860   26.3140 P.3   274  NAP274      0.2189
     25  O1N       40.0870   12.6630   26.9690 O.2   274  NAP274     -0.5170
     26  O2N       39.0580   14.8320   27.3370 O.3   274  NAP274     -0.4371
     27  O5D       37.9850   13.2910   25.6940 O.3   274  NAP274     -0.3112
     28  C5D       37.3170   12.1550   26.1840 C.3   274  NAP274      0.1813
     29  C4D       35.8280   12.2540   26.4650 C.3   274  NAP274      0.1799
     30  O4D       35.6360   13.0040   27.6200 O.3   274  NAP274     -0.3327
     31  C3D       34.9820   12.9300   25.3810 C.3   274  NAP274      0.2158
     32  O3D       33.6680   12.4120   25.2360 O.3   274  NAP274     -0.2175
     33  C2D       34.8860   14.2620   25.8520 C.3   274  NAP274      0.2309
     34  O2D       33.8400   14.9560   25.2290 O.3   274  NAP274     -0.2158
     35  C1D       34.6550   14.0020   27.3050 C.3   274  NAP274      0.2263
     36  N1N       34.7130   15.1190   28.2310 N.pl3 274  NAP274     -0.2787
     37  C2N       35.8560   15.8090   28.4470 C.3   274  NAP274      0.1244
     38  C3N       35.8680   16.8710   29.3550 C.2   274  NAP274      0.0544
     39  C7N       37.1780   17.6720   29.6220 C.2   274  NAP274      0.2818
     40  O7N       37.2130   18.6310   30.4190 O.2   274  NAP274     -0.2670
     41  N7N       38.3530   17.2340   28.9340 N.am  274  NAP274     -0.0839
     42  C4N       34.7150   17.2030   30.0450 C.2   274  NAP274      0.0033
     43  C5N       33.5490   16.4770   29.8090 C.2   274  NAP274      0.0157
     44  C6N       33.5920   15.4320   28.9040 C.2   274  NAP274      0.0633
     45  P2B       41.7870   11.0830   17.8980 P.3   274  NAP274      0.5328
     46  O1X       40.8860   12.0190   17.0530 O.3   274  NAP274     -0.1145
     47  O2X       42.8230   11.9020   18.6250 O.3   274  NAP274     -0.1145
     48  O3X       42.4880   10.0940   16.9720 O.2   274  NAP274     -0.2224
@<TRIPOS>BOND
     1    18    17    1
     2    17    19    2
     3    17    16    1
     4    19    20    1
     5    16    15    2
     6    16    22    1
     7    20    21    1
     8    48    45    2
     9    46    45    1
    10    15    14    1
    11    21    22    2
    12    22    13    1
    13    45    47    1
    14    45    11    1
    15    14    13    1
    16    13    12    1
    17    11    10    1
    18    10    12    1
    19    10     8    1
    20    12     7    1
    21     7     6    1
    22     8     9    1
    23     8     6    1
    24     6     5    1
    25     2     1    2
    26     5     4    1
    27     4     1    1
    28     1     3    1
    29     1    23    1
    30    23    24    1
    31    34    33    1
    32    32    31    1
    33    31    33    1
    34    31    29    1
    35    27    28    1
    36    27    24    1
    37    33    35    1
    38    28    29    1
    39    24    25    2
    40    24    26    1
    41    29    30    1
    42    35    30    1
    43    35    36    1
    44    36    37    1
    45    36    44    1
    46    37    38    1
    47    44    43    2
    48    41    39   am
    49    38    39    1
    50    38    42    2
    51    39    40    2
    52    43    42    1
