@<TRIPOS>MOLECULE
3uf6_COD_A_1.pdb
 27 29 0 0 0
SMALL
GASTEIGER

@<TRIPOS>ATOM
      1  N1        -7.5790   37.5990   61.4670 N.2   289  COD289      0.0021
      2  C2        -7.8230   36.4770   60.7950 C.3   289  COD289      0.5254
      3  N3        -8.3610   36.5100   59.5630 N.2   289  COD289     -0.0055
      4  C4        -8.6670   37.6920   58.9650 C.2   289  COD289      0.3518
      5  C5        -8.4270   38.8740   59.6370 C.2   289  COD289      0.2526
      6  C6        -7.8690   38.7990   60.9230 C.2   289  COD289      0.4393
      7  N7        -7.6030   40.0380   61.6710 N.pl3 289  COD289      0.2180
      8  N8        -8.8200   39.8910   58.8390 N.2   289  COD289     -0.2095
      9  C9        -9.2910   39.3730   57.6970 C.3   289  COD289      0.3377
     10  N10       -9.2080   38.0480   57.7650 N.pl3 289  COD289     -0.1439
     11  C11       -9.6070   37.1300   56.6980 C.3   289  COD289      0.3186
     12  C12      -10.8010   37.5910   55.9370 C.3   289  COD289      0.2570
     13  O13      -11.9560   36.9050   56.4140 O.3   289  COD289     -0.2130
     14  C14      -10.5790   37.2190   54.6260 C.3   289  COD289      0.2184
     15  O15      -11.3040   36.0020   54.3680 O.3   289  COD289     -0.2174
     16  C16       -9.1270   36.9470   54.5050 C.3   289  COD289      0.1821
     17  O17       -8.5890   36.9920   55.7850 O.3   289  COD289     -0.3135
     18  C18       -8.4760   37.9570   53.6590 C.3   289  COD289      0.1813
     19  O19       -9.0660   39.2280   53.5680 O.3   289  COD289     -0.3111
     20  P20       -8.2410   40.5020   53.8160 P.3   289  COD289      0.2231
     21  O21       -8.6050   41.5740   52.7280 O.2   289  COD289     -0.5169
     22  O22       -6.7040   40.1630   53.7640 O.3   289  COD289     -0.4370
     23  O23       -8.6180   41.0740   55.2370 O.3   289  COD289     -0.2261
     24  P24       -7.9760   42.4460   55.7970 P.3   289  COD289      0.5373
     25  O25       -9.0400   43.2810   56.3810 O.3   289  COD289     -0.1143
     26  O26       -7.3180   43.1870   54.6720 O.2   289  COD289     -0.2221
     27  O27       -6.8770   42.0880   56.9330 O.3   289  COD289     -0.1143
@<TRIPOS>BOND
     1    21    20    2
     2    19    18    1
     3    19    20    1
     4    18    16    1
     5    22    20    1
     6    20    23    1
     7    15    14    1
     8    16    14    1
     9    16    17    1
    10    14    12    1
    11    26    24    2
    12    23    24    1
    13    17    11    1
    14    24    25    1
    15    24    27    1
    16    12    13    1
    17    12    11    1
    18    11    10    1
    19     9    10    1
    20     9     8    1
    21    10     4    1
    22     8     5    2
    23     4     3    2
    24     4     5    1
    25     3     2    1
    26     5     6    1
    27     2     1    1
    28     6     1    2
    29     6     7    1
