@<TRIPOS>MOLECULE
3uf7_III_B_1.pdb
 35 36 0 0 0
SMALL
GASTEIGER

@<TRIPOS>ATOM
      1  N          0.8440  -26.4630   12.4860 N.3   175  ASP175     -0.1225
      2  CA        -0.6360  -26.6720   12.4090 C.3   175  ASP175      0.1805
      3  C         -1.0570  -28.1350   12.6000 C.2   175  ASP175      0.2598
      4  O         -2.2130  -28.4850   12.3640 O.2   175  ASP175     -0.2718
      5  CB        -1.1730  -26.1320   11.0710 C.3   175  ASP175      0.1424
      6  CG        -1.0930  -24.6020   10.9650 C.2   175  ASP175      0.3668
      7  OD1       -1.3090  -23.9060   11.9900 O.co2 175  ASP175     -0.2456
      8  OD2       -0.8370  -24.0930    9.8400 O.co2 175  ASP175     -0.2456
      9  N         -0.1220  -28.9880   13.0140 N.am  176  ILE176     -0.1966
     10  CA        -0.4220  -30.4010   13.1980 C.3   176  ILE176      0.1712
     11  C         -0.3260  -30.6980   14.6930 C.2   176  ILE176      0.2458
     12  O          0.7660  -30.5770   15.2770 O.2   176  ILE176     -0.2730
     13  CB         0.5140  -31.3140   12.3910 C.3   176  ILE176      0.0289
     14  CG1        0.4840  -30.9050   10.9090 C.3   176  ILE176      0.0022
     15  CG2        0.0960  -32.7570   12.5660 C.3   176  ILE176      0.0023
     16  CD1        1.3170  -31.7850   10.0110 C.3   176  ILE176      0.0001
     17  N         -1.4390  -31.0830   15.3380 N.am  177  PRO177     -0.2716
     18  CA        -1.4790  -31.2730   16.7990 C.3   177  PRO177      0.1536
     19  C         -0.9970  -32.6520   17.2560 C.2   177  PRO177      0.2599
     20  O         -1.5130  -33.1880   18.2380 O.2   177  PRO177     -0.2715
     21  CB        -2.9640  -31.0920   17.1280 C.3   177  PRO177      0.0310
     22  CG        -3.6360  -31.6600   15.9140 C.3   177  PRO177      0.0237
     23  CD        -2.7860  -31.2260   14.7410 C.3   177  PRO177      0.0939
     24  N         -0.0070  -33.2060   16.5720 N.am  178  PHE178     -0.1938
     25  CA         0.6070  -34.4750   16.9580 C.3   178  PHE178      0.2021
     26  C          1.9930  -34.5700   16.3430 C.2   178  PHE178      0.3845
     27  O          2.7560  -35.4960   16.6170 O.co2 178  PHE178     -0.2437
     28  CB        -0.2840  -35.6890   16.6080 C.3   178  PHE178      0.0596
     29  CG        -0.8030  -35.6890   15.1800 C.ar  178  PHE178     -0.0199
     30  CD1       -2.1020  -35.2590   14.9190 C.ar  178  PHE178     -0.0042
     31  CD2       -0.0310  -36.1610   14.1020 C.ar  178  PHE178     -0.0042
     32  CE1       -2.6000  -35.2440   13.6190 C.ar  178  PHE178     -0.0003
     33  CE2       -0.5370  -36.1500   12.7880 C.ar  178  PHE178     -0.0003
     34  CZ        -1.8100  -35.6920   12.5770 C.ar  178  PHE178     -0.0000
     35  OXT        2.3370  -33.7120   15.5230 O.co2 178  PHE178     -0.2437
@<TRIPOS>BOND
     1     8     6   ar
     2    16    14    1
     3    14    13    1
     4     6     5    1
     5     6     7   ar
     6     5     2    1
     7     4     3    2
     8    13    15    1
     9    13    10    1
    10     2     1    1
    11     2     3    1
    12    34    33   ar
    13    34    32   ar
    14     3     9   am
    15    33    31   ar
    16     9    10    1
    17    10    11    1
    18    32    30   ar
    19    31    29   ar
    20    11    12    2
    21    11    17   am
    22    23    17    1
    23    23    22    1
    24    30    29   ar
    25    29    28    1
    26    17    18    1
    27    35    26   ar
    28    22    21    1
    29    26    27   ar
    30    26    25    1
    31    24    25    1
    32    24    19   am
    33    28    25    1
    34    18    21    1
    35    18    19    1
    36    19    20    2
