@<TRIPOS>MOLECULE
3uf9_FST_A_1.pdb
 18 18 0 0 0
SMALL
GASTEIGER

@<TRIPOS>ATOM
      1  C1       -18.3200   17.9700  -20.7360 C.3   317  FST317      0.1110
      2  S2       -17.6280   16.8530  -21.7610 S.O   317  FST317      0.0658
      3  O3       -18.6440   16.5500  -23.0210 O.2   317  FST317     -0.2514
      4  C4       -16.2010   17.3940  -22.2530 C.ar  317  FST317      0.0564
      5  C5       -15.0300   16.8190  -21.7650 C.ar  317  FST317      0.0117
      6  C6       -13.7830   17.2810  -22.1830 C.ar  317  FST317      0.0379
      7  C7       -13.7000   18.3310  -23.0900 C.ar  317  FST317      0.1465
      8  C8       -14.8690   18.9040  -23.5790 C.ar  317  FST317      0.0379
      9  C9       -16.1150   18.4430  -23.1610 C.ar  317  FST317      0.0117
     10  O10      -12.4840   18.7980  -23.5250 O.3   317  FST317     -0.4248
     11  P11      -11.2830   19.2100  -22.5330 P.3   317  FST317      0.3628
     12  S12      -10.1630   20.6180  -23.2840 S.3   317  FST317      0.0363
     13  O13      -11.9660   19.6200  -21.1340 O.3   317  FST317     -0.2884
     14  C14      -12.8650   20.7220  -21.0570 C.3   317  FST317      0.1522
     15  C15      -12.6250   21.6490  -22.2280 C.3   317  FST317      0.0352
     16  O16      -10.4590   17.8580  -22.2420 O.3   317  FST317     -0.2884
     17  C17       -9.7980   17.6580  -20.9930 C.3   317  FST317      0.1522
     18  C18      -10.0990   16.2680  -20.4750 C.3   317  FST317      0.0352
@<TRIPOS>BOND
     1     8     9   ar
     2     8     7   ar
     3    10     7    1
     4    10    11    1
     5    12    11    1
     6     9     4   ar
     7     7     6   ar
     8     3     2    2
     9    11    16    1
    10    11    13    1
    11     4     5   ar
    12     4     2    1
    13    16    17    1
    14    15    14    1
    15     6     5   ar
    16     2     1    1
    17    13    14    1
    18    17    18    1
