@<TRIPOS>MOLECULE
3ufa_VPF_A_1.pdb
 15 15 0 0 0
SMALL
GASTEIGER

@<TRIPOS>ATOM
      1  CA1       -1.3690   39.7840   38.3400 C.3   201  VPF201      0.0964
      2  C5        -2.2150   40.9700   37.9620 C.2   201  VPF201      0.2423
      3  O4        -1.6900   42.0930   37.8650 O.2   201  VPF201     -0.2733
      4  O2P       -5.5980   40.9120   39.7400 O.3   201  VPF201     -0.1565
      5  P         -5.9810   41.6980   38.4880 P.3   201  VPF201      0.3463
      6  O1P       -6.7940   42.9500   38.5960 O.2   201  VPF201     -0.2756
      7  CA2       -4.5780   41.6500   37.3410 C.3   201  VPF201      0.1870
      8  CB2       -4.0030   43.0100   37.1920 C.3   201  VPF201      0.0586
      9  CG3       -4.0700   42.9890   35.7000 C.ar  201  VPF201     -0.0199
     10  CD2       -4.4120   41.7960   35.1000 C.ar  201  VPF201     -0.0042
     11  CE2       -4.4920   41.7200   33.7240 C.ar  201  VPF201     -0.0003
     12  CZ        -4.2280   42.8570   32.9850 C.ar  201  VPF201     -0.0000
     13  CE1       -3.8930   44.0480   33.5850 C.ar  201  VPF201     -0.0003
     14  CD1       -3.8030   44.1200   34.9600 C.ar  201  VPF201     -0.0042
     15  N2        -3.5250   40.6950   37.7350 N.am  201  VPF201     -0.1963
@<TRIPOS>BOND
     1    12    13   ar
     2    12    11   ar
     3    13    14   ar
     4    11    10   ar
     5    14     9   ar
     6    10     9   ar
     7     9     8    1
     8     8     7    1
     9     7    15    1
    10     7     5    1
    11    15     2   am
    12     3     2    2
    13     2     1    1
    14     5     6    2
    15     5     4    1
