@<TRIPOS>MOLECULE
3ufg_ATP_A_1.pdb
 31 33 0 0 0
SMALL
GASTEIGER

@<TRIPOS>ATOM
      1  PG        25.7320   28.9340    5.1650 P.3   288  ATP288      0.5373
      2  O1G       24.7890   29.9700    5.7310 O.3   288  ATP288     -0.1143
      3  O2G       25.2290   28.2310    3.9230 O.2   288  ATP288     -0.2221
      4  O3G       26.3330   28.0160    6.2080 O.3   288  ATP288     -0.1143
      5  PB        27.9930   30.5790    5.5790 P.3   288  ATP288      0.2277
      6  O1B       27.5100   32.0020    5.7320 O.2   288  ATP288     -0.5168
      7  O2B       28.1990   29.7310    6.8130 O.3   288  ATP288     -0.4368
      8  O3B       26.9800   29.7910    4.5990 O.3   288  ATP288     -0.2258
      9  PA        30.7830   30.5210    5.4390 P.3   288  ATP288      0.2189
     10  O1A       30.6260   29.6900    6.6930 O.3   288  ATP288     -0.4371
     11  O2A       31.3880   31.9030    5.5430 O.2   288  ATP288     -0.5170
     12  O3A       29.3530   30.5950    4.7000 O.3   288  ATP288     -0.2700
     13  O5'       31.6350   29.6470    4.3990 O.3   288  ATP288     -0.3112
     14  C5'       31.6320   28.2180    4.4610 C.3   288  ATP288      0.1813
     15  C4'       32.9540   27.7000    3.9040 C.3   288  ATP288      0.1821
     16  O4'       33.3010   28.4290    2.7240 O.3   288  ATP288     -0.3135
     17  C3'       34.0810   27.8930    4.9090 C.3   288  ATP288      0.2184
     18  O3'       34.5870   26.6100    5.2940 O.3   288  ATP288     -0.2174
     19  C2'       35.1520   28.7100    4.2070 C.3   288  ATP288      0.2570
     20  O2'       36.3540   27.9490    4.0850 O.3   288  ATP288     -0.2130
     21  C1'       34.6200   28.9710    2.8130 C.3   288  ATP288      0.3186
     22  N9        34.5750   30.4260    2.5230 N.pl3 288  ATP288     -0.1439
     23  C8        33.7700   31.3420    3.0910 C.3   288  ATP288      0.3377
     24  N7        33.9920   32.5810    2.5780 N.2   288  ATP288     -0.2095
     25  C5        34.9630   32.4610    1.6500 C.2   288  ATP288      0.2526
     26  C6        35.6850   33.3640    0.7150 C.2   288  ATP288      0.4393
     27  N6        35.4320   34.6980    0.6390 N.pl3 288  ATP288      0.2180
     28  N1        36.6310   32.8020   -0.0630 N.2   288  ATP288      0.0021
     29  C2        36.9210   31.4880   -0.0300 C.3   288  ATP288      0.5254
     30  N3        36.3020   30.6150    0.7710 N.2   288  ATP288     -0.0055
     31  C4        35.3400   31.0370    1.6250 C.2   288  ATP288      0.3518
@<TRIPOS>BOND
     1    28    29    1
     2    28    26    2
     3    29    30    1
     4    27    26    1
     5    26    25    1
     6    30    31    2
     7    31    25    1
     8    31    22    1
     9    25    24    2
    10    22    21    1
    11    22    23    1
    12    24    23    1
    13    16    21    1
    14    16    15    1
    15    21    19    1
    16    15    14    1
    17    15    17    1
    18     3     1    2
    19    20    19    1
    20    19    17    1
    21    13    14    1
    22    13     9    1
    23     8     1    1
    24     8     5    1
    25    12     9    1
    26    12     5    1
    27    17    18    1
    28     1     2    1
    29     1     4    1
    30     9    11    2
    31     9    10    1
    32     5     6    2
    33     5     7    1
